0:0:0
     RDKit          3D

 92 99  0  0  1  0  0  0  0  0999 V2000
    1.5741   -1.5836    7.1889 C   0  0  0  0  0  0  0  0  0  0  0  0
    2.9376   -2.0980    6.7054 C   0  0  0  0  0  0  0  0  0  0  0  0
    3.3755   -3.3597    6.5632 C   0  0  0  0  0  0  0  0  0  0  0  0
    2.6382   -4.6973    6.4095 C   0  0  1  0  0  0  0  0  0  0  0  0
    1.2645   -4.7517    7.1112 C   0  0  0  0  0  0  0  0  0  0  0  0
    2.7859   -5.2396    4.8882 C   0  0  2  0  0  0  0  0  0  0  0  0
    4.1010   -5.7362    5.0608 O   0  0  0  0  0  0  0  0  0  0  0  0
    2.8532   -4.1008    3.7807 C   0  0  2  0  0  0  0  0  0  0  0  0
    1.8455   -2.9336    3.9351 C   0  0  0  0  0  0  0  0  0  0  0  0
    2.4685   -1.4879    3.8860 C   0  0  0  0  0  0  0  0  0  0  0  0
    3.8328   -1.1781    4.6633 C   0  0  1  0  0  0  0  0  0  0  0  0
    3.6111   -1.0889    6.0701 O   0  0  0  0  0  0  0  0  0  0  0  0
    4.9666   -1.9805    4.3442 O   0  0  0  0  0  0  0  0  0  0  0  0
    5.2830   -2.2217    2.9764 C   0  0  2  0  0  0  0  0  0  0  0  0
    4.6940   -1.3330    2.0989 O   0  0  0  0  0  0  0  0  0  0  0  0
    4.6687   -1.6578    0.7258 C   0  0  1  0  0  0  0  0  0  0  0  0
    4.2082   -0.3415    0.1136 C   0  0  0  0  0  0  0  0  0  0  0  0
    6.0469   -2.0299    0.1422 C   0  0  0  0  0  0  0  0  0  0  0  0
    6.3134   -3.5352    0.1798 C   0  0  0  0  0  0  0  0  0  0  0  0
    6.2299   -4.1797    1.5666 C   0  0  0  0  0  0  0  0  0  0  0  0
    5.1218   -3.7550    2.5826 C   0  0  2  0  0  0  0  0  0  0  0  0
    3.6079   -4.1894    2.3746 C   0  0  2  0  0  0  0  0  0  0  0  0
    2.9750   -3.1505    1.5962 O   0  0  0  0  0  0  0  0  0  0  0  0
    3.7903   -2.7238    0.3925 O   0  0  0  0  0  0  0  0  0  0  0  0
    3.2877   -5.5775    1.6768 C   0  0  1  0  0  0  0  0  0  0  0  0
    3.6405   -5.6571    0.1781 C   0  0  0  0  0  0  0  0  0  0  0  0
    3.6248   -6.9327    2.4465 C   0  0  2  0  0  0  0  0  0  0  0  0
    4.1881   -8.0728    1.5422 C   0  0  0  0  0  0  0  0  0  0  0  0
    4.5365   -9.3591    2.3014 C   0  0  0  0  0  0  0  0  0  0  0  0
    3.2940   -9.9361    2.9865 C   0  0  1  0  0  0  0  0  0  0  0  0
    3.6372  -11.3116    3.6114 C   0  0  0  0  0  0  0  0  0  0  0  0
    2.7493   -8.8745    3.9882 C   0  0  2  0  0  0  0  0  0  0  0  0
    1.7047   -9.4222    5.0287 C   0  0  0  0  0  0  0  0  0  0  0  0
    0.2103   -9.4748    4.6516 C   0  0  0  0  0  0  0  0  0  0  0  0
   -0.3223   -8.5264    3.5593 C   0  0  1  0  0  0  0  0  0  0  0  0
   -1.7415   -8.9848    3.1588 C   0  0  0  0  0  0  0  0  0  0  0  0
   -0.5220   -7.1275    3.8105 O   0  0  0  0  0  0  0  0  0  0  0  0
    0.3753   -6.3396    4.5882 C   0  0  0  0  0  0  0  0  0  0  0  0
    1.9252   -6.4944    4.4950 C   0  0  1  0  0  0  0  0  0  0  0  0
    2.4176   -7.4640    3.3393 C   0  0  1  0  0  0  0  0  0  0  0  0
    1.3954   -7.5193    2.3424 O   0  0  0  0  0  0  0  0  0  0  0  0
    0.5515   -8.7494    2.4865 O   0  0  0  0  0  0  0  0  0  0  0  0
    1.0448   -2.2633    7.8379 H   0  0  0  0  0  0  0  0  0  0  0  0
    0.9382   -1.3178    6.3507 H   0  0  0  0  0  0  0  0  0  0  0  0
    1.7454   -0.6763    7.7672 H   0  0  0  0  0  0  0  0  0  0  0  0
    4.4079   -3.4482    6.2289 H   0  0  0  0  0  0  0  0  0  0  0  0
    3.2068   -5.3672    7.0594 H   0  0  0  0  0  0  0  0  0  0  0  0
    1.3403   -4.3283    8.1110 H   0  0  0  0  0  0  0  0  0  0  0  0
    0.9697   -5.7826    7.3021 H   0  0  0  0  0  0  0  0  0  0  0  0
    0.4736   -4.2423    6.5670 H   0  0  0  0  0  0  0  0  0  0  0  0
    4.3898   -6.1310    4.2468 H   0  0  0  0  0  0  0  0  0  0  0  0
    3.6438   -3.6507    4.2838 H   0  0  0  0  0  0  0  0  0  0  0  0
    1.0812   -3.0111    3.1636 H   0  0  0  0  0  0  0  0  0  0  0  0
    1.2768   -3.0451    4.8481 H   0  0  0  0  0  0  0  0  0  0  0  0
    2.5558   -1.1534    2.8576 H   0  0  0  0  0  0  0  0  0  0  0  0
    1.7270   -0.7901    4.2736 H   0  0  0  0  0  0  0  0  0  0  0  0
    4.1425   -0.1689    4.3984 H   0  0  0  0  0  0  0  0  0  0  0  0
    6.3281   -1.9531    2.8823 H   0  0  0  0  0  0  0  0  0  0  0  0
    3.2498   -0.0126    0.5172 H   0  0  0  0  0  0  0  0  0  0  0  0
    4.1061   -0.4069   -0.9754 H   0  0  0  0  0  0  0  0  0  0  0  0
    4.9185    0.4465    0.3420 H   0  0  0  0  0  0  0  0  0  0  0  0
    6.0578   -1.7593   -0.9173 H   0  0  0  0  0  0  0  0  0  0  0  0
    6.8450   -1.4490    0.6108 H   0  0  0  0  0  0  0  0  0  0  0  0
    5.6357   -4.0292   -0.5114 H   0  0  0  0  0  0  0  0  0  0  0  0
    7.3041   -3.7268   -0.2177 H   0  0  0  0  0  0  0  0  0  0  0  0
    6.2031   -5.2653    1.4721 H   0  0  0  0  0  0  0  0  0  0  0  0
    7.2159   -3.9835    1.9715 H   0  0  0  0  0  0  0  0  0  0  0  0
    5.4641   -4.2963    3.4665 H   0  0  0  0  0  0  0  0  0  0  0  0
    2.2012   -5.5150    1.6158 H   0  0  0  0  0  0  0  0  0  0  0  0
    4.6880   -5.8759   -0.0392 H   0  0  0  0  0  0  0  0  0  0  0  0
    3.3347   -4.7876   -0.4002 H   0  0  0  0  0  0  0  0  0  0  0  0
    3.0743   -6.4500   -0.2797 H   0  0  0  0  0  0  0  0  0  0  0  0
    4.5149   -6.7561    3.0416 H   0  0  0  0  0  0  0  0  0  0  0  0
    3.4808   -8.3529    0.7613 H   0  0  0  0  0  0  0  0  0  0  0  0
    5.1071   -7.7552    1.0535 H   0  0  0  0  0  0  0  0  0  0  0  0
    4.9444  -10.0961    1.6022 H   0  0  0  0  0  0  0  0  0  0  0  0
    5.3307   -9.1758    3.0267 H   0  0  0  0  0  0  0  0  0  0  0  0
    2.5494  -10.1309    2.2168 H   0  0  0  0  0  0  0  0  0  0  0  0
    4.2983  -11.2226    4.4748 H   0  0  0  0  0  0  0  0  0  0  0  0
    4.1340  -11.9533    2.8838 H   0  0  0  0  0  0  0  0  0  0  0  0
    2.7433  -11.8466    3.9168 H   0  0  0  0  0  0  0  0  0  0  0  0
    3.6103   -8.6759    4.6247 H   0  0  0  0  0  0  0  0  0  0  0  0
    1.9901  -10.4115    5.3697 H   0  0  0  0  0  0  0  0  0  0  0  0
    1.7683   -8.8926    5.9762 H   0  0  0  0  0  0  0  0  0  0  0  0
    0.0566  -10.4897    4.2729 H   0  0  0  0  0  0  0  0  0  0  0  0
   -0.4007   -9.4121    5.5485 H   0  0  0  0  0  0  0  0  0  0  0  0
   -2.1890   -8.3617    2.3883 H   0  0  0  0  0  0  0  0  0  0  0  0
   -2.4019   -8.9509    4.0292 H   0  0  0  0  0  0  0  0  0  0  0  0
   -1.7497  -10.0166    2.8082 H   0  0  0  0  0  0  0  0  0  0  0  0
    0.0995   -5.3042    4.4021 H   0  0  0  0  0  0  0  0  0  0  0  0
    0.0503   -6.5475    5.6079 H   0  0  0  0  0  0  0  0  0  0  0  0
    2.1320   -7.0280    5.4047 H   0  0  0  0  0  0  0  0  0  0  0  0
  1  2  1  0
  1 43  1  0
  1 44  1  0
  1 45  1  0
  2 12  1  0
  2  3  2  3
  3  4  1  0
  3 46  1  0
  4  5  1  0
  4  6  1  0
  4 47  1  1
  5 48  1  0
  5 49  1  0
  5 50  1  0
  6 39  1  0
  6  7  1  1
  6  8  1  0
  7 51  1  0
  8 22  1  0
  8  9  1  0
  8 52  1  1
  9 10  1  0
  9 53  1  0
  9 54  1  0
 10 11  1  0
 10 55  1  0
 10 56  1  0
 11 12  1  0
 11 13  1  0
 11 57  1  6
 13 14  1  0
 14 21  1  0
 14 15  1  0
 14 58  1  1
 15 16  1  0
 16 24  1  0
 16 17  1  6
 16 18  1  0
 17 59  1  0
 17 60  1  0
 17 61  1  0
 18 19  1  0
 18 62  1  0
 18 63  1  0
 19 20  1  0
 19 64  1  0
 19 65  1  0
 20 21  1  0
 20 66  1  0
 20 67  1  0
 21 22  1  0
 21 68  1  1
 22 23  1  6
 22 25  1  0
 23 24  1  0
 25 26  1  0
 25 27  1  0
 25 69  1  6
 26 70  1  0
 26 71  1  0
 26 72  1  0
 27 40  1  0
 27 28  1  0
 27 73  1  1
 28 29  1  0
 28 74  1  0
 28 75  1  0
 29 30  1  0
 29 76  1  0
 29 77  1  0
 30 31  1  0
 30 32  1  0
 30 78  1  6
 31 79  1  0
 31 80  1  0
 31 81  1  0
 32 40  1  0
 32 33  1  0
 32 82  1  1
 33 34  1  0
 33 83  1  0
 33 84  1  0
 34 35  1  0
 34 85  1  0
 34 86  1  0
 35 42  1  0
 35 36  1  6
 35 37  1  0
 36 87  1  0
 36 88  1  0
 36 89  1  0
 37 38  1  0
 38 39  1  0
 38 90  1  0
 38 91  1  0
 39 40  1  0
 39 92  1  1
 40 41  1  6
 41 42  1  0
M  END
>  <i_m_ct_stereo_status>  (1) 
1

>  <s_m_source_file>  (1) 
/var/tmp/pbs.5076255.sched01/tmp7e7yg0hy/0s0dyhj_r.sdf

>  <i_m_source_file_index>  (1) 
1

>  <i_lp_mmshare_version>  (1) 
48012

>  <i_f3d_flags>  (1) 
0

>  <s_epik_input>  (1) 
TzFPW0NAXShPMikoW0NIM10pW0NIMl1bQ0gyXVtDSDJdW0NASF0zW0NAQEhdMk9bQ0BASF0oW0NIMl1bQ0gyXTQpT0MoXFtDSDNdKT1bQ0hdL1tDQEBIXShbQ0gzXSlbQ0BdKFtPSF0pKFtDQEhdNFtDQEBdMTM1KVtDQEBIXTZbQ0BAXTc4W0NASF0oW0NAQEhdNVtDSDNdKVtDSDJdW0NIMl1bQ0BASF0oW0NIM10pW0NAQEhdN1tDSDJdW0NIMl1bQ0BdKFtDSDNdKShPTzgpT1tDSDJdNg==

>  <s_epik_cmdline>  (1) 
J2VwaWtfcHl0aG9uJywgJy1waHQnLCAnMi4wJywgJy1waCcsICc3LjAnLCAnLXRuJywgJzgnLCAnLW1hJywgJzIwMCcsICctaW1hZScsICc8aW5maWxlLm1hZT4nLCAnLW9tYWUnLCAnPG91dGZpbGUubWFlPic=

>  <r_lp_tautomer_probability>  (1) 
1

>  <r_epik_Ionization_Penalty>  (1) 
4.18804e-08

>  <r_epik_Ionization_Penalty_Charging>  (1) 
0

>  <r_epik_Ionization_Penalty_Neutral>  (1) 
4.18804e-08

>  <r_epik_State_Penalty>  (1) 
-0

>  <r_epik_Charging_Adjusted_Penalty>  (1) 
0

>  <i_epik_Tot_Q>  (1) 
0

>  <i_epik_Tot_abs_Q>  (1) 
0

>  <s_epik_Chemistry_Notes>  (1) 
This compound contains an acetal/aminal-like group ( X-CH(R)-Y where X, Y are N, S, or O) that may be acid/base labile, releasing an aldehyde.

>  <s_lp_Force_Field>  (1) 
OPLS3e

>  <r_lp_Energy>  (1) 
183.165

>  <b_lp_Chiralities_Consistent>  (1) 
1

>  <s_lp_Variant>  (1) 
0:0-1

>  <s_i_glide_gridfile>  (1) 
pfpi4k_grid

>  <i_i_glide_lignum>  (1) 
1

>  <i_i_glide_rotatable_bonds>  (1) 
1

>  <r_i_docking_score>  (1) 
-2.13722

>  <r_i_glide_ligand_efficiency>  (1) 
-0.0508861

>  <r_i_glide_ligand_efficiency_sa>  (1) 
-0.176881

>  <r_i_glide_ligand_efficiency_ln>  (1) 
-0.451111

>  <r_i_glide_gscore>  (1) 
-2.13722

>  <r_i_glide_lipo>  (1) 
-0.330313

>  <r_i_glide_hbond>  (1) 
0

>  <r_i_glide_metal>  (1) 
-0

>  <r_i_glide_rewards>  (1) 
-0.0949589

>  <r_i_glide_evdw>  (1) 
-30.9531

>  <r_i_glide_ecoul>  (1) 
-0.779434

>  <r_i_glide_erotb>  (1) 
0

>  <r_i_glide_esite>  (1) 
-0.0473746

>  <r_i_glide_emodel>  (1) 
-34.6166

>  <r_i_glide_energy>  (1) 
-31.7325

>  <r_i_glide_einternal>  (1) 
0.00189044

>  <r_i_glide_intrahb_reward>  (1) 
-0

>  <i_i_glide_confnum>  (1) 
2

>  <i_i_glide_posenum>  (1) 
17

>  <r_i_glide_eff_state_penalty>  (1) 
0

>  <ligand_id>  (1) 
0

>  <original_smiles>  (1) 
CC1=CC(C)C2(O)C3CCC(O1)OC1OC4(C)CCCC1C3(OO4)C(C)C1CCC(C)C3CCC4(C)OCC2C31OO4

>  <smiles>  (1) 
[H]OC12C([H])(C([H])([H])[H])C([H])=C(C([H])([H])[H])OC3([H])OC4([H])OC5(C([H])([H])[H])OOC(C4([H])C([H])([H])C([H])([H])C5([H])[H])(C([H])(C([H])([H])[H])C4([H])C([H])([H])C([H])([H])C([H])(C([H])([H])[H])C5([H])C([H])([H])C([H])([H])C6(C([H])([H])[H])OOC54C1([H])C([H])([H])O6)C2([H])C([H])([H])C3([H])[H]

$$$$
0:0:1
     RDKit          3D

 92 99  0  0  1  0  0  0  0  0999 V2000
    4.1929    1.5386    5.3765 C   0  0  0  0  0  0  0  0  0  0  0  0
    5.0376    0.3234    5.0314 C   0  0  0  0  0  0  0  0  0  0  0  0
    5.0707   -0.9066    5.5907 C   0  0  0  0  0  0  0  0  0  0  0  0
    4.0556   -1.6580    6.4668 C   0  0  1  0  0  0  0  0  0  0  0  0
    3.1646   -0.7497    7.3368 C   0  0  0  0  0  0  0  0  0  0  0  0
    3.3943   -2.8669    5.6085 C   0  0  2  0  0  0  0  0  0  0  0  0
    4.5113   -3.7329    5.7461 O   0  0  0  0  0  0  0  0  0  0  0  0
    3.2307   -2.5796    4.0531 C   0  0  2  0  0  0  0  0  0  0  0  0
    2.6882   -1.1747    3.6785 C   0  0  0  0  0  0  0  0  0  0  0  0
    3.5355   -0.3834    2.6147 C   0  0  0  0  0  0  0  0  0  0  0  0
    5.1322   -0.3816    2.7177 C   0  0  1  0  0  0  0  0  0  0  0  0
    5.5808    0.4561    3.7732 O   0  0  0  0  0  0  0  0  0  0  0  0
    5.7966   -1.6390    2.7215 O   0  0  0  0  0  0  0  0  0  0  0  0
    5.4446   -2.6187    1.7632 C   0  0  2  0  0  0  0  0  0  0  0  0
    4.7539   -2.1117    0.6718 O   0  0  0  0  0  0  0  0  0  0  0  0
    4.0300   -2.9966   -0.1726 C   0  0  1  0  0  0  0  0  0  0  0  0
    3.6350   -2.0971   -1.3646 C   0  0  0  0  0  0  0  0  0  0  0  0
    4.8800   -4.1810   -0.6742 C   0  0  0  0  0  0  0  0  0  0  0  0
    4.7934   -5.4091    0.2357 C   0  0  0  0  0  0  0  0  0  0  0  0
    5.2076   -5.1819    1.7001 C   0  0  0  0  0  0  0  0  0  0  0  0
    4.7622   -3.8934    2.4362 C   0  0  2  0  0  0  0  0  0  0  0  0
    3.2494   -3.6626    2.8737 C   0  0  2  0  0  0  0  0  0  0  0  0
    2.5877   -2.9553    1.7966 O   0  0  0  0  0  0  0  0  0  0  0  0
    2.8643   -3.5834    0.4215 O   0  0  0  0  0  0  0  0  0  0  0  0
    2.3403   -4.9056    3.2795 C   0  0  1  0  0  0  0  0  0  0  0  0
    1.9428   -5.8610    2.1229 C   0  0  0  0  0  0  0  0  0  0  0  0
    2.6659   -5.6934    4.6275 C   0  0  2  0  0  0  0  0  0  0  0  0
    2.5004   -7.2412    4.5160 C   0  0  0  0  0  0  0  0  0  0  0  0
    2.8424   -8.0054    5.8034 C   0  0  0  0  0  0  0  0  0  0  0  0
    1.9345   -7.5576    6.9520 C   0  0  1  0  0  0  0  0  0  0  0  0
    2.1942   -8.4469    8.1908 C   0  0  0  0  0  0  0  0  0  0  0  0
    2.1376   -6.0302    7.1828 C   0  0  2  0  0  0  0  0  0  0  0  0
    1.5622   -5.4759    8.5360 C   0  0  0  0  0  0  0  0  0  0  0  0
    0.0888   -5.0512    8.6222 C   0  0  0  0  0  0  0  0  0  0  0  0
   -0.6306   -4.6172    7.3294 C   0  0  1  0  0  0  0  0  0  0  0  0
   -2.1340   -4.5226    7.6354 C   0  0  0  0  0  0  0  0  0  0  0  0
   -0.3810   -3.3439    6.7271 O   0  0  0  0  0  0  0  0  0  0  0  0
    0.9189   -2.7753    6.5956 C   0  0  0  0  0  0  0  0  0  0  0  0
    2.1903   -3.6228    6.2779 C   0  0  1  0  0  0  0  0  0  0  0  0
    1.8861   -5.1333    5.8971 C   0  0  1  0  0  0  0  0  0  0  0  0
    0.5483   -5.2181    5.3796 O   0  0  0  0  0  0  0  0  0  0  0  0
   -0.4199   -5.6899    6.4494 O   0  0  0  0  0  0  0  0  0  0  0  0
    3.8530    1.5746    6.4025 H   0  0  0  0  0  0  0  0  0  0  0  0
    3.3329    1.6262    4.7158 H   0  0  0  0  0  0  0  0  0  0  0  0
    4.7989    2.4331    5.2344 H   0  0  0  0  0  0  0  0  0  0  0  0
    5.7985   -1.5854    5.1703 H   0  0  0  0  0  0  0  0  0  0  0  0
    4.6869   -2.1009    7.2434 H   0  0  0  0  0  0  0  0  0  0  0  0
    3.7652    0.0227    7.8141 H   0  0  0  0  0  0  0  0  0  0  0  0
    2.7587   -1.3028    8.1826 H   0  0  0  0  0  0  0  0  0  0  0  0
    2.3526   -0.2769    6.7864 H   0  0  0  0  0  0  0  0  0  0  0  0
    4.5278   -4.3301    5.0212 H   0  0  0  0  0  0  0  0  0  0  0  0
    4.2357   -2.3388    3.9838 H   0  0  0  0  0  0  0  0  0  0  0  0
    1.6632   -1.2643    3.3149 H   0  0  0  0  0  0  0  0  0  0  0  0
    2.5704   -0.5621    4.5668 H   0  0  0  0  0  0  0  0  0  0  0  0
    3.2372   -0.6666    1.6124 H   0  0  0  0  0  0  0  0  0  0  0  0
    3.2244    0.6624    2.6462 H   0  0  0  0  0  0  0  0  0  0  0  0
    5.5157    0.1087    1.8221 H   0  0  0  0  0  0  0  0  0  0  0  0
    6.4142   -2.9157    1.3649 H   0  0  0  0  0  0  0  0  0  0  0  0
    3.0778   -1.2191   -1.0450 H   0  0  0  0  0  0  0  0  0  0  0  0
    3.0306   -2.6231   -2.1024 H   0  0  0  0  0  0  0  0  0  0  0  0
    4.5241   -1.7354   -1.8776 H   0  0  0  0  0  0  0  0  0  0  0  0
    4.4870   -4.4979   -1.6419 H   0  0  0  0  0  0  0  0  0  0  0  0
    5.9072   -3.8728   -0.8573 H   0  0  0  0  0  0  0  0  0  0  0  0
    3.7896   -5.8163    0.1706 H   0  0  0  0  0  0  0  0  0  0  0  0
    5.4227   -6.1914   -0.1775 H   0  0  0  0  0  0  0  0  0  0  0  0
    4.8838   -6.0393    2.2903 H   0  0  0  0  0  0  0  0  0  0  0  0
    6.2945   -5.2221    1.7430 H   0  0  0  0  0  0  0  0  0  0  0  0
    5.3213   -4.0214    3.3632 H   0  0  0  0  0  0  0  0  0  0  0  0
    1.3913   -4.3970    3.4379 H   0  0  0  0  0  0  0  0  0  0  0  0
    2.7166   -6.5815    1.8603 H   0  0  0  0  0  0  0  0  0  0  0  0
    1.6444   -5.3453    1.2134 H   0  0  0  0  0  0  0  0  0  0  0  0
    1.0646   -6.4455    2.3914 H   0  0  0  0  0  0  0  0  0  0  0  0
    3.7362   -5.6602    4.7767 H   0  0  0  0  0  0  0  0  0  0  0  0
    1.4814   -7.5221    4.2467 H   0  0  0  0  0  0  0  0  0  0  0  0
    3.1619   -7.6459    3.7483 H   0  0  0  0  0  0  0  0  0  0  0  0
    2.7228   -9.0779    5.6353 H   0  0  0  0  0  0  0  0  0  0  0  0
    3.8939   -7.8650    6.0628 H   0  0  0  0  0  0  0  0  0  0  0  0
    0.9035   -7.7420    6.6534 H   0  0  0  0  0  0  0  0  0  0  0  0
    3.1665   -8.2539    8.6438 H   0  0  0  0  0  0  0  0  0  0  0  0
    2.1628   -9.5051    7.9286 H   0  0  0  0  0  0  0  0  0  0  0  0
    1.4292   -8.3083    8.9536 H   0  0  0  0  0  0  0  0  0  0  0  0
    3.2146   -5.9499    7.3443 H   0  0  0  0  0  0  0  0  0  0  0  0
    1.7457   -6.1864    9.3346 H   0  0  0  0  0  0  0  0  0  0  0  0
    2.1544   -4.6461    8.9054 H   0  0  0  0  0  0  0  0  0  0  0  0
   -0.4461   -5.9266    8.9895 H   0  0  0  0  0  0  0  0  0  0  0  0
   -0.0314   -4.2890    9.3912 H   0  0  0  0  0  0  0  0  0  0  0  0
   -2.7328   -4.2321    6.7821 H   0  0  0  0  0  0  0  0  0  0  0  0
   -2.3287   -3.8282    8.4383 H   0  0  0  0  0  0  0  0  0  0  0  0
   -2.5354   -5.4546    8.0054 H   0  0  0  0  0  0  0  0  0  0  0  0
    0.8268   -1.9661    5.8779 H   0  0  0  0  0  0  0  0  0  0  0  0
    1.0483   -2.2908    7.5586 H   0  0  0  0  0  0  0  0  0  0  0  0
    2.6507   -3.6817    7.2475 H   0  0  0  0  0  0  0  0  0  0  0  0
  1  2  1  0
  1 43  1  0
  1 44  1  0
  1 45  1  0
  2 12  1  0
  2  3  2  3
  3  4  1  0
  3 46  1  0
  4  5  1  0
  4  6  1  0
  4 47  1  1
  5 48  1  0
  5 49  1  0
  5 50  1  0
  6 39  1  0
  6  7  1  6
  6  8  1  0
  7 51  1  0
  8 22  1  0
  8  9  1  0
  8 52  1  6
  9 10  1  0
  9 53  1  0
  9 54  1  0
 10 11  1  0
 10 55  1  0
 10 56  1  0
 11 12  1  0
 11 13  1  0
 11 57  1  6
 13 14  1  0
 14 21  1  0
 14 15  1  0
 14 58  1  6
 15 16  1  0
 16 24  1  0
 16 17  1  6
 16 18  1  0
 17 59  1  0
 17 60  1  0
 17 61  1  0
 18 19  1  0
 18 62  1  0
 18 63  1  0
 19 20  1  0
 19 64  1  0
 19 65  1  0
 20 21  1  0
 20 66  1  0
 20 67  1  0
 21 22  1  0
 21 68  1  1
 22 23  1  6
 22 25  1  0
 23 24  1  0
 25 26  1  0
 25 27  1  0
 25 69  1  1
 26 70  1  0
 26 71  1  0
 26 72  1  0
 27 40  1  0
 27 28  1  0
 27 73  1  1
 28 29  1  0
 28 74  1  0
 28 75  1  0
 29 30  1  0
 29 76  1  0
 29 77  1  0
 30 31  1  0
 30 32  1  0
 30 78  1  6
 31 79  1  0
 31 80  1  0
 31 81  1  0
 32 40  1  0
 32 33  1  0
 32 82  1  1
 33 34  1  0
 33 83  1  0
 33 84  1  0
 34 35  1  0
 34 85  1  0
 34 86  1  0
 35 42  1  0
 35 36  1  1
 35 37  1  0
 36 87  1  0
 36 88  1  0
 36 89  1  0
 37 38  1  0
 38 39  1  0
 38 90  1  0
 38 91  1  0
 39 40  1  0
 39 92  1  1
 40 41  1  6
 41 42  1  0
M  END
>  <i_m_ct_stereo_status>  (2) 
1

>  <s_m_source_file>  (2) 
/var/tmp/pbs.5076255.sched01/tmp7e7yg0hy/0s0dyhj_r.sdf

>  <i_m_source_file_index>  (2) 
1

>  <i_lp_mmshare_version>  (2) 
48012

>  <i_f3d_flags>  (2) 
0

>  <s_epik_input>  (2) 
TzFPW0NAXShPMikoW0NIM10pW0NIMl1bQ0gyXVtDSDJdW0NASF0zW0NAQEhdMk9bQ0BASF0oW0NIMl1bQ0gyXTQpT0MoXFtDSDNdKT1bQ0hdL1tDQEBIXShbQ0gzXSlbQ0BdKFtPSF0pKFtDQEhdNFtDQEBdMTM1KVtDQEBIXTZbQ0BAXTc4W0NASF0oW0NAQEhdNVtDSDNdKVtDSDJdW0NIMl1bQ0BASF0oW0NIM10pW0NAQEhdN1tDSDJdW0NIMl1bQ0BdKFtDSDNdKShPTzgpT1tDSDJdNg==

>  <s_epik_cmdline>  (2) 
J2VwaWtfcHl0aG9uJywgJy1waHQnLCAnMi4wJywgJy1waCcsICc3LjAnLCAnLXRuJywgJzgnLCAnLW1hJywgJzIwMCcsICctaW1hZScsICc8aW5maWxlLm1hZT4nLCAnLW9tYWUnLCAnPG91dGZpbGUubWFlPic=

>  <r_lp_tautomer_probability>  (2) 
1

>  <r_epik_Ionization_Penalty>  (2) 
4.18804e-08

>  <r_epik_Ionization_Penalty_Charging>  (2) 
0

>  <r_epik_Ionization_Penalty_Neutral>  (2) 
4.18804e-08

>  <r_epik_State_Penalty>  (2) 
-0

>  <r_epik_Charging_Adjusted_Penalty>  (2) 
0

>  <i_epik_Tot_Q>  (2) 
0

>  <i_epik_Tot_abs_Q>  (2) 
0

>  <s_epik_Chemistry_Notes>  (2) 
This compound contains an acetal/aminal-like group ( X-CH(R)-Y where X, Y are N, S, or O) that may be acid/base labile, releasing an aldehyde.

>  <s_lp_Force_Field>  (2) 
OPLS3e

>  <r_lp_Energy>  (2) 
183.165

>  <b_lp_Chiralities_Consistent>  (2) 
1

>  <s_lp_Variant>  (2) 
0:0-1

>  <s_i_glide_gridfile>  (2) 
pfpi4k_grid

>  <i_i_glide_lignum>  (2) 
1

>  <i_i_glide_rotatable_bonds>  (2) 
1

>  <r_i_docking_score>  (2) 
-1.95869

>  <r_i_glide_ligand_efficiency>  (2) 
-0.0466356

>  <r_i_glide_ligand_efficiency_sa>  (2) 
-0.162106

>  <r_i_glide_ligand_efficiency_ln>  (2) 
-0.41343

>  <r_i_glide_gscore>  (2) 
-1.95869

>  <r_i_glide_lipo>  (2) 
-0.238529

>  <r_i_glide_hbond>  (2) 
-0.0255551

>  <r_i_glide_metal>  (2) 
-0

>  <r_i_glide_rewards>  (2) 
-0.272631

>  <r_i_glide_evdw>  (2) 
-29.8672

>  <r_i_glide_ecoul>  (2) 
0.508623

>  <r_i_glide_erotb>  (2) 
0

>  <r_i_glide_esite>  (2) 
-0.00491315

>  <r_i_glide_emodel>  (2) 
-31.7355

>  <r_i_glide_energy>  (2) 
-29.3585

>  <r_i_glide_einternal>  (2) 
0.67177

>  <r_i_glide_intrahb_reward>  (2) 
-0

>  <i_i_glide_confnum>  (2) 
1

>  <i_i_glide_posenum>  (2) 
10

>  <r_i_glide_eff_state_penalty>  (2) 
0

>  <ligand_id>  (2) 
0

>  <original_smiles>  (2) 
CC1=CC(C)C2(O)C3CCC(O1)OC1OC4(C)CCCC1C3(OO4)C(C)C1CCC(C)C3CCC4(C)OCC2C31OO4

>  <smiles>  (2) 
[H]OC12C([H])(C([H])([H])[H])C([H])=C(C([H])([H])[H])OC3([H])OC4([H])OC5(C([H])([H])[H])OOC(C4([H])C([H])([H])C([H])([H])C5([H])[H])(C([H])(C([H])([H])[H])C4([H])C([H])([H])C([H])([H])C([H])(C([H])([H])[H])C5([H])C([H])([H])C([H])([H])C6(C([H])([H])[H])OOC54C1([H])C([H])([H])O6)C2([H])C([H])([H])C3([H])[H]

$$$$
0:0:2
     RDKit          3D

 92 99  0  0  1  0  0  0  0  0999 V2000
    4.2988    1.3330    5.3823 C   0  0  0  0  0  0  0  0  0  0  0  0
    5.0972    0.0959    5.0186 C   0  0  0  0  0  0  0  0  0  0  0  0
    5.0712   -1.1513    5.5448 C   0  0  0  0  0  0  0  0  0  0  0  0
    4.0080   -1.8848    6.3778 C   0  0  1  0  0  0  0  0  0  0  0  0
    3.1329   -0.9675    7.2523 C   0  0  0  0  0  0  0  0  0  0  0  0
    3.3165   -3.0437    5.4729 C   0  0  2  0  0  0  0  0  0  0  0  0
    4.3820   -3.9722    5.6146 O   0  0  0  0  0  0  0  0  0  0  0  0
    3.1999   -2.7068    3.9228 C   0  0  2  0  0  0  0  0  0  0  0  0
    2.7267   -1.2680    3.5744 C   0  0  0  0  0  0  0  0  0  0  0  0
    3.6255   -0.4759    2.5521 C   0  0  0  0  0  0  0  0  0  0  0  0
    5.2129   -0.5422    2.6872 C   0  0  1  0  0  0  0  0  0  0  0  0
    5.6743    0.2442    3.7768 O   0  0  0  0  0  0  0  0  0  0  0  0
    5.8145   -1.8286    2.6769 O   0  0  0  0  0  0  0  0  0  0  0  0
    5.4600   -2.7640    1.6799 C   0  0  2  0  0  0  0  0  0  0  0  0
    4.8207   -2.1985    0.5900 O   0  0  0  0  0  0  0  0  0  0  0  0
    4.0851   -3.0290   -0.2982 C   0  0  1  0  0  0  0  0  0  0  0  0
    3.7546   -2.0794   -1.4731 C   0  0  0  0  0  0  0  0  0  0  0  0
    4.9014   -4.2303   -0.8115 C   0  0  0  0  0  0  0  0  0  0  0  0
    4.7412   -5.4757    0.0654 C   0  0  0  0  0  0  0  0  0  0  0  0
    5.1307   -5.3117    1.5408 C   0  0  0  0  0  0  0  0  0  0  0  0
    4.7175   -4.0309    2.3013 C   0  0  2  0  0  0  0  0  0  0  0  0
    3.2081   -3.7539    2.7124 C   0  0  2  0  0  0  0  0  0  0  0  0
    2.6003   -2.9871    1.6440 O   0  0  0  0  0  0  0  0  0  0  0  0
    2.8815   -3.5856    0.2499 O   0  0  0  0  0  0  0  0  0  0  0  0
    2.2382   -4.9698    3.0553 C   0  0  1  0  0  0  0  0  0  0  0  0
    1.8330   -5.8769    1.8620 C   0  0  0  0  0  0  0  0  0  0  0  0
    2.5026   -5.8072    4.3836 C   0  0  2  0  0  0  0  0  0  0  0  0
    2.2797   -7.3431    4.2260 C   0  0  0  0  0  0  0  0  0  0  0  0
    2.5595   -8.1585    5.4979 C   0  0  0  0  0  0  0  0  0  0  0  0
    1.6432   -7.7070    6.6375 C   0  0  1  0  0  0  0  0  0  0  0  0
    1.8375   -8.6410    7.8554 C   0  0  0  0  0  0  0  0  0  0  0  0
    1.9012   -6.1970    6.9181 C   0  0  2  0  0  0  0  0  0  0  0  0
    1.3169   -5.6584    8.2755 C   0  0  0  0  0  0  0  0  0  0  0  0
   -0.1374   -5.1759    8.3425 C   0  0  0  0  0  0  0  0  0  0  0  0
   -0.8051   -4.6753    7.0468 C   0  0  1  0  0  0  0  0  0  0  0  0
   -2.3087   -4.5284    7.3279 C   0  0  0  0  0  0  0  0  0  0  0  0
   -0.4963   -3.3989    6.4857 O   0  0  0  0  0  0  0  0  0  0  0  0
    0.8249   -2.8761    6.3995 C   0  0  0  0  0  0  0  0  0  0  0  0
    2.0682   -3.7657    6.0897 C   0  0  1  0  0  0  0  0  0  0  0  0
    1.7189   -5.2533    5.6545 C   0  0  1  0  0  0  0  0  0  0  0  0
    0.3918   -5.2683    5.1043 O   0  0  0  0  0  0  0  0  0  0  0  0
   -0.6180   -5.7321    6.1436 O   0  0  0  0  0  0  0  0  0  0  0  0
    3.9360    1.3537    6.4009 H   0  0  0  0  0  0  0  0  0  0  0  0
    3.4584    1.4759    4.7068 H   0  0  0  0  0  0  0  0  0  0  0  0
    4.9452    2.2045    5.2770 H   0  0  0  0  0  0  0  0  0  0  0  0
    5.7798   -1.8465    5.1193 H   0  0  0  0  0  0  0  0  0  0  0  0
    4.6069   -2.3686    7.1553 H   0  0  0  0  0  0  0  0  0  0  0  0
    3.7493   -0.2326    7.7662 H   0  0  0  0  0  0  0  0  0  0  0  0
    2.6840   -1.5261    8.0725 H   0  0  0  0  0  0  0  0  0  0  0  0
    2.3529   -0.4470    6.6982 H   0  0  0  0  0  0  0  0  0  0  0  0
    4.4784   -4.1984    6.5248 H   0  0  0  0  0  0  0  0  0  0  0  0
    4.2163   -2.5155    3.8908 H   0  0  0  0  0  0  0  0  0  0  0  0
    1.7057   -1.3068    3.1851 H   0  0  0  0  0  0  0  0  0  0  0  0
    2.6105   -0.6762    4.4795 H   0  0  0  0  0  0  0  0  0  0  0  0
    3.3379   -0.7204    1.5370 H   0  0  0  0  0  0  0  0  0  0  0  0
    3.3528    0.5775    2.6077 H   0  0  0  0  0  0  0  0  0  0  0  0
    5.6409   -0.0442    1.8190 H   0  0  0  0  0  0  0  0  0  0  0  0
    6.4290   -3.0838    1.3026 H   0  0  0  0  0  0  0  0  0  0  0  0
    3.2256   -1.1887   -1.1402 H   0  0  0  0  0  0  0  0  0  0  0  0
    3.1483   -2.5594   -2.2389 H   0  0  0  0  0  0  0  0  0  0  0  0
    4.6685   -1.7408   -1.9538 H   0  0  0  0  0  0  0  0  0  0  0  0
    4.5238   -4.5038   -1.7971 H   0  0  0  0  0  0  0  0  0  0  0  0
    5.9412   -3.9585   -0.9609 H   0  0  0  0  0  0  0  0  0  0  0  0
    3.7260   -5.8457   -0.0403 H   0  0  0  0  0  0  0  0  0  0  0  0
    5.3580   -6.2626   -0.3535 H   0  0  0  0  0  0  0  0  0  0  0  0
    4.7589   -6.1729    2.0950 H   0  0  0  0  0  0  0  0  0  0  0  0
    6.2116   -5.3982    1.6042 H   0  0  0  0  0  0  0  0  0  0  0  0
    5.2419   -4.2098    3.2400 H   0  0  0  0  0  0  0  0  0  0  0  0
    1.3078   -4.4275    3.2093 H   0  0  0  0  0  0  0  0  0  0  0  0
    2.5840   -6.6192    1.5966 H   0  0  0  0  0  0  0  0  0  0  0  0
    1.5801   -5.3235    0.9621 H   0  0  0  0  0  0  0  0  0  0  0  0
    0.9265   -6.4324    2.0933 H   0  0  0  0  0  0  0  0  0  0  0  0
    3.5687   -5.8153    4.5537 H   0  0  0  0  0  0  0  0  0  0  0  0
    1.2571   -7.5759    3.9255 H   0  0  0  0  0  0  0  0  0  0  0  0
    2.9432   -7.7524    3.4615 H   0  0  0  0  0  0  0  0  0  0  0  0
    2.4014   -9.2196    5.2952 H   0  0  0  0  0  0  0  0  0  0  0  0
    3.6096   -8.0676    5.7839 H   0  0  0  0  0  0  0  0  0  0  0  0
    0.6131   -7.8411    6.3108 H   0  0  0  0  0  0  0  0  0  0  0  0
    2.8060   -8.5013    8.3367 H   0  0  0  0  0  0  0  0  0  0  0  0
    1.7709   -9.6898    7.5622 H   0  0  0  0  0  0  0  0  0  0  0  0
    1.0601   -8.4941    8.6043 H   0  0  0  0  0  0  0  0  0  0  0  0
    2.9751   -6.1665    7.1057 H   0  0  0  0  0  0  0  0  0  0  0  0
    1.4517   -6.3992    9.0555 H   0  0  0  0  0  0  0  0  0  0  0  0
    1.9320   -4.8656    8.6850 H   0  0  0  0  0  0  0  0  0  0  0  0
   -0.7146   -6.0398    8.6632 H   0  0  0  0  0  0  0  0  0  0  0  0
   -0.2488   -4.4340    9.1292 H   0  0  0  0  0  0  0  0  0  0  0  0
   -2.8857   -4.1830    6.4823 H   0  0  0  0  0  0  0  0  0  0  0  0
   -2.4927   -3.8522    8.1478 H   0  0  0  0  0  0  0  0  0  0  0  0
   -2.7593   -5.4466    7.6575 H   0  0  0  0  0  0  0  0  0  0  0  0
    0.7817   -2.0441    5.7037 H   0  0  0  0  0  0  0  0  0  0  0  0
    0.9503   -2.4252    7.3785 H   0  0  0  0  0  0  0  0  0  0  0  0
    2.4934   -3.8702    7.0711 H   0  0  0  0  0  0  0  0  0  0  0  0
  1  2  1  0
  1 43  1  0
  1 44  1  0
  1 45  1  0
  2 12  1  0
  2  3  2  3
  3  4  1  0
  3 46  1  0
  4  5  1  0
  4  6  1  0
  4 47  1  1
  5 48  1  0
  5 49  1  0
  5 50  1  0
  6 39  1  0
  6  7  1  6
  6  8  1  0
  7 51  1  0
  8 22  1  0
  8  9  1  0
  8 52  1  6
  9 10  1  0
  9 53  1  0
  9 54  1  0
 10 11  1  0
 10 55  1  0
 10 56  1  0
 11 12  1  0
 11 13  1  0
 11 57  1  6
 13 14  1  0
 14 21  1  0
 14 15  1  0
 14 58  1  6
 15 16  1  0
 16 24  1  0
 16 17  1  6
 16 18  1  0
 17 59  1  0
 17 60  1  0
 17 61  1  0
 18 19  1  0
 18 62  1  0
 18 63  1  0
 19 20  1  0
 19 64  1  0
 19 65  1  0
 20 21  1  0
 20 66  1  0
 20 67  1  0
 21 22  1  0
 21 68  1  1
 22 23  1  6
 22 25  1  0
 23 24  1  0
 25 26  1  0
 25 27  1  0
 25 69  1  1
 26 70  1  0
 26 71  1  0
 26 72  1  0
 27 40  1  0
 27 28  1  0
 27 73  1  1
 28 29  1  0
 28 74  1  0
 28 75  1  0
 29 30  1  0
 29 76  1  0
 29 77  1  0
 30 31  1  0
 30 32  1  0
 30 78  1  6
 31 79  1  0
 31 80  1  0
 31 81  1  0
 32 40  1  0
 32 33  1  0
 32 82  1  1
 33 34  1  0
 33 83  1  0
 33 84  1  0
 34 35  1  0
 34 85  1  0
 34 86  1  0
 35 42  1  0
 35 36  1  1
 35 37  1  0
 36 87  1  0
 36 88  1  0
 36 89  1  0
 37 38  1  0
 38 39  1  0
 38 90  1  0
 38 91  1  0
 39 40  1  0
 39 92  1  1
 40 41  1  6
 41 42  1  0
M  END
>  <i_m_ct_stereo_status>  (3) 
1

>  <s_m_source_file>  (3) 
/var/tmp/pbs.5076255.sched01/tmp7e7yg0hy/0s0dyhj_r.sdf

>  <i_m_source_file_index>  (3) 
1

>  <i_lp_mmshare_version>  (3) 
48012

>  <i_f3d_flags>  (3) 
0

>  <s_epik_input>  (3) 
TzFPW0NAXShPMikoW0NIM10pW0NIMl1bQ0gyXVtDSDJdW0NASF0zW0NAQEhdMk9bQ0BASF0oW0NIMl1bQ0gyXTQpT0MoXFtDSDNdKT1bQ0hdL1tDQEBIXShbQ0gzXSlbQ0BdKFtPSF0pKFtDQEhdNFtDQEBdMTM1KVtDQEBIXTZbQ0BAXTc4W0NASF0oW0NAQEhdNVtDSDNdKVtDSDJdW0NIMl1bQ0BASF0oW0NIM10pW0NAQEhdN1tDSDJdW0NIMl1bQ0BdKFtDSDNdKShPTzgpT1tDSDJdNg==

>  <s_epik_cmdline>  (3) 
J2VwaWtfcHl0aG9uJywgJy1waHQnLCAnMi4wJywgJy1waCcsICc3LjAnLCAnLXRuJywgJzgnLCAnLW1hJywgJzIwMCcsICctaW1hZScsICc8aW5maWxlLm1hZT4nLCAnLW9tYWUnLCAnPG91dGZpbGUubWFlPic=

>  <r_lp_tautomer_probability>  (3) 
1

>  <r_epik_Ionization_Penalty>  (3) 
4.18804e-08

>  <r_epik_Ionization_Penalty_Charging>  (3) 
0

>  <r_epik_Ionization_Penalty_Neutral>  (3) 
4.18804e-08

>  <r_epik_State_Penalty>  (3) 
-0

>  <r_epik_Charging_Adjusted_Penalty>  (3) 
0

>  <i_epik_Tot_Q>  (3) 
0

>  <i_epik_Tot_abs_Q>  (3) 
0

>  <s_epik_Chemistry_Notes>  (3) 
This compound contains an acetal/aminal-like group ( X-CH(R)-Y where X, Y are N, S, or O) that may be acid/base labile, releasing an aldehyde.

>  <s_lp_Force_Field>  (3) 
OPLS3e

>  <r_lp_Energy>  (3) 
183.165

>  <b_lp_Chiralities_Consistent>  (3) 
1

>  <s_lp_Variant>  (3) 
0:0-1

>  <s_i_glide_gridfile>  (3) 
pfpi4k_grid

>  <i_i_glide_lignum>  (3) 
1

>  <i_i_glide_rotatable_bonds>  (3) 
1

>  <r_i_docking_score>  (3) 
-1.92291

>  <r_i_glide_ligand_efficiency>  (3) 
-0.0457835

>  <r_i_glide_ligand_efficiency_sa>  (3) 
-0.159145

>  <r_i_glide_ligand_efficiency_ln>  (3) 
-0.405876

>  <r_i_glide_gscore>  (3) 
-1.92291

>  <r_i_glide_lipo>  (3) 
-0.202044

>  <r_i_glide_hbond>  (3) 
-0.00423939

>  <r_i_glide_metal>  (3) 
-0

>  <r_i_glide_rewards>  (3) 
-0.261663

>  <r_i_glide_evdw>  (3) 
-31.3317

>  <r_i_glide_ecoul>  (3) 
0.750648

>  <r_i_glide_erotb>  (3) 
0

>  <r_i_glide_esite>  (3) 
-0.000973955

>  <r_i_glide_emodel>  (3) 
-33.3309

>  <r_i_glide_energy>  (3) 
-30.5811

>  <r_i_glide_einternal>  (3) 
0.0042376

>  <r_i_glide_intrahb_reward>  (3) 
-0

>  <i_i_glide_confnum>  (3) 
1

>  <i_i_glide_posenum>  (3) 
5

>  <r_i_glide_eff_state_penalty>  (3) 
0

>  <ligand_id>  (3) 
0

>  <original_smiles>  (3) 
CC1=CC(C)C2(O)C3CCC(O1)OC1OC4(C)CCCC1C3(OO4)C(C)C1CCC(C)C3CCC4(C)OCC2C31OO4

>  <smiles>  (3) 
[H]OC12C([H])(C([H])([H])[H])C([H])=C(C([H])([H])[H])OC3([H])OC4([H])OC5(C([H])([H])[H])OOC(C4([H])C([H])([H])C([H])([H])C5([H])[H])(C([H])(C([H])([H])[H])C4([H])C([H])([H])C([H])([H])C([H])(C([H])([H])[H])C5([H])C([H])([H])C([H])([H])C6(C([H])([H])[H])OOC54C1([H])C([H])([H])O6)C2([H])C([H])([H])C3([H])[H]

$$$$
1:1:0
     RDKit          3D

 50 53  0  0  1  0  0  0  0  0999 V2000
    4.5615   -7.2342    0.3962 C   0  0  0  0  0  0  0  0  0  0  0  0
    5.6545   -6.4752    0.8847 O   0  0  0  0  0  0  0  0  0  0  0  0
    5.6855   -5.1244    0.8222 C   0  0  0  0  0  0  0  0  0  0  0  0
    6.6358   -4.5017    1.2887 O   0  0  0  0  0  0  0  0  0  0  0  0
    4.4535   -4.4261    0.1560 C   0  0  2  0  0  0  0  0  0  0  0  0
    4.5997   -4.2498   -1.3730 C   0  0  0  0  0  0  0  0  0  0  0  0
    5.3304   -2.9668   -1.8383 C   0  0  2  0  0  0  0  0  0  0  0  0
    6.8313   -3.0560   -1.6888 C   0  0  0  0  0  0  0  0  0  0  0  0
    7.6117   -2.4897   -0.7287 C   0  0  0  0  0  0  0  0  0  0  0  0
    7.2021   -1.7674    0.4570 C   0  0  0  0  0  0  0  0  0  0  0  0
    5.9661   -1.5724    0.9696 C   0  0  0  0  0  0  0  0  0  0  0  0
    5.8604   -0.9129    2.2434 C   0  0  0  0  0  0  0  0  0  0  0  0
    4.8866   -1.0233    3.1516 C   0  0  0  0  0  0  0  0  0  0  0  0
    3.7231   -2.0017    3.2541 C   0  0  1  0  0  0  0  0  0  0  0  0
    3.7851   -2.5094    4.5737 O   0  0  0  0  0  0  0  0  0  0  0  0
    2.3616   -1.3482    3.0770 C   0  0  0  0  0  0  0  0  0  0  0  0
    1.4353   -2.5577    2.9389 C   0  0  0  0  0  0  0  0  0  0  0  0
    2.2343   -3.6849    2.4348 N   0  0  0  0  0  0  0  0  0  0  0  0
    2.0598   -4.9092    3.2165 C   0  0  0  0  0  0  0  0  0  0  0  0
    3.6311   -3.2366    2.3084 C   0  0  1  0  0  0  0  0  0  0  0  0
    3.9420   -3.0987    0.7787 C   0  0  1  0  0  0  0  0  0  0  0  0
    4.6605   -1.8337    0.2449 C   0  0  2  0  0  0  0  0  0  0  0  0
    4.7572   -1.7742   -1.2247 N   0  0  0  0  0  0  0  0  0  0  0  0
    3.4743   -1.4765   -1.8432 C   0  0  0  0  0  0  0  0  0  0  0  0
    4.7667   -8.2933    0.5556 H   0  0  0  0  0  0  0  0  0  0  0  0
    4.4344   -7.0712   -0.6794 H   0  0  0  0  0  0  0  0  0  0  0  0
    3.6445   -6.9455    0.9308 H   0  0  0  0  0  0  0  0  0  0  0  0
    3.6072   -5.0948    0.2873 H   0  0  0  0  0  0  0  0  0  0  0  0
    5.0575   -5.1169   -1.8345 H   0  0  0  0  0  0  0  0  0  0  0  0
    3.5932   -4.2213   -1.7881 H   0  0  0  0  0  0  0  0  0  0  0  0
    5.1944   -2.8658   -2.9199 H   0  0  0  0  0  0  0  0  0  0  0  0
    7.3265   -3.5930   -2.4745 H   0  0  0  0  0  0  0  0  0  0  0  0
    8.6745   -2.6473   -0.8565 H   0  0  0  0  0  0  0  0  0  0  0  0
    8.0295   -1.4140    1.0687 H   0  0  0  0  0  0  0  0  0  0  0  0
    6.6118   -0.1870    2.4859 H   0  0  0  0  0  0  0  0  0  0  0  0
    4.9778   -0.3745    4.0116 H   0  0  0  0  0  0  0  0  0  0  0  0
    3.6978   -1.7724    5.1766 H   0  0  0  0  0  0  0  0  0  0  0  0
    2.0748   -0.6872    3.8983 H   0  0  0  0  0  0  0  0  0  0  0  0
    2.3422   -0.7612    2.1588 H   0  0  0  0  0  0  0  0  0  0  0  0
    0.9968   -2.8074    3.9053 H   0  0  0  0  0  0  0  0  0  0  0  0
    0.6210   -2.2904    2.2655 H   0  0  0  0  0  0  0  0  0  0  0  0
    2.6324   -5.7304    2.7864 H   0  0  0  0  0  0  0  0  0  0  0  0
    1.0164   -5.2129    3.2256 H   0  0  0  0  0  0  0  0  0  0  0  0
    2.3797   -4.7822    4.2483 H   0  0  0  0  0  0  0  0  0  0  0  0
    4.3094   -3.9855    2.7191 H   0  0  0  0  0  0  0  0  0  0  0  0
    2.9585   -2.9817    0.3299 H   0  0  0  0  0  0  0  0  0  0  0  0
    4.0380   -0.9804    0.5304 H   0  0  0  0  0  0  0  0  0  0  0  0
    3.0921   -0.5904   -1.3689 H   0  0  0  0  0  0  0  0  0  0  0  0
    2.7033   -2.2420   -1.7086 H   0  0  0  0  0  0  0  0  0  0  0  0
    3.5979   -1.2734   -2.9123 H   0  0  0  0  0  0  0  0  0  0  0  0
  1  2  1  0
  1 25  1  0
  1 26  1  0
  1 27  1  0
  2  3  1  0
  3  4  2  0
  3  5  1  0
  5 21  1  0
  5  6  1  0
  5 28  1  6
  6  7  1  0
  6 29  1  0
  6 30  1  0
  7 23  1  0
  7  8  1  0
  7 31  1  6
  8  9  2  0
  8 32  1  0
  9 10  1  0
  9 33  1  0
 10 11  2  0
 10 34  1  0
 11 22  1  0
 11 12  1  0
 12 13  2  0
 12 35  1  0
 13 14  1  0
 13 36  1  0
 14 20  1  0
 14 15  1  1
 14 16  1  0
 15 37  1  0
 16 17  1  0
 16 38  1  0
 16 39  1  0
 17 18  1  0
 17 40  1  0
 17 41  1  0
 18 19  1  0
 18 20  1  0
 19 42  1  0
 19 43  1  0
 19 44  1  0
 20 21  1  0
 20 45  1  1
 21 22  1  0
 21 46  1  6
 22 23  1  0
 22 47  1  1
 23 24  1  0
 24 48  1  0
 24 49  1  0
 24 50  1  0
M  END
>  <i_m_ct_stereo_status>  (4) 
1

>  <s_m_source_file>  (4) 
/var/tmp/pbs.5076255.sched01/tmp7e7yg0hy/0s0dyhj_r.sdf

>  <i_m_source_file_index>  (4) 
3

>  <i_lp_mmshare_version>  (4) 
48012

>  <i_f3d_flags>  (4) 
0

>  <s_epik_input>  (4) 
W0NIM11PQyg9TylbQ0BASF0xW0NIMl1bQ0BASF0oTjJbQ0gzXSlbQ0hdPVtDSF1bQ0hdPUMoW0NIXT1bQ0hdMylbQ0BASF0yW0NAQEhdMVtDQEBIXShbQ0BAXTM0W09IXSlOKFtDSDNdKVtDSDJdW0NIMl00

>  <s_epik_cmdline>  (4) 
J2VwaWtfcHl0aG9uJywgJy1waHQnLCAnMi4wJywgJy1waCcsICc3LjAnLCAnLXRuJywgJzgnLCAnLW1hJywgJzIwMCcsICctaW1hZScsICc8aW5maWxlLm1hZT4nLCAnLW9tYWUnLCAnPG91dGZpbGUubWFlPic=

>  <r_epik_Ionization_Penalty>  (4) 
1.24181

>  <r_epik_Ionization_Penalty_Charging>  (4) 
0

>  <r_epik_Ionization_Penalty_Neutral>  (4) 
1.24181

>  <r_epik_State_Penalty>  (4) 
1.2529

>  <r_epik_Charging_Adjusted_Penalty>  (4) 
1.2529

>  <i_epik_Tot_Q>  (4) 
0

>  <i_epik_Tot_abs_Q>  (4) 
0

>  <s_epik_Chemistry_Notes>  (4) 
This compound has an ester and may undergo hydrolysis at high or low pH.

>  <s_lp_Force_Field>  (4) 
OPLS3e

>  <r_lp_Energy>  (4) 
45.0583

>  <b_lp_Chiralities_Consistent>  (4) 
1

>  <s_lp_Variant>  (4) 
1:0-2

>  <s_i_glide_gridfile>  (4) 
pfpi4k_grid

>  <i_i_glide_lignum>  (4) 
3

>  <i_i_glide_rotatable_bonds>  (4) 
3

>  <r_i_docking_score>  (4) 
-3.1245

>  <r_i_glide_ligand_efficiency>  (4) 
-0.130188

>  <r_i_glide_ligand_efficiency_sa>  (4) 
-0.375526

>  <r_i_glide_ligand_efficiency_ln>  (4) 
-0.747836

>  <r_i_glide_gscore>  (4) 
-3.1245

>  <r_i_glide_lipo>  (4) 
-0.557659

>  <r_i_glide_hbond>  (4) 
0

>  <r_i_glide_metal>  (4) 
-0

>  <r_i_glide_rewards>  (4) 
-1.28071

>  <r_i_glide_evdw>  (4) 
-20.2854

>  <r_i_glide_ecoul>  (4) 
-2.96084

>  <r_i_glide_erotb>  (4) 
0.172268

>  <r_i_glide_esite>  (4) 
0

>  <r_i_glide_emodel>  (4) 
-24.344

>  <r_i_glide_energy>  (4) 
-23.2463

>  <r_i_glide_einternal>  (4) 
6.33622

>  <r_i_glide_intrahb_reward>  (4) 
-0

>  <i_i_glide_confnum>  (4) 
3

>  <i_i_glide_posenum>  (4) 
35

>  <r_i_glide_eff_state_penalty>  (4) 
0

>  <ligand_id>  (4) 
1

>  <original_smiles>  (4) 
COC(=O)C1CC2C=CC=C3C=CC4(O)CCN(C)C4C1C3N2C

>  <smiles>  (4) 
[H]OC12C([H])=C([H])C3=C([H])C([H])=C([H])C4([H])N(C([H])([H])[H])C3([H])C([H])(C([H])(C(=O)OC([H])([H])[H])C4([H])[H])C1([H])N(C([H])([H])[H])C([H])([H])C2([H])[H]

$$$$
1:1:1
     RDKit          3D

 50 53  0  0  1  0  0  0  0  0999 V2000
    7.2777   -6.9358    1.3682 C   0  0  0  0  0  0  0  0  0  0  0  0
    6.0987   -6.3139    0.8681 O   0  0  0  0  0  0  0  0  0  0  0  0
    5.9034   -5.0044    1.0765 C   0  0  0  0  0  0  0  0  0  0  0  0
    6.6687   -4.2984    1.7208 O   0  0  0  0  0  0  0  0  0  0  0  0
    4.5936   -4.4767    0.4467 C   0  0  2  0  0  0  0  0  0  0  0  0
    4.6766   -4.3438   -1.0871 C   0  0  0  0  0  0  0  0  0  0  0  0
    5.3187   -3.0344   -1.6052 C   0  0  2  0  0  0  0  0  0  0  0  0
    6.8249   -3.0023   -1.4781 C   0  0  0  0  0  0  0  0  0  0  0  0
    7.5771   -2.3559   -0.5695 C   0  0  0  0  0  0  0  0  0  0  0  0
    7.1364   -1.6097    0.6005 C   0  0  0  0  0  0  0  0  0  0  0  0
    5.8967   -1.4835    1.1216 C   0  0  0  0  0  0  0  0  0  0  0  0
    5.7733   -0.7544    2.3647 C   0  0  0  0  0  0  0  0  0  0  0  0
    4.8101   -0.9024    3.2879 C   0  0  0  0  0  0  0  0  0  0  0  0
    3.7205   -1.9493    3.4399 C   0  0  1  0  0  0  0  0  0  0  0  0
    3.8218   -2.3739    4.7884 O   0  0  0  0  0  0  0  0  0  0  0  0
    2.3074   -1.4029    3.2649 C   0  0  0  0  0  0  0  0  0  0  0  0
    1.4636   -2.6788    3.1852 C   0  0  0  0  0  0  0  0  0  0  0  0
    2.3327   -3.7720    2.7428 N   0  0  0  0  0  0  0  0  0  0  0  0
    2.2434   -4.9709    3.5646 C   0  0  0  0  0  0  0  0  0  0  0  0
    3.6973   -3.2434    2.5684 C   0  0  1  0  0  0  0  0  0  0  0  0
    3.9717   -3.1705    1.0236 C   0  0  1  0  0  0  0  0  0  0  0  0
    4.6046   -1.8777    0.4440 C   0  0  2  0  0  0  0  0  0  0  0  0
    4.6783   -1.8575   -1.0272 N   0  0  0  0  0  0  0  0  0  0  0  0
    3.3776   -1.6021   -1.6435 C   0  0  0  0  0  0  0  0  0  0  0  0
    7.2834   -7.9923    1.1001 H   0  0  0  0  0  0  0  0  0  0  0  0
    7.3293   -6.8591    2.4549 H   0  0  0  0  0  0  0  0  0  0  0  0
    8.1736   -6.4760    0.9494 H   0  0  0  0  0  0  0  0  0  0  0  0
    3.8799   -5.2722    0.6475 H   0  0  0  0  0  0  0  0  0  0  0  0
    5.1828   -5.2069   -1.5169 H   0  0  0  0  0  0  0  0  0  0  0  0
    3.6608   -4.3791   -1.4738 H   0  0  0  0  0  0  0  0  0  0  0  0
    5.1568   -2.9912   -2.6823 H   0  0  0  0  0  0  0  0  0  0  0  0
    7.3438   -3.5362   -2.2616 H   0  0  0  0  0  0  0  0  0  0  0  0
    8.6475   -2.4632   -0.6890 H   0  0  0  0  0  0  0  0  0  0  0  0
    7.9393   -1.1901    1.1912 H   0  0  0  0  0  0  0  0  0  0  0  0
    6.4686    0.0404    2.5602 H   0  0  0  0  0  0  0  0  0  0  0  0
    4.8576   -0.2224    4.1237 H   0  0  0  0  0  0  0  0  0  0  0  0
    3.1327   -3.0062    4.9322 H   0  0  0  0  0  0  0  0  0  0  0  0
    1.9950   -0.7283    4.0649 H   0  0  0  0  0  0  0  0  0  0  0  0
    2.2398   -0.8515    2.3245 H   0  0  0  0  0  0  0  0  0  0  0  0
    1.0404   -2.9029    4.1678 H   0  0  0  0  0  0  0  0  0  0  0  0
    0.6250   -2.5329    2.5034 H   0  0  0  0  0  0  0  0  0  0  0  0
    2.8659   -5.7657    3.1512 H   0  0  0  0  0  0  0  0  0  0  0  0
    1.2199   -5.3393    3.5950 H   0  0  0  0  0  0  0  0  0  0  0  0
    2.5666   -4.7908    4.5898 H   0  0  0  0  0  0  0  0  0  0  0  0
    4.4275   -3.9287    3.0031 H   0  0  0  0  0  0  0  0  0  0  0  0
    2.9757   -3.1509    0.5815 H   0  0  0  0  0  0  0  0  0  0  0  0
    3.9272   -1.0597    0.6939 H   0  0  0  0  0  0  0  0  0  0  0  0
    2.9767   -0.6674   -1.2539 H   0  0  0  0  0  0  0  0  0  0  0  0
    2.6502   -2.3976   -1.4665 H   0  0  0  0  0  0  0  0  0  0  0  0
    3.4827   -1.4794   -2.7248 H   0  0  0  0  0  0  0  0  0  0  0  0
  1  2  1  0
  1 25  1  0
  1 26  1  0
  1 27  1  0
  2  3  1  0
  3  4  2  0
  3  5  1  0
  5 21  1  0
  5  6  1  0
  5 28  1  6
  6  7  1  0
  6 29  1  0
  6 30  1  0
  7 23  1  0
  7  8  1  0
  7 31  1  6
  8  9  2  0
  8 32  1  0
  9 10  1  0
  9 33  1  0
 10 11  2  0
 10 34  1  0
 11 22  1  0
 11 12  1  0
 12 13  2  0
 12 35  1  0
 13 14  1  0
 13 36  1  0
 14 20  1  0
 14 15  1  1
 14 16  1  0
 15 37  1  0
 16 17  1  0
 16 38  1  0
 16 39  1  0
 17 18  1  0
 17 40  1  0
 17 41  1  0
 18 19  1  0
 18 20  1  0
 19 42  1  0
 19 43  1  0
 19 44  1  0
 20 21  1  0
 20 45  1  1
 21 22  1  0
 21 46  1  6
 22 23  1  0
 22 47  1  6
 23 24  1  0
 24 48  1  0
 24 49  1  0
 24 50  1  0
M  END
>  <i_m_ct_stereo_status>  (5) 
1

>  <s_m_source_file>  (5) 
/var/tmp/pbs.5076255.sched01/tmp7e7yg0hy/0s0dyhj_r.sdf

>  <i_m_source_file_index>  (5) 
3

>  <i_lp_mmshare_version>  (5) 
48012

>  <i_f3d_flags>  (5) 
0

>  <s_epik_input>  (5) 
W0NIM11PQyg9TylbQ0BASF0xW0NIMl1bQ0BASF0oTjJbQ0gzXSlbQ0hdPVtDSF1bQ0hdPUMoW0NIXT1bQ0hdMylbQ0BASF0yW0NAQEhdMVtDQEBIXShbQ0BAXTM0W09IXSlOKFtDSDNdKVtDSDJdW0NIMl00

>  <s_epik_cmdline>  (5) 
J2VwaWtfcHl0aG9uJywgJy1waHQnLCAnMi4wJywgJy1waCcsICc3LjAnLCAnLXRuJywgJzgnLCAnLW1hJywgJzIwMCcsICctaW1hZScsICc8aW5maWxlLm1hZT4nLCAnLW9tYWUnLCAnPG91dGZpbGUubWFlPic=

>  <r_epik_Ionization_Penalty>  (5) 
1.24181

>  <r_epik_Ionization_Penalty_Charging>  (5) 
0

>  <r_epik_Ionization_Penalty_Neutral>  (5) 
1.24181

>  <r_epik_State_Penalty>  (5) 
1.2529

>  <r_epik_Charging_Adjusted_Penalty>  (5) 
1.2529

>  <i_epik_Tot_Q>  (5) 
0

>  <i_epik_Tot_abs_Q>  (5) 
0

>  <s_epik_Chemistry_Notes>  (5) 
This compound has an ester and may undergo hydrolysis at high or low pH.

>  <s_lp_Force_Field>  (5) 
OPLS3e

>  <r_lp_Energy>  (5) 
45.0583

>  <b_lp_Chiralities_Consistent>  (5) 
1

>  <s_lp_Variant>  (5) 
1:0-2

>  <s_i_glide_gridfile>  (5) 
pfpi4k_grid

>  <i_i_glide_lignum>  (5) 
3

>  <i_i_glide_rotatable_bonds>  (5) 
3

>  <r_i_docking_score>  (5) 
-3.00741

>  <r_i_glide_ligand_efficiency>  (5) 
-0.125309

>  <r_i_glide_ligand_efficiency_sa>  (5) 
-0.361453

>  <r_i_glide_ligand_efficiency_ln>  (5) 
-0.719811

>  <r_i_glide_gscore>  (5) 
-3.00741

>  <r_i_glide_lipo>  (5) 
-0.490857

>  <r_i_glide_hbond>  (5) 
0

>  <r_i_glide_metal>  (5) 
-0

>  <r_i_glide_rewards>  (5) 
-1.27265

>  <r_i_glide_evdw>  (5) 
-19.0636

>  <r_i_glide_ecoul>  (5) 
-3.08659

>  <r_i_glide_erotb>  (5) 
0.172268

>  <r_i_glide_esite>  (5) 
0

>  <r_i_glide_emodel>  (5) 
-26.1571

>  <r_i_glide_energy>  (5) 
-22.1501

>  <r_i_glide_einternal>  (5) 
0.488278

>  <r_i_glide_intrahb_reward>  (5) 
-0

>  <i_i_glide_confnum>  (5) 
6

>  <i_i_glide_posenum>  (5) 
8

>  <r_i_glide_eff_state_penalty>  (5) 
0

>  <ligand_id>  (5) 
1

>  <original_smiles>  (5) 
COC(=O)C1CC2C=CC=C3C=CC4(O)CCN(C)C4C1C3N2C

>  <smiles>  (5) 
[H]OC12C([H])=C([H])C3=C([H])C([H])=C([H])C4([H])N(C([H])([H])[H])C3([H])C([H])(C([H])(C(=O)OC([H])([H])[H])C4([H])[H])C1([H])N(C([H])([H])[H])C([H])([H])C2([H])[H]

$$$$
1:1:2
     RDKit          3D

 50 53  0  0  1  0  0  0  0  0999 V2000
    7.4588   -6.8947    1.3468 C   0  0  0  0  0  0  0  0  0  0  0  0
    6.2629   -6.2958    0.8595 O   0  0  0  0  0  0  0  0  0  0  0  0
    6.0512   -4.9871    1.0634 C   0  0  0  0  0  0  0  0  0  0  0  0
    6.8121   -4.2678    1.6931 O   0  0  0  0  0  0  0  0  0  0  0  0
    4.7341   -4.4728    0.4339 C   0  0  2  0  0  0  0  0  0  0  0  0
    4.8243   -4.3122   -1.0961 C   0  0  0  0  0  0  0  0  0  0  0  0
    5.4407   -2.9797   -1.5852 C   0  0  2  0  0  0  0  0  0  0  0  0
    6.9479   -2.9225   -1.4413 C   0  0  0  0  0  0  0  0  0  0  0  0
    7.6778   -2.2707   -0.5192 C   0  0  0  0  0  0  0  0  0  0  0  0
    7.2144   -1.5473    0.6565 C   0  0  0  0  0  0  0  0  0  0  0  0
    5.9673   -1.4582    1.1728 C   0  0  0  0  0  0  0  0  0  0  0  0
    5.8146   -0.7563    2.4279 C   0  0  0  0  0  0  0  0  0  0  0  0
    4.8536   -0.9478    3.3438 C   0  0  0  0  0  0  0  0  0  0  0  0
    3.7866   -2.0246    3.4719 C   0  0  1  0  0  0  0  0  0  0  0  0
    3.8787   -2.4702    4.8183 O   0  0  0  0  0  0  0  0  0  0  0  0
    2.3669   -1.5014    3.2952 C   0  0  0  0  0  0  0  0  0  0  0  0
    1.5523   -2.7926    3.1844 C   0  0  0  0  0  0  0  0  0  0  0  0
    2.4414   -3.8597    2.7129 N   0  0  0  0  0  0  0  0  0  0  0  0
    2.3744   -5.0678    3.5218 C   0  0  0  0  0  0  0  0  0  0  0  0
    3.7957   -3.2987    2.5692 C   0  0  1  0  0  0  0  0  0  0  0  0
    4.0839   -3.1885    1.0296 C   0  0  1  0  0  0  0  0  0  0  0  0
    4.6911   -1.8725    0.4773 C   0  0  2  0  0  0  0  0  0  0  0  0
    4.7685   -1.8256   -0.9914 N   0  0  0  0  0  0  0  0  0  0  0  0
    3.4620   -1.5863   -1.6077 C   0  0  0  0  0  0  0  0  0  0  0  0
    7.4704   -7.9542    1.0907 H   0  0  0  0  0  0  0  0  0  0  0  0
    7.5337   -6.8060    2.4316 H   0  0  0  0  0  0  0  0  0  0  0  0
    8.3422   -6.4316    0.9042 H   0  0  0  0  0  0  0  0  0  0  0  0
    4.0366   -5.2862    0.6194 H   0  0  0  0  0  0  0  0  0  0  0  0
    5.3674   -5.1494   -1.5256 H   0  0  0  0  0  0  0  0  0  0  0  0
    3.8142   -4.3829   -1.4972 H   0  0  0  0  0  0  0  0  0  0  0  0
    5.2886   -2.9199   -2.6632 H   0  0  0  0  0  0  0  0  0  0  0  0
    7.4837   -3.4483   -2.2227 H   0  0  0  0  0  0  0  0  0  0  0  0
    8.7522   -2.3570   -0.6289 H   0  0  0  0  0  0  0  0  0  0  0  0
    8.0004   -1.1183    1.2620 H   0  0  0  0  0  0  0  0  0  0  0  0
    6.4937    0.0532    2.6445 H   0  0  0  0  0  0  0  0  0  0  0  0
    4.8797   -0.2783    4.1909 H   0  0  0  0  0  0  0  0  0  0  0  0
    4.6387   -3.0295    4.8929 H   0  0  0  0  0  0  0  0  0  0  0  0
    2.0375   -0.8494    4.1061 H   0  0  0  0  0  0  0  0  0  0  0  0
    2.2963   -0.9369    2.3648 H   0  0  0  0  0  0  0  0  0  0  0  0
    1.1409   -3.0461    4.1655 H   0  0  0  0  0  0  0  0  0  0  0  0
    0.7107   -2.6471    2.5071 H   0  0  0  0  0  0  0  0  0  0  0  0
    3.0164   -5.8445    3.1059 H   0  0  0  0  0  0  0  0  0  0  0  0
    1.3581   -5.4599    3.5432 H   0  0  0  0  0  0  0  0  0  0  0  0
    2.6851   -4.8864    4.5516 H   0  0  0  0  0  0  0  0  0  0  0  0
    4.5340   -3.9819    2.9937 H   0  0  0  0  0  0  0  0  0  0  0  0
    3.0916   -3.1830    0.5787 H   0  0  0  0  0  0  0  0  0  0  0  0
    3.9937   -1.0760    0.7382 H   0  0  0  0  0  0  0  0  0  0  0  0
    3.0199   -0.6756   -1.2031 H   0  0  0  0  0  0  0  0  0  0  0  0
    2.7571   -2.4067   -1.4565 H   0  0  0  0  0  0  0  0  0  0  0  0
    3.5767   -1.4381   -2.6847 H   0  0  0  0  0  0  0  0  0  0  0  0
  1  2  1  0
  1 25  1  0
  1 26  1  0
  1 27  1  0
  2  3  1  0
  3  4  2  0
  3  5  1  0
  5 21  1  0
  5  6  1  0
  5 28  1  6
  6  7  1  0
  6 29  1  0
  6 30  1  0
  7 23  1  0
  7  8  1  0
  7 31  1  6
  8  9  2  0
  8 32  1  0
  9 10  1  0
  9 33  1  0
 10 11  2  0
 10 34  1  0
 11 22  1  0
 11 12  1  0
 12 13  2  0
 12 35  1  0
 13 14  1  0
 13 36  1  0
 14 20  1  0
 14 15  1  1
 14 16  1  0
 15 37  1  0
 16 17  1  0
 16 38  1  0
 16 39  1  0
 17 18  1  0
 17 40  1  0
 17 41  1  0
 18 19  1  0
 18 20  1  0
 19 42  1  0
 19 43  1  0
 19 44  1  0
 20 21  1  0
 20 45  1  1
 21 22  1  0
 21 46  1  6
 22 23  1  0
 22 47  1  1
 23 24  1  0
 24 48  1  0
 24 49  1  0
 24 50  1  0
M  END
>  <i_m_ct_stereo_status>  (6) 
1

>  <s_m_source_file>  (6) 
/var/tmp/pbs.5076255.sched01/tmp7e7yg0hy/0s0dyhj_r.sdf

>  <i_m_source_file_index>  (6) 
3

>  <i_lp_mmshare_version>  (6) 
48012

>  <i_f3d_flags>  (6) 
0

>  <s_epik_input>  (6) 
W0NIM11PQyg9TylbQ0BASF0xW0NIMl1bQ0BASF0oTjJbQ0gzXSlbQ0hdPVtDSF1bQ0hdPUMoW0NIXT1bQ0hdMylbQ0BASF0yW0NAQEhdMVtDQEBIXShbQ0BAXTM0W09IXSlOKFtDSDNdKVtDSDJdW0NIMl00

>  <s_epik_cmdline>  (6) 
J2VwaWtfcHl0aG9uJywgJy1waHQnLCAnMi4wJywgJy1waCcsICc3LjAnLCAnLXRuJywgJzgnLCAnLW1hJywgJzIwMCcsICctaW1hZScsICc8aW5maWxlLm1hZT4nLCAnLW9tYWUnLCAnPG91dGZpbGUubWFlPic=

>  <r_epik_Ionization_Penalty>  (6) 
1.24181

>  <r_epik_Ionization_Penalty_Charging>  (6) 
0

>  <r_epik_Ionization_Penalty_Neutral>  (6) 
1.24181

>  <r_epik_State_Penalty>  (6) 
1.2529

>  <r_epik_Charging_Adjusted_Penalty>  (6) 
1.2529

>  <i_epik_Tot_Q>  (6) 
0

>  <i_epik_Tot_abs_Q>  (6) 
0

>  <s_epik_Chemistry_Notes>  (6) 
This compound has an ester and may undergo hydrolysis at high or low pH.

>  <s_lp_Force_Field>  (6) 
OPLS3e

>  <r_lp_Energy>  (6) 
45.0583

>  <b_lp_Chiralities_Consistent>  (6) 
1

>  <s_lp_Variant>  (6) 
1:0-2

>  <s_i_glide_gridfile>  (6) 
pfpi4k_grid

>  <i_i_glide_lignum>  (6) 
3

>  <i_i_glide_rotatable_bonds>  (6) 
3

>  <r_i_docking_score>  (6) 
-2.96333

>  <r_i_glide_ligand_efficiency>  (6) 
-0.123472

>  <r_i_glide_ligand_efficiency_sa>  (6) 
-0.356155

>  <r_i_glide_ligand_efficiency_ln>  (6) 
-0.709261

>  <r_i_glide_gscore>  (6) 
-2.96333

>  <r_i_glide_lipo>  (6) 
-0.451828

>  <r_i_glide_hbond>  (6) 
0

>  <r_i_glide_metal>  (6) 
-0

>  <r_i_glide_rewards>  (6) 
-1.28108

>  <r_i_glide_evdw>  (6) 
-18.9579

>  <r_i_glide_ecoul>  (6) 
-3.03201

>  <r_i_glide_erotb>  (6) 
0.172268

>  <r_i_glide_esite>  (6) 
0

>  <r_i_glide_emodel>  (6) 
-25.937

>  <r_i_glide_energy>  (6) 
-21.9899

>  <r_i_glide_einternal>  (6) 
0.441135

>  <r_i_glide_intrahb_reward>  (6) 
-0

>  <i_i_glide_confnum>  (6) 
2

>  <i_i_glide_posenum>  (6) 
6

>  <r_i_glide_eff_state_penalty>  (6) 
0

>  <ligand_id>  (6) 
1

>  <original_smiles>  (6) 
COC(=O)C1CC2C=CC=C3C=CC4(O)CCN(C)C4C1C3N2C

>  <smiles>  (6) 
[H]OC12C([H])=C([H])C3=C([H])C([H])=C([H])C4([H])N(C([H])([H])[H])C3([H])C([H])(C([H])(C(=O)OC([H])([H])[H])C4([H])[H])C1([H])N(C([H])([H])[H])C([H])([H])C2([H])[H]

$$$$
1:2:0
     RDKit          3D

 51 54  0  0  1  0  0  0  0  0999 V2000
    5.4405   -0.8923    3.2260 C   0  0  0  0  0  0  0  0  0  0  0  0
    4.6788   -1.9299    2.6227 O   0  0  0  0  0  0  0  0  0  0  0  0
    4.7759   -3.1859    3.0412 C   0  0  0  0  0  0  0  0  0  0  0  0
    5.4059   -3.5371    4.0608 O   0  0  0  0  0  0  0  0  0  0  0  0
    3.9815   -4.1816    2.1961 C   0  0  2  0  0  0  0  0  0  0  0  0
    3.8422   -5.5796    2.8585 C   0  0  0  0  0  0  0  0  0  0  0  0
    4.9791   -6.5829    2.5294 C   0  0  2  0  0  0  0  0  0  0  0  0
    6.2398   -6.4460    3.3452 C   0  0  0  0  0  0  0  0  0  0  0  0
    7.3967   -5.8599    2.9867 C   0  0  0  0  0  0  0  0  0  0  0  0
    7.6740   -5.0536    1.8027 C   0  0  0  0  0  0  0  0  0  0  0  0
    6.8784   -4.7268    0.7755 C   0  0  0  0  0  0  0  0  0  0  0  0
    7.4681   -3.8280   -0.2005 C   0  0  0  0  0  0  0  0  0  0  0  0
    6.8841   -2.7651   -0.7691 C   0  0  0  0  0  0  0  0  0  0  0  0
    5.5132   -2.1357   -0.5266 C   0  0  1  0  0  0  0  0  0  0  0  0
    5.6879   -1.0669    0.3522 O   0  0  0  0  0  0  0  0  0  0  0  0
    5.0147   -1.4200   -1.7865 C   0  0  0  0  0  0  0  0  0  0  0  0
    4.3276   -2.5103   -2.5744 C   0  0  0  0  0  0  0  0  0  0  0  0
    3.8101   -3.4596   -1.6011 N   0  0  0  0  0  0  0  0  0  0  0  0
    2.3625   -3.5983   -1.7013 C   0  0  0  0  0  0  0  0  0  0  0  0
    4.2949   -3.0890   -0.2602 C   0  0  1  0  0  0  0  0  0  0  0  0
    4.3507   -4.3438    0.6947 C   0  0  1  0  0  0  0  0  0  0  0  0
    5.5207   -5.3157    0.4541 C   0  0  2  0  0  0  0  0  0  0  0  0
    5.2736   -6.6687    1.0925 N   0  0  2  0  0  0  0  0  0  0  0  0
    4.2882   -7.5129    0.3661 C   0  0  0  0  0  0  0  0  0  0  0  0
    5.2848    0.0235    2.6631 H   0  0  0  0  0  0  0  0  0  0  0  0
    6.4966   -1.1303    3.1218 H   0  0  0  0  0  0  0  0  0  0  0  0
    5.2076   -0.7052    4.2769 H   0  0  0  0  0  0  0  0  0  0  0  0
    2.9837   -3.7455    2.2185 H   0  0  0  0  0  0  0  0  0  0  0  0
    3.7529   -5.5054    3.9379 H   0  0  0  0  0  0  0  0  0  0  0  0
    2.8892   -6.0056    2.5300 H   0  0  0  0  0  0  0  0  0  0  0  0
    4.6214   -7.5669    2.8482 H   0  0  0  0  0  0  0  0  0  0  0  0
    6.1982   -6.9295    4.3025 H   0  0  0  0  0  0  0  0  0  0  0  0
    8.1886   -5.8981    3.7271 H   0  0  0  0  0  0  0  0  0  0  0  0
    8.6463   -4.5728    1.8374 H   0  0  0  0  0  0  0  0  0  0  0  0
    8.4809   -4.0331   -0.5047 H   0  0  0  0  0  0  0  0  0  0  0  0
    7.5072   -2.2250   -1.4625 H   0  0  0  0  0  0  0  0  0  0  0  0
    4.8159   -0.7158    0.5322 H   0  0  0  0  0  0  0  0  0  0  0  0
    4.2493   -0.6878   -1.5270 H   0  0  0  0  0  0  0  0  0  0  0  0
    5.7850   -0.8901   -2.3344 H   0  0  0  0  0  0  0  0  0  0  0  0
    3.5490   -2.1177   -3.2314 H   0  0  0  0  0  0  0  0  0  0  0  0
    5.0684   -3.0125   -3.1952 H   0  0  0  0  0  0  0  0  0  0  0  0
    1.9714   -4.3473   -1.0188 H   0  0  0  0  0  0  0  0  0  0  0  0
    2.0674   -3.8779   -2.7081 H   0  0  0  0  0  0  0  0  0  0  0  0
    1.8686   -2.6564   -1.4828 H   0  0  0  0  0  0  0  0  0  0  0  0
    3.5210   -2.4481    0.1716 H   0  0  0  0  0  0  0  0  0  0  0  0
    3.4891   -4.9128    0.3593 H   0  0  0  0  0  0  0  0  0  0  0  0
    5.5508   -5.5207   -0.6109 H   0  0  0  0  0  0  0  0  0  0  0  0
    3.2888   -7.0990    0.4927 H   0  0  0  0  0  0  0  0  0  0  0  0
    4.2764   -8.5302    0.7676 H   0  0  0  0  0  0  0  0  0  0  0  0
    4.5227   -7.5599   -0.6911 H   0  0  0  0  0  0  0  0  0  0  0  0
    6.1642   -7.1733    1.0304 H   0  0  0  0  0  0  0  0  0  0  0  0
  1  2  1  0
  1 25  1  0
  1 26  1  0
  1 27  1  0
  2  3  1  0
  3  4  2  0
  3  5  1  0
  5 21  1  0
  5  6  1  0
  5 28  1  6
  6  7  1  0
  6 29  1  0
  6 30  1  0
  7 23  1  0
  7  8  1  0
  7 31  1  1
  8  9  2  0
  8 32  1  0
  9 10  1  0
  9 33  1  0
 10 11  2  0
 10 34  1  0
 11 22  1  0
 11 12  1  0
 12 13  2  0
 12 35  1  0
 13 14  1  0
 13 36  1  0
 14 20  1  0
 14 15  1  1
 14 16  1  0
 15 37  1  0
 16 17  1  0
 16 38  1  0
 16 39  1  0
 17 18  1  0
 17 40  1  0
 17 41  1  0
 18 19  1  0
 18 20  1  0
 19 42  1  0
 19 43  1  0
 19 44  1  0
 20 21  1  0
 20 45  1  1
 21 22  1  0
 21 46  1  6
 22 23  1  0
 22 47  1  6
 23 24  1  0
 23 51  1  1
 24 48  1  0
 24 49  1  0
 24 50  1  0
M  CHG  1  23   1
M  END
>  <i_m_ct_stereo_status>  (7) 
1

>  <s_m_source_file>  (7) 
/var/tmp/pbs.5076255.sched01/tmp7e7yg0hy/0s0dyhj_r.sdf

>  <i_m_source_file_index>  (7) 
4

>  <i_lp_mmshare_version>  (7) 
48012

>  <i_f3d_flags>  (7) 
0

>  <s_epik_input>  (7) 
W0NIM11PQyg9TylbQ0BASF0xW0NIMl1bQ0BASF0oTjJbQ0gzXSlbQ0hdPVtDSF1bQ0hdPUMoW0NIXT1bQ0hdMylbQ0BASF0yW0NAQEhdMVtDQEBIXShbQ0BAXTM0W09IXSlOKFtDSDNdKVtDSDJdW0NIMl00

>  <s_epik_cmdline>  (7) 
J2VwaWtfcHl0aG9uJywgJy1waHQnLCAnMi4wJywgJy1waCcsICc3LjAnLCAnLXRuJywgJzgnLCAnLW1hJywgJzIwMCcsICctaW1hZScsICc8aW5maWxlLm1hZT4nLCAnLW9tYWUnLCAnPG91dGZpbGUubWFlPic=

>  <r_epik_Ionization_Penalty>  (7) 
1.64962

>  <r_epik_Ionization_Penalty_Charging>  (7) 
1.39162

>  <r_epik_Ionization_Penalty_Neutral>  (7) 
0.258001

>  <r_epik_State_Penalty>  (7) 
2.67442

>  <r_epik_Charging_Adjusted_Penalty>  (7) 
4.06604

>  <i_epik_Tot_Q>  (7) 
1

>  <i_epik_Tot_abs_Q>  (7) 
1

>  <s_epik_Chemistry_Notes>  (7) 
This compound has an ester and may undergo hydrolysis at high or low pH.

>  <s_lp_Force_Field>  (7) 
OPLS3e

>  <r_lp_Energy>  (7) 
52.869

>  <b_lp_Chiralities_Consistent>  (7) 
1

>  <s_lp_Variant>  (7) 
1:0-3

>  <s_i_glide_gridfile>  (7) 
pfpi4k_grid

>  <i_i_glide_lignum>  (7) 
4

>  <i_i_glide_rotatable_bonds>  (7) 
3

>  <r_i_docking_score>  (7) 
-2.9704

>  <r_i_glide_ligand_efficiency>  (7) 
-0.123767

>  <r_i_glide_ligand_efficiency_sa>  (7) 
-0.357004

>  <r_i_glide_ligand_efficiency_ln>  (7) 
-0.710952

>  <r_i_glide_gscore>  (7) 
-2.9704

>  <r_i_glide_lipo>  (7) 
-0.91094

>  <r_i_glide_hbond>  (7) 
0

>  <r_i_glide_metal>  (7) 
-0

>  <r_i_glide_rewards>  (7) 
-1.196

>  <r_i_glide_evdw>  (7) 
-19.5834

>  <r_i_glide_ecoul>  (7) 
-0.370859

>  <r_i_glide_erotb>  (7) 
0.171343

>  <r_i_glide_esite>  (7) 
0

>  <r_i_glide_emodel>  (7) 
-22.0522

>  <r_i_glide_energy>  (7) 
-19.9543

>  <r_i_glide_einternal>  (7) 
0.562039

>  <r_i_glide_intrahb_reward>  (7) 
-0

>  <i_i_glide_confnum>  (7) 
5

>  <i_i_glide_posenum>  (7) 
38

>  <r_i_glide_eff_state_penalty>  (7) 
0

>  <ligand_id>  (7) 
1

>  <original_smiles>  (7) 
COC(=O)C1CC2C=CC=C3C=CC4(O)CCN(C)C4C1C3N2C

>  <smiles>  (7) 
[H]OC12C([H])=C([H])C3=C([H])C([H])=C([H])C4([H])C([H])([H])C([H])(C(=O)OC([H])([H])[H])C([H])(C1([H])N(C([H])([H])[H])C([H])([H])C2([H])[H])C3([H])[N+]4([H])C([H])([H])[H]

$$$$
1:2:1
     RDKit          3D

 51 54  0  0  1  0  0  0  0  0999 V2000
    4.5500   -0.4430    4.4722 C   0  0  0  0  0  0  0  0  0  0  0  0
    3.7354   -1.3968    3.8099 O   0  0  0  0  0  0  0  0  0  0  0  0
    4.2699   -2.1728    2.8562 C   0  0  0  0  0  0  0  0  0  0  0  0
    5.4455   -2.1515    2.5155 O   0  0  0  0  0  0  0  0  0  0  0  0
    3.2156   -3.1038    2.2284 C   0  0  2  0  0  0  0  0  0  0  0  0
    2.6742   -4.1368    3.2499 C   0  0  0  0  0  0  0  0  0  0  0  0
    3.4693   -5.4618    3.3323 C   0  0  2  0  0  0  0  0  0  0  0  0
    4.7172   -5.4232    4.1860 C   0  0  0  0  0  0  0  0  0  0  0  0
    5.9913   -5.3260    3.7832 C   0  0  0  0  0  0  0  0  0  0  0  0
    6.4995   -5.0558    2.4444 C   0  0  0  0  0  0  0  0  0  0  0  0
    5.8312   -4.8495    1.2884 C   0  0  0  0  0  0  0  0  0  0  0  0
    6.6602   -4.4511    0.1700 C   0  0  0  0  0  0  0  0  0  0  0  0
    6.4043   -3.4543   -0.7001 C   0  0  0  0  0  0  0  0  0  0  0  0
    5.2488   -2.4546   -0.7654 C   0  0  1  0  0  0  0  0  0  0  0  0
    5.6591   -1.2473   -0.1662 O   0  0  0  0  0  0  0  0  0  0  0  0
    4.9874   -2.0601   -2.2202 C   0  0  0  0  0  0  0  0  0  0  0  0
    4.0498   -3.1227   -2.7315 C   0  0  0  0  0  0  0  0  0  0  0  0
    3.2830   -3.5702   -1.5880 N   0  0  0  0  0  0  0  0  0  0  0  0
    1.8742   -3.3384   -1.8196 C   0  0  0  0  0  0  0  0  0  0  0  0
    3.8196   -2.9413   -0.3763 C   0  0  1  0  0  0  0  0  0  0  0  0
    3.5309   -3.8207    0.8878 C   0  0  1  0  0  0  0  0  0  0  0  0
    4.3569   -5.1109    1.0417 C   0  0  2  0  0  0  0  0  0  0  0  0
    3.7426   -6.0677    2.0122 N   0  0  2  0  0  0  0  0  0  0  0  0
    2.5535   -6.7798    1.4796 C   0  0  0  0  0  0  0  0  0  0  0  0
    3.9624    0.0688    5.2358 H   0  0  0  0  0  0  0  0  0  0  0  0
    4.9201    0.3025    3.7692 H   0  0  0  0  0  0  0  0  0  0  0  0
    5.4019   -0.9194    4.9594 H   0  0  0  0  0  0  0  0  0  0  0  0
    2.3841   -2.4332    2.0066 H   0  0  0  0  0  0  0  0  0  0  0  0
    2.6091   -3.7084    4.2498 H   0  0  0  0  0  0  0  0  0  0  0  0
    1.6428   -4.3653    2.9725 H   0  0  0  0  0  0  0  0  0  0  0  0
    2.8490   -6.1638    3.8926 H   0  0  0  0  0  0  0  0  0  0  0  0
    4.5378   -5.5519    5.2450 H   0  0  0  0  0  0  0  0  0  0  0  0
    6.7357   -5.3379    4.5679 H   0  0  0  0  0  0  0  0  0  0  0  0
    7.5662   -4.8746    2.4124 H   0  0  0  0  0  0  0  0  0  0  0  0
    7.5778   -5.0076    0.0253 H   0  0  0  0  0  0  0  0  0  0  0  0
    7.1538   -3.3110   -1.4679 H   0  0  0  0  0  0  0  0  0  0  0  0
    4.8938   -0.7013   -0.0722 H   0  0  0  0  0  0  0  0  0  0  0  0
    4.4831   -1.0941   -2.2802 H   0  0  0  0  0  0  0  0  0  0  0  0
    5.8794   -2.0163   -2.8166 H   0  0  0  0  0  0  0  0  0  0  0  0
    3.4289   -2.7595   -3.5563 H   0  0  0  0  0  0  0  0  0  0  0  0
    4.6216   -3.9669   -3.1188 H   0  0  0  0  0  0  0  0  0  0  0  0
    1.2682   -3.6685   -0.9834 H   0  0  0  0  0  0  0  0  0  0  0  0
    1.5275   -3.8632   -2.7074 H   0  0  0  0  0  0  0  0  0  0  0  0
    1.7392   -2.2759   -1.9992 H   0  0  0  0  0  0  0  0  0  0  0  0
    3.2511   -2.0208   -0.2231 H   0  0  0  0  0  0  0  0  0  0  0  0
    2.5429   -4.2058    0.6487 H   0  0  0  0  0  0  0  0  0  0  0  0
    4.3503   -5.6269    0.0805 H   0  0  0  0  0  0  0  0  0  0  0  0
    1.6940   -6.1165    1.3498 H   0  0  0  0  0  0  0  0  0  0  0  0
    2.2462   -7.5946    2.1471 H   0  0  0  0  0  0  0  0  0  0  0  0
    2.8142   -7.2017    0.5128 H   0  0  0  0  0  0  0  0  0  0  0  0
    4.4319   -6.7843    2.1797 H   0  0  0  0  0  0  0  0  0  0  0  0
  1  2  1  0
  1 25  1  0
  1 26  1  0
  1 27  1  0
  2  3  1  0
  3  4  2  0
  3  5  1  0
  5 21  1  0
  5  6  1  0
  5 28  1  6
  6  7  1  0
  6 29  1  0
  6 30  1  0
  7 23  1  0
  7  8  1  0
  7 31  1  1
  8  9  2  0
  8 32  1  0
  9 10  1  0
  9 33  1  0
 10 11  2  0
 10 34  1  0
 11 22  1  0
 11 12  1  0
 12 13  2  0
 12 35  1  0
 13 14  1  0
 13 36  1  0
 14 20  1  0
 14 15  1  1
 14 16  1  0
 15 37  1  0
 16 17  1  0
 16 38  1  0
 16 39  1  0
 17 18  1  0
 17 40  1  0
 17 41  1  0
 18 19  1  0
 18 20  1  0
 19 42  1  0
 19 43  1  0
 19 44  1  0
 20 21  1  0
 20 45  1  1
 21 22  1  0
 21 46  1  6
 22 23  1  0
 22 47  1  6
 23 24  1  0
 23 51  1  1
 24 48  1  0
 24 49  1  0
 24 50  1  0
M  CHG  1  23   1
M  END
>  <i_m_ct_stereo_status>  (8) 
1

>  <s_m_source_file>  (8) 
/var/tmp/pbs.5076255.sched01/tmp7e7yg0hy/0s0dyhj_r.sdf

>  <i_m_source_file_index>  (8) 
4

>  <i_lp_mmshare_version>  (8) 
48012

>  <i_f3d_flags>  (8) 
0

>  <s_epik_input>  (8) 
W0NIM11PQyg9TylbQ0BASF0xW0NIMl1bQ0BASF0oTjJbQ0gzXSlbQ0hdPVtDSF1bQ0hdPUMoW0NIXT1bQ0hdMylbQ0BASF0yW0NAQEhdMVtDQEBIXShbQ0BAXTM0W09IXSlOKFtDSDNdKVtDSDJdW0NIMl00

>  <s_epik_cmdline>  (8) 
J2VwaWtfcHl0aG9uJywgJy1waHQnLCAnMi4wJywgJy1waCcsICc3LjAnLCAnLXRuJywgJzgnLCAnLW1hJywgJzIwMCcsICctaW1hZScsICc8aW5maWxlLm1hZT4nLCAnLW9tYWUnLCAnPG91dGZpbGUubWFlPic=

>  <r_epik_Ionization_Penalty>  (8) 
1.64962

>  <r_epik_Ionization_Penalty_Charging>  (8) 
1.39162

>  <r_epik_Ionization_Penalty_Neutral>  (8) 
0.258001

>  <r_epik_State_Penalty>  (8) 
2.67442

>  <r_epik_Charging_Adjusted_Penalty>  (8) 
4.06604

>  <i_epik_Tot_Q>  (8) 
1

>  <i_epik_Tot_abs_Q>  (8) 
1

>  <s_epik_Chemistry_Notes>  (8) 
This compound has an ester and may undergo hydrolysis at high or low pH.

>  <s_lp_Force_Field>  (8) 
OPLS3e

>  <r_lp_Energy>  (8) 
52.869

>  <b_lp_Chiralities_Consistent>  (8) 
1

>  <s_lp_Variant>  (8) 
1:0-3

>  <s_i_glide_gridfile>  (8) 
pfpi4k_grid

>  <i_i_glide_lignum>  (8) 
4

>  <i_i_glide_rotatable_bonds>  (8) 
3

>  <r_i_docking_score>  (8) 
-2.30911

>  <r_i_glide_ligand_efficiency>  (8) 
-0.0962128

>  <r_i_glide_ligand_efficiency_sa>  (8) 
-0.277526

>  <r_i_glide_ligand_efficiency_ln>  (8) 
-0.552675

>  <r_i_glide_gscore>  (8) 
-2.30911

>  <r_i_glide_lipo>  (8) 
-0.4716

>  <r_i_glide_hbond>  (8) 
0

>  <r_i_glide_metal>  (8) 
-0

>  <r_i_glide_rewards>  (8) 
-1.16469

>  <r_i_glide_evdw>  (8) 
-13.0643

>  <r_i_glide_ecoul>  (8) 
-1.273

>  <r_i_glide_erotb>  (8) 
0.171343

>  <r_i_glide_esite>  (8) 
0

>  <r_i_glide_emodel>  (8) 
-16.71

>  <r_i_glide_energy>  (8) 
-14.3373

>  <r_i_glide_einternal>  (8) 
0.308673

>  <r_i_glide_intrahb_reward>  (8) 
-0

>  <i_i_glide_confnum>  (8) 
4

>  <i_i_glide_posenum>  (8) 
1

>  <r_i_glide_eff_state_penalty>  (8) 
0

>  <ligand_id>  (8) 
1

>  <original_smiles>  (8) 
COC(=O)C1CC2C=CC=C3C=CC4(O)CCN(C)C4C1C3N2C

>  <smiles>  (8) 
[H]OC12C([H])=C([H])C3=C([H])C([H])=C([H])C4([H])C([H])([H])C([H])(C(=O)OC([H])([H])[H])C([H])(C1([H])N(C([H])([H])[H])C([H])([H])C2([H])[H])C3([H])[N+]4([H])C([H])([H])[H]

$$$$
2:0:0
     RDKit          3D

 58 64  0  0  1  0  0  0  0  0999 V2000
    4.2099   -2.7123   -0.5381 O   0  0  0  0  0  0  0  0  0  0  0  0
    3.5148   -3.4466    0.1591 C   0  0  0  0  0  0  0  0  0  0  0  0
    2.7075   -4.3860   -0.3263 N   0  0  0  0  0  0  0  0  0  0  0  0
    2.2147   -5.2120    0.6656 C   0  0  0  0  0  0  0  0  0  0  0  0
    1.3661   -6.2552    0.5171 N   0  0  0  0  0  0  0  0  0  0  0  0
    1.0191   -6.9141    1.6413 C   0  0  0  0  0  0  0  0  0  0  0  0
    1.4519   -6.5280    2.9294 C   0  0  0  0  0  0  0  0  0  0  0  0
    2.3096   -5.4112    3.0683 C   0  0  0  0  0  0  0  0  0  0  0  0
    2.6696   -4.7197    1.8885 C   0  0  0  0  0  0  0  0  0  0  0  0
    3.5715   -3.4819    1.7077 C   0  0  1  0  0  0  0  0  0  0  0  0
    5.0025   -3.7433    2.2077 C   0  0  0  0  0  0  0  0  0  0  0  0
    4.9646   -3.3247    3.6726 C   0  0  0  0  0  0  0  0  0  0  0  0
    4.0137   -2.1151    3.7163 C   0  0  2  0  0  0  0  0  0  0  0  0
    3.0260   -2.0260    4.8930 C   0  0  0  0  0  0  0  0  0  0  0  0
    1.8077   -1.4206    4.3247 N   0  0  2  0  0  0  0  0  0  0  0  0
    1.6955   -2.0412    2.9884 C   0  0  0  0  0  0  0  0  0  0  0  0
    3.1404   -2.1341    2.4429 C   0  0  2  0  0  0  0  0  0  0  0  0
    3.4006   -0.8426    1.6027 C   0  0  0  0  0  0  0  0  0  0  0  0
    3.2390    0.5269    2.3027 C   0  0  0  0  0  0  0  0  0  0  0  0
    1.8986    0.7835    3.0189 C   0  0  0  0  0  0  0  0  0  0  0  0
    1.7558    0.0761    4.3944 C   0  0  1  0  0  0  0  0  0  0  0  0
    0.4849    0.5536    5.1470 C   0  0  0  0  0  0  0  0  0  0  0  0
   -0.7266   -0.1421    5.0866 C   0  0  0  0  0  0  0  0  0  0  0  0
   -1.1302   -1.1817    4.4876 O   0  0  0  0  0  0  0  0  0  0  0  0
   -1.7626    0.3580    5.8691 N   0  0  0  0  0  0  0  0  0  0  0  0
   -1.7181    1.5316    6.6316 C   0  0  0  0  0  0  0  0  0  0  0  0
   -2.8536    1.8599    7.2830 N   0  0  0  0  0  0  0  0  0  0  0  0
   -2.8599    2.9786    8.0435 C   0  0  0  0  0  0  0  0  0  0  0  0
   -1.7220    3.7924    8.2105 C   0  0  0  0  0  0  0  0  0  0  0  0
   -0.5339    3.4283    7.5401 C   0  0  0  0  0  0  0  0  0  0  0  0
   -0.5364    2.2704    6.7237 C   0  0  0  0  0  0  0  0  0  0  0  0
    0.6592    1.8016    5.9800 C   0  0  0  0  0  0  0  0  0  0  0  0
    1.7267    2.4034    6.0513 O   0  0  0  0  0  0  0  0  0  0  0  0
    2.5889   -4.5954   -1.3119 H   0  0  0  0  0  0  0  0  0  0  0  0
    0.3634   -7.7612    1.5068 H   0  0  0  0  0  0  0  0  0  0  0  0
    1.1320   -7.0914    3.7890 H   0  0  0  0  0  0  0  0  0  0  0  0
    2.6474   -5.1011    4.0493 H   0  0  0  0  0  0  0  0  0  0  0  0
    5.3386   -4.7684    2.0556 H   0  0  0  0  0  0  0  0  0  0  0  0
    5.7032   -3.0999    1.6775 H   0  0  0  0  0  0  0  0  0  0  0  0
    4.6142   -4.1494    4.2878 H   0  0  0  0  0  0  0  0  0  0  0  0
    5.9464   -3.0545    4.0445 H   0  0  0  0  0  0  0  0  0  0  0  0
    4.6433   -1.2273    3.7339 H   0  0  0  0  0  0  0  0  0  0  0  0
    2.7747   -3.0343    5.2101 H   0  0  0  0  0  0  0  0  0  0  0  0
    3.4330   -1.5064    5.7617 H   0  0  0  0  0  0  0  0  0  0  0  0
    1.2746   -3.0209    3.1570 H   0  0  0  0  0  0  0  0  0  0  0  0
    0.9948   -1.5742    2.3017 H   0  0  0  0  0  0  0  0  0  0  0  0
    4.4181   -0.8684    1.2141 H   0  0  0  0  0  0  0  0  0  0  0  0
    2.7497   -0.8393    0.7259 H   0  0  0  0  0  0  0  0  0  0  0  0
    4.0653    0.7239    2.9878 H   0  0  0  0  0  0  0  0  0  0  0  0
    3.3516    1.2881    1.5293 H   0  0  0  0  0  0  0  0  0  0  0  0
    1.8562    1.8616    3.2007 H   0  0  0  0  0  0  0  0  0  0  0  0
    1.0543    0.5959    2.3491 H   0  0  0  0  0  0  0  0  0  0  0  0
    2.6173    0.3959    4.9847 H   0  0  0  0  0  0  0  0  0  0  0  0
   -3.7923    3.2285    8.5392 H   0  0  0  0  0  0  0  0  0  0  0  0
   -1.7642    4.6626    8.8533 H   0  0  0  0  0  0  0  0  0  0  0  0
    0.3559    4.0241    7.6659 H   0  0  0  0  0  0  0  0  0  0  0  0
   -2.7003    0.0063    5.7758 H   0  0  0  0  0  0  0  0  0  0  0  0
    1.0153   -1.7332    4.8539 H   0  0  0  0  0  0  0  0  0  0  0  0
  1  2  2  0
  2 10  1  0
  2  3  1  0
  3  4  1  0
  3 34  1  0
  4  9  2  0
  4  5  1  0
  5  6  2  0
  6  7  1  0
  6 35  1  0
  7  8  2  0
  7 36  1  0
  8  9  1  0
  8 37  1  0
  9 10  1  0
 10 17  1  0
 10 11  1  6
 11 12  1  0
 11 38  1  0
 11 39  1  0
 12 13  1  0
 12 40  1  0
 12 41  1  0
 13 17  1  0
 13 14  1  0
 13 42  1  6
 14 15  1  0
 14 43  1  0
 14 44  1  0
 15 21  1  0
 15 16  1  0
 15 58  1  1
 16 17  1  0
 16 45  1  0
 16 46  1  0
 17 18  1  6
 18 19  1  0
 18 47  1  0
 18 48  1  0
 19 20  1  0
 19 49  1  0
 19 50  1  0
 20 21  1  0
 20 51  1  0
 20 52  1  0
 21 22  1  0
 21 53  1  1
 22 32  1  0
 22 23  2  0
 23 24  1  0
 23 25  1  0
 25 26  1  0
 25 57  1  0
 26 31  2  0
 26 27  1  0
 27 28  2  0
 28 29  1  0
 28 54  1  0
 29 30  2  0
 29 55  1  0
 30 31  1  0
 30 56  1  0
 31 32  1  0
 32 33  2  0
M  CHG  2  15   1  24  -1
M  END
>  <i_m_ct_stereo_status>  (9) 
1

>  <s_m_source_file>  (9) 
/var/tmp/pbs.5076255.sched01/tmp7e7yg0hy/0s0dyhj_r.sdf

>  <i_m_source_file_index>  (9) 
5

>  <i_lp_mmshare_version>  (9) 
48012

>  <i_f3d_flags>  (9) 
0

>  <s_epik_input>  (9) 
W2NIXTFbY0hdW2NIXW5jKFtOSF1DMj1PKWMxW0NAXTIzW0NAXTQ1W0NASF0oW0NIMl1bQ0gyXTMpW0NIMl1OKFtDSDJdNClbQ0BASF0oW0NIMl1bQ0gyXVtDSDJdNSljKGMoW09IXSlbbkhdNiljKD1PKWMoYzY3KVtjSF1bY0hdW2NIXW43

>  <s_epik_cmdline>  (9) 
J2VwaWtfcHl0aG9uJywgJy1waHQnLCAnMi4wJywgJy1waCcsICc3LjAnLCAnLXRuJywgJzgnLCAnLW1hJywgJzIwMCcsICctaW1hZScsICc8aW5maWxlLm1hZT4nLCAnLW9tYWUnLCAnPG91dGZpbGUubWFlPic=

>  <r_epik_Ionization_Penalty>  (9) 
0.0226769

>  <r_epik_Ionization_Penalty_Charging>  (9) 
0.0222355

>  <r_epik_Ionization_Penalty_Neutral>  (9) 
0.00044142

>  <r_epik_State_Penalty>  (9) 
0.00423329

>  <r_epik_Charging_Adjusted_Penalty>  (9) 
0.0264688

>  <i_epik_Tot_Q>  (9) 
0

>  <i_epik_Tot_abs_Q>  (9) 
2

>  <s_lp_Force_Field>  (9) 
OPLS3e

>  <r_lp_Energy>  (9) 
44.3979

>  <b_lp_Chiralities_Consistent>  (9) 
1

>  <s_lp_Variant>  (9) 
2:0-1

>  <s_i_glide_gridfile>  (9) 
pfpi4k_grid

>  <i_i_glide_lignum>  (9) 
5

>  <i_i_glide_rotatable_bonds>  (9) 
1

>  <r_i_docking_score>  (9) 
-3.95721

>  <r_i_glide_ligand_efficiency>  (9) 
-0.119916

>  <r_i_glide_ligand_efficiency_sa>  (9) 
-0.384633

>  <r_i_glide_ligand_efficiency_ln>  (9) 
-0.880063

>  <r_i_glide_gscore>  (9) 
-3.95721

>  <r_i_glide_lipo>  (9) 
-0.28636

>  <r_i_glide_hbond>  (9) 
-0.356296

>  <r_i_glide_metal>  (9) 
-0

>  <r_i_glide_rewards>  (9) 
-0.386342

>  <r_i_glide_evdw>  (9) 
-27.8888

>  <r_i_glide_ecoul>  (9) 
-9.8148

>  <r_i_glide_erotb>  (9) 
0.101643

>  <r_i_glide_esite>  (9) 
-0.163196

>  <r_i_glide_emodel>  (9) 
-46.0651

>  <r_i_glide_energy>  (9) 
-37.7036

>  <r_i_glide_einternal>  (9) 
2.36035

>  <r_i_glide_intrahb_reward>  (9) 
-0

>  <i_i_glide_confnum>  (9) 
2

>  <i_i_glide_posenum>  (9) 
9

>  <r_i_glide_eff_state_penalty>  (9) 
0

>  <ligand_id>  (9) 
2

>  <original_smiles>  (9) 
O=C1Nc2ncccc2C12CCC1CN3CC12CCCC3c1c(O)[nH]c2ncccc2c1=O

>  <smiles>  (9) 
[H]c1nc2c(c([H])c1[H])C1(C(=O)N2[H])C([H])([H])C([H])([H])C2([H])C13C([H])([H])C([H])([H])C([H])([H])C([H])(c1c([O-])n([H])c4nc([H])c([H])c([H])c4c1=O)[N+]([H])(C2([H])[H])C3([H])[H]

$$$$
2:0:1
     RDKit          3D

 58 64  0  0  1  0  0  0  0  0999 V2000
    7.3668   -2.4250    0.0438 O   0  0  0  0  0  0  0  0  0  0  0  0
    6.2844   -2.4816   -0.5313 C   0  0  0  0  0  0  0  0  0  0  0  0
    6.1143   -2.1854   -1.8201 N   0  0  0  0  0  0  0  0  0  0  0  0
    4.8235   -2.4266   -2.2371 C   0  0  0  0  0  0  0  0  0  0  0  0
    4.3431   -2.2626   -3.4849 N   0  0  0  0  0  0  0  0  0  0  0  0
    3.0474   -2.5916   -3.6661 C   0  0  0  0  0  0  0  0  0  0  0  0
    2.2279   -3.1015   -2.6450 C   0  0  0  0  0  0  0  0  0  0  0  0
    2.7603   -3.2920   -1.3556 C   0  0  0  0  0  0  0  0  0  0  0  0
    4.0963   -2.9026   -1.1482 C   0  0  0  0  0  0  0  0  0  0  0  0
    4.9592   -2.9716    0.1186 C   0  0  1  0  0  0  0  0  0  0  0  0
    5.1051   -4.4117    0.6452 C   0  0  0  0  0  0  0  0  0  0  0  0
    3.9397   -4.6007    1.6098 C   0  0  0  0  0  0  0  0  0  0  0  0
    3.7624   -3.2209    2.2790 C   0  0  2  0  0  0  0  0  0  0  0  0
    2.3225   -2.7074    2.4811 C   0  0  0  0  0  0  0  0  0  0  0  0
    2.3887   -1.2362    2.2842 N   0  0  2  0  0  0  0  0  0  0  0  0
    3.3544   -1.0788    1.1630 C   0  0  0  0  0  0  0  0  0  0  0  0
    4.4529   -2.1503    1.3921 C   0  0  2  0  0  0  0  0  0  0  0  0
    5.5958   -1.4693    2.2091 C   0  0  0  0  0  0  0  0  0  0  0  0
    5.2540   -0.8528    3.5854 C   0  0  0  0  0  0  0  0  0  0  0  0
    4.0896    0.1567    3.6194 C   0  0  0  0  0  0  0  0  0  0  0  0
    2.6734   -0.4730    3.5503 C   0  0  1  0  0  0  0  0  0  0  0  0
    1.5577    0.5657    3.8176 C   0  0  0  0  0  0  0  0  0  0  0  0
    1.3867    1.6652    2.9770 C   0  0  0  0  0  0  0  0  0  0  0  0
    1.9796    2.0373    1.9476 O   0  0  0  0  0  0  0  0  0  0  0  0
    0.3730    2.5631    3.3018 N   0  0  0  0  0  0  0  0  0  0  0  0
   -0.4760    2.4561    4.4060 C   0  0  0  0  0  0  0  0  0  0  0  0
   -1.4124    3.4174    4.5636 N   0  0  0  0  0  0  0  0  0  0  0  0
   -2.2405    3.3284    5.6267 C   0  0  0  0  0  0  0  0  0  0  0  0
   -2.1759    2.2922    6.5778 C   0  0  0  0  0  0  0  0  0  0  0  0
   -1.1916    1.3026    6.4074 C   0  0  0  0  0  0  0  0  0  0  0  0
   -0.3283    1.3749    5.2915 C   0  0  0  0  0  0  0  0  0  0  0  0
    0.7221    0.3573    5.0375 C   0  0  0  0  0  0  0  0  0  0  0  0
    0.8729   -0.5907    5.8051 O   0  0  0  0  0  0  0  0  0  0  0  0
    6.8394   -1.9135   -2.4664 H   0  0  0  0  0  0  0  0  0  0  0  0
    2.6646   -2.4669   -4.6639 H   0  0  0  0  0  0  0  0  0  0  0  0
    1.2099   -3.3720   -2.8473 H   0  0  0  0  0  0  0  0  0  0  0  0
    2.1514   -3.7062   -0.5671 H   0  0  0  0  0  0  0  0  0  0  0  0
    5.1388   -5.1623   -0.1404 H   0  0  0  0  0  0  0  0  0  0  0  0
    6.0331   -4.5118    1.2116 H   0  0  0  0  0  0  0  0  0  0  0  0
    3.0494   -4.9060    1.0589 H   0  0  0  0  0  0  0  0  0  0  0  0
    4.1421   -5.3872    2.3407 H   0  0  0  0  0  0  0  0  0  0  0  0
    4.2378   -3.2866    3.2563 H   0  0  0  0  0  0  0  0  0  0  0  0
    1.7039   -3.0984    1.6815 H   0  0  0  0  0  0  0  0  0  0  0  0
    1.8744   -3.0124    3.4309 H   0  0  0  0  0  0  0  0  0  0  0  0
    2.7748   -1.2844    0.2756 H   0  0  0  0  0  0  0  0  0  0  0  0
    3.7338   -0.0698    1.0132 H   0  0  0  0  0  0  0  0  0  0  0  0
    6.3730   -2.2076    2.3905 H   0  0  0  0  0  0  0  0  0  0  0  0
    6.0612   -0.6898    1.6049 H   0  0  0  0  0  0  0  0  0  0  0  0
    5.0907   -1.6238    4.3393 H   0  0  0  0  0  0  0  0  0  0  0  0
    6.1500   -0.3318    3.9270 H   0  0  0  0  0  0  0  0  0  0  0  0
    4.1618    0.6875    4.5717 H   0  0  0  0  0  0  0  0  0  0  0  0
    4.2351    0.9355    2.8711 H   0  0  0  0  0  0  0  0  0  0  0  0
    2.6736   -1.1927    4.3669 H   0  0  0  0  0  0  0  0  0  0  0  0
   -2.9809    4.1087    5.7308 H   0  0  0  0  0  0  0  0  0  0  0  0
   -2.8626    2.2714    7.4141 H   0  0  0  0  0  0  0  0  0  0  0  0
   -1.1082    0.5007    7.1222 H   0  0  0  0  0  0  0  0  0  0  0  0
    0.1747    3.3631    2.7044 H   0  0  0  0  0  0  0  0  0  0  0  0
    1.4921   -0.9004    1.9508 H   0  0  0  0  0  0  0  0  0  0  0  0
  1  2  2  0
  2 10  1  0
  2  3  1  0
  3  4  1  0
  3 34  1  0
  4  9  2  0
  4  5  1  0
  5  6  2  0
  6  7  1  0
  6 35  1  0
  7  8  2  0
  7 36  1  0
  8  9  1  0
  8 37  1  0
  9 10  1  0
 10 17  1  0
 10 11  1  1
 11 12  1  0
 11 38  1  0
 11 39  1  0
 12 13  1  0
 12 40  1  0
 12 41  1  0
 13 17  1  0
 13 14  1  0
 13 42  1  1
 14 15  1  0
 14 43  1  0
 14 44  1  0
 15 21  1  0
 15 16  1  0
 15 58  1  6
 16 17  1  0
 16 45  1  0
 16 46  1  0
 17 18  1  1
 18 19  1  0
 18 47  1  0
 18 48  1  0
 19 20  1  0
 19 49  1  0
 19 50  1  0
 20 21  1  0
 20 51  1  0
 20 52  1  0
 21 22  1  0
 21 53  1  1
 22 32  1  0
 22 23  2  0
 23 24  1  0
 23 25  1  0
 25 26  1  0
 25 57  1  0
 26 31  2  0
 26 27  1  0
 27 28  2  0
 28 29  1  0
 28 54  1  0
 29 30  2  0
 29 55  1  0
 30 31  1  0
 30 56  1  0
 31 32  1  0
 32 33  2  0
M  CHG  2  15   1  24  -1
M  END
>  <i_m_ct_stereo_status>  (10) 
1

>  <s_m_source_file>  (10) 
/var/tmp/pbs.5076255.sched01/tmp7e7yg0hy/0s0dyhj_r.sdf

>  <i_m_source_file_index>  (10) 
5

>  <i_lp_mmshare_version>  (10) 
48012

>  <i_f3d_flags>  (10) 
0

>  <s_epik_input>  (10) 
W2NIXTFbY0hdW2NIXW5jKFtOSF1DMj1PKWMxW0NAXTIzW0NAXTQ1W0NASF0oW0NIMl1bQ0gyXTMpW0NIMl1OKFtDSDJdNClbQ0BASF0oW0NIMl1bQ0gyXVtDSDJdNSljKGMoW09IXSlbbkhdNiljKD1PKWMoYzY3KVtjSF1bY0hdW2NIXW43

>  <s_epik_cmdline>  (10) 
J2VwaWtfcHl0aG9uJywgJy1waHQnLCAnMi4wJywgJy1waCcsICc3LjAnLCAnLXRuJywgJzgnLCAnLW1hJywgJzIwMCcsICctaW1hZScsICc8aW5maWxlLm1hZT4nLCAnLW9tYWUnLCAnPG91dGZpbGUubWFlPic=

>  <r_epik_Ionization_Penalty>  (10) 
0.0226769

>  <r_epik_Ionization_Penalty_Charging>  (10) 
0.0222355

>  <r_epik_Ionization_Penalty_Neutral>  (10) 
0.00044142

>  <r_epik_State_Penalty>  (10) 
0.00423329

>  <r_epik_Charging_Adjusted_Penalty>  (10) 
0.0264688

>  <i_epik_Tot_Q>  (10) 
0

>  <i_epik_Tot_abs_Q>  (10) 
2

>  <s_lp_Force_Field>  (10) 
OPLS3e

>  <r_lp_Energy>  (10) 
44.3979

>  <b_lp_Chiralities_Consistent>  (10) 
1

>  <s_lp_Variant>  (10) 
2:0-1

>  <s_i_glide_gridfile>  (10) 
pfpi4k_grid

>  <i_i_glide_lignum>  (10) 
5

>  <i_i_glide_rotatable_bonds>  (10) 
1

>  <r_i_docking_score>  (10) 
-3.9096

>  <r_i_glide_ligand_efficiency>  (10) 
-0.118473

>  <r_i_glide_ligand_efficiency_sa>  (10) 
-0.380005

>  <r_i_glide_ligand_efficiency_ln>  (10) 
-0.869475

>  <r_i_glide_gscore>  (10) 
-3.9096

>  <r_i_glide_lipo>  (10) 
-0.883091

>  <r_i_glide_hbond>  (10) 
-0.100776

>  <r_i_glide_metal>  (10) 
-0

>  <r_i_glide_rewards>  (10) 
-0.385243

>  <r_i_glide_evdw>  (10) 
-35.8594

>  <r_i_glide_ecoul>  (10) 
-4.46589

>  <r_i_glide_erotb>  (10) 
0.101643

>  <r_i_glide_esite>  (10) 
-0.179279

>  <r_i_glide_emodel>  (10) 
-49.5015

>  <r_i_glide_energy>  (10) 
-40.3253

>  <r_i_glide_einternal>  (10) 
0.863643

>  <r_i_glide_intrahb_reward>  (10) 
-0

>  <i_i_glide_confnum>  (10) 
4

>  <i_i_glide_posenum>  (10) 
27

>  <r_i_glide_eff_state_penalty>  (10) 
0

>  <ligand_id>  (10) 
2

>  <original_smiles>  (10) 
O=C1Nc2ncccc2C12CCC1CN3CC12CCCC3c1c(O)[nH]c2ncccc2c1=O

>  <smiles>  (10) 
[H]c1nc2c(c([H])c1[H])C1(C(=O)N2[H])C([H])([H])C([H])([H])C2([H])C13C([H])([H])C([H])([H])C([H])([H])C([H])(c1c([O-])n([H])c4nc([H])c([H])c([H])c4c1=O)[N+]([H])(C2([H])[H])C3([H])[H]

$$$$
2:0:2
     RDKit          3D

 58 64  0  0  1  0  0  0  0  0999 V2000
    7.1958   -1.8784   -0.2829 O   0  0  0  0  0  0  0  0  0  0  0  0
    6.0619   -2.1131   -0.6878 C   0  0  0  0  0  0  0  0  0  0  0  0
    5.6484   -1.8219   -1.9159 N   0  0  0  0  0  0  0  0  0  0  0  0
    4.3808   -2.2924   -2.1654 C   0  0  0  0  0  0  0  0  0  0  0  0
    3.7102   -2.2120   -3.3284 N   0  0  0  0  0  0  0  0  0  0  0  0
    2.4788   -2.7723   -3.3311 C   0  0  0  0  0  0  0  0  0  0  0  0
    1.9303   -3.4362   -2.2194 C   0  0  0  0  0  0  0  0  0  0  0  0
    2.6578   -3.5268   -1.0217 C   0  0  0  0  0  0  0  0  0  0  0  0
    3.9214   -2.9097   -0.9973 C   0  0  0  0  0  0  0  0  0  0  0  0
    4.9619   -2.8392    0.1299 C   0  0  1  0  0  0  0  0  0  0  0  0
    5.4392   -4.2335    0.5722 C   0  0  0  0  0  0  0  0  0  0  0  0
    4.4784   -4.6393    1.6879 C   0  0  0  0  0  0  0  0  0  0  0  0
    4.1570   -3.3234    2.4203 C   0  0  2  0  0  0  0  0  0  0  0  0
    2.6960   -3.0755    2.8424 C   0  0  0  0  0  0  0  0  0  0  0  0
    2.4775   -1.6152    2.6855 N   0  0  2  0  0  0  0  0  0  0  0  0
    3.2249   -1.2836    1.4502 C   0  0  0  0  0  0  0  0  0  0  0  0
    4.5179   -2.1382    1.4897 C   0  0  2  0  0  0  0  0  0  0  0  0
    5.6319   -1.2649    2.1556 C   0  0  0  0  0  0  0  0  0  0  0  0
    5.3894   -0.7260    3.5882 C   0  0  0  0  0  0  0  0  0  0  0  0
    4.0873    0.0690    3.8113 C   0  0  0  0  0  0  0  0  0  0  0  0
    2.7990   -0.7955    3.9041 C   0  0  1  0  0  0  0  0  0  0  0  0
    1.5744   -0.0007    4.4180 C   0  0  0  0  0  0  0  0  0  0  0  0
    1.1501   -0.1447    5.7470 C   0  0  0  0  0  0  0  0  0  0  0  0
    1.5719   -0.8088    6.7176 O   0  0  0  0  0  0  0  0  0  0  0  0
    0.0230    0.5946    6.1112 N   0  0  0  0  0  0  0  0  0  0  0  0
   -0.6926    1.4600    5.2820 C   0  0  0  0  0  0  0  0  0  0  0  0
   -1.7613    2.0898    5.8247 N   0  0  0  0  0  0  0  0  0  0  0  0
   -2.4685    2.9350    5.0367 C   0  0  0  0  0  0  0  0  0  0  0  0
   -2.1596    3.1681    3.6819 C   0  0  0  0  0  0  0  0  0  0  0  0
   -1.0461    2.5006    3.1290 C   0  0  0  0  0  0  0  0  0  0  0  0
   -0.2923    1.6311    3.9454 C   0  0  0  0  0  0  0  0  0  0  0  0
    0.8895    0.8960    3.4379 C   0  0  0  0  0  0  0  0  0  0  0  0
    1.2654    1.0237    2.2743 O   0  0  0  0  0  0  0  0  0  0  0  0
    6.1936   -1.3734   -2.6397 H   0  0  0  0  0  0  0  0  0  0  0  0
    1.9213   -2.6978   -4.2582 H   0  0  0  0  0  0  0  0  0  0  0  0
    0.9491   -3.8556   -2.2974 H   0  0  0  0  0  0  0  0  0  0  0  0
    2.2476   -4.0522   -0.1757 H   0  0  0  0  0  0  0  0  0  0  0  0
    5.4916   -4.9573   -0.2431 H   0  0  0  0  0  0  0  0  0  0  0  0
    6.4451   -4.1638    0.9942 H   0  0  0  0  0  0  0  0  0  0  0  0
    3.5885   -5.0906    1.2539 H   0  0  0  0  0  0  0  0  0  0  0  0
    4.9295   -5.3837    2.3469 H   0  0  0  0  0  0  0  0  0  0  0  0
    4.7747   -3.3112    3.3148 H   0  0  0  0  0  0  0  0  0  0  0  0
    2.0280   -3.5765    2.1410 H   0  0  0  0  0  0  0  0  0  0  0  0
    2.4595   -3.4646    3.8358 H   0  0  0  0  0  0  0  0  0  0  0  0
    2.5651   -1.5730    0.6419 H   0  0  0  0  0  0  0  0  0  0  0  0
    3.3963   -0.2204    1.2844 H   0  0  0  0  0  0  0  0  0  0  0  0
    6.5526   -1.8448    2.1944 H   0  0  0  0  0  0  0  0  0  0  0  0
    5.8551   -0.4094    1.5181 H   0  0  0  0  0  0  0  0  0  0  0  0
    5.4698   -1.5228    4.3286 H   0  0  0  0  0  0  0  0  0  0  0  0
    6.2266   -0.0653    3.8185 H   0  0  0  0  0  0  0  0  0  0  0  0
    4.1999    0.5734    4.7706 H   0  0  0  0  0  0  0  0  0  0  0  0
    3.9956    0.8770    3.0870 H   0  0  0  0  0  0  0  0  0  0  0  0
    3.0137   -1.5078    4.6977 H   0  0  0  0  0  0  0  0  0  0  0  0
   -3.3305    3.4172    5.4795 H   0  0  0  0  0  0  0  0  0  0  0  0
   -2.7592    3.8254    3.0650 H   0  0  0  0  0  0  0  0  0  0  0  0
   -0.7802    2.6495    2.0918 H   0  0  0  0  0  0  0  0  0  0  0  0
   -0.3223    0.5866    7.0555 H   0  0  0  0  0  0  0  0  0  0  0  0
    1.4971   -1.4495    2.5039 H   0  0  0  0  0  0  0  0  0  0  0  0
  1  2  2  0
  2 10  1  0
  2  3  1  0
  3  4  1  0
  3 34  1  0
  4  9  2  0
  4  5  1  0
  5  6  2  0
  6  7  1  0
  6 35  1  0
  7  8  2  0
  7 36  1  0
  8  9  1  0
  8 37  1  0
  9 10  1  0
 10 17  1  0
 10 11  1  1
 11 12  1  0
 11 38  1  0
 11 39  1  0
 12 13  1  0
 12 40  1  0
 12 41  1  0
 13 17  1  0
 13 14  1  0
 13 42  1  1
 14 15  1  0
 14 43  1  0
 14 44  1  0
 15 21  1  0
 15 16  1  0
 15 58  1  6
 16 17  1  0
 16 45  1  0
 16 46  1  0
 17 18  1  1
 18 19  1  0
 18 47  1  0
 18 48  1  0
 19 20  1  0
 19 49  1  0
 19 50  1  0
 20 21  1  0
 20 51  1  0
 20 52  1  0
 21 22  1  0
 21 53  1  1
 22 32  1  0
 22 23  2  0
 23 24  1  0
 23 25  1  0
 25 26  1  0
 25 57  1  0
 26 31  2  0
 26 27  1  0
 27 28  2  0
 28 29  1  0
 28 54  1  0
 29 30  2  0
 29 55  1  0
 30 31  1  0
 30 56  1  0
 31 32  1  0
 32 33  2  0
M  CHG  2  15   1  24  -1
M  END
>  <i_m_ct_stereo_status>  (11) 
1

>  <s_m_source_file>  (11) 
/var/tmp/pbs.5076255.sched01/tmp7e7yg0hy/0s0dyhj_r.sdf

>  <i_m_source_file_index>  (11) 
5

>  <i_lp_mmshare_version>  (11) 
48012

>  <i_f3d_flags>  (11) 
0

>  <s_epik_input>  (11) 
W2NIXTFbY0hdW2NIXW5jKFtOSF1DMj1PKWMxW0NAXTIzW0NAXTQ1W0NASF0oW0NIMl1bQ0gyXTMpW0NIMl1OKFtDSDJdNClbQ0BASF0oW0NIMl1bQ0gyXVtDSDJdNSljKGMoW09IXSlbbkhdNiljKD1PKWMoYzY3KVtjSF1bY0hdW2NIXW43

>  <s_epik_cmdline>  (11) 
J2VwaWtfcHl0aG9uJywgJy1waHQnLCAnMi4wJywgJy1waCcsICc3LjAnLCAnLXRuJywgJzgnLCAnLW1hJywgJzIwMCcsICctaW1hZScsICc8aW5maWxlLm1hZT4nLCAnLW9tYWUnLCAnPG91dGZpbGUubWFlPic=

>  <r_epik_Ionization_Penalty>  (11) 
0.0226769

>  <r_epik_Ionization_Penalty_Charging>  (11) 
0.0222355

>  <r_epik_Ionization_Penalty_Neutral>  (11) 
0.00044142

>  <r_epik_State_Penalty>  (11) 
0.00423329

>  <r_epik_Charging_Adjusted_Penalty>  (11) 
0.0264688

>  <i_epik_Tot_Q>  (11) 
0

>  <i_epik_Tot_abs_Q>  (11) 
2

>  <s_lp_Force_Field>  (11) 
OPLS3e

>  <r_lp_Energy>  (11) 
44.3979

>  <b_lp_Chiralities_Consistent>  (11) 
1

>  <s_lp_Variant>  (11) 
2:0-1

>  <s_i_glide_gridfile>  (11) 
pfpi4k_grid

>  <i_i_glide_lignum>  (11) 
5

>  <i_i_glide_rotatable_bonds>  (11) 
1

>  <r_i_docking_score>  (11) 
-3.49891

>  <r_i_glide_ligand_efficiency>  (11) 
-0.106028

>  <r_i_glide_ligand_efficiency_sa>  (11) 
-0.340087

>  <r_i_glide_ligand_efficiency_ln>  (11) 
-0.77814

>  <r_i_glide_gscore>  (11) 
-3.49891

>  <r_i_glide_lipo>  (11) 
-0.718285

>  <r_i_glide_hbond>  (11) 
-0.150368

>  <r_i_glide_metal>  (11) 
-0

>  <r_i_glide_rewards>  (11) 
-0.385243

>  <r_i_glide_evdw>  (11) 
-35.738

>  <r_i_glide_ecoul>  (11) 
-2.95937

>  <r_i_glide_erotb>  (11) 
0.101643

>  <r_i_glide_esite>  (11) 
-0.115856

>  <r_i_glide_emodel>  (11) 
-47.2115

>  <r_i_glide_energy>  (11) 
-38.6974

>  <r_i_glide_einternal>  (11) 
0.273863

>  <r_i_glide_intrahb_reward>  (11) 
-0

>  <i_i_glide_confnum>  (11) 
1

>  <i_i_glide_posenum>  (11) 
2

>  <r_i_glide_eff_state_penalty>  (11) 
0

>  <ligand_id>  (11) 
2

>  <original_smiles>  (11) 
O=C1Nc2ncccc2C12CCC1CN3CC12CCCC3c1c(O)[nH]c2ncccc2c1=O

>  <smiles>  (11) 
[H]c1nc2c(c([H])c1[H])C1(C(=O)N2[H])C([H])([H])C([H])([H])C2([H])C13C([H])([H])C([H])([H])C([H])([H])C([H])(c1c([O-])n([H])c4nc([H])c([H])c([H])c4c1=O)[N+]([H])(C2([H])[H])C3([H])[H]

$$$$
3:0:0
     RDKit          3D

 27 29  0  0  1  0  0  0  0  0999 V2000
    3.6567   -0.4103   -4.3466 C   0  0  0  0  0  0  0  0  0  0  0  0
    3.8356   -1.7116   -3.5616 C   0  0  2  0  0  0  0  0  0  0  0  0
    2.6028   -2.4490   -3.4842 O   0  0  0  0  0  0  0  0  0  0  0  0
    2.4491   -3.0592   -2.2915 C   0  0  0  0  0  0  0  0  0  0  0  0
    1.4561   -3.6587   -1.8490 O   0  0  0  0  0  0  0  0  0  0  0  0
    3.7854   -2.9176   -1.6343 C   0  0  1  0  0  0  0  0  0  0  0  0
    4.1168   -1.5230   -2.0612 C   0  0  1  0  0  0  0  0  0  0  0  0
    5.4772   -1.4085   -1.3887 C   0  0  0  0  0  0  0  0  0  0  0  0
    5.2421   -2.1663   -0.0552 C   0  0  0  0  0  0  0  0  0  0  0  0
    4.0461   -3.0133   -0.1998 N   0  0  0  0  0  0  0  0  0  0  0  0
    3.6374   -3.9842    0.7119 C   0  0  0  0  0  0  0  0  0  0  0  0
    3.9893   -4.0912    1.9937 N   0  0  0  0  0  0  0  0  0  0  0  0
    3.5328   -5.3568    2.2664 C   0  0  0  0  0  0  0  0  0  0  0  0
    2.8820   -5.9717    1.2634 N   0  0  0  0  0  0  0  0  0  0  0  0
    2.9353   -5.0395    0.2921 N   0  0  0  0  0  0  0  0  0  0  0  0
    2.6686   -5.1952   -0.6723 H   0  0  0  0  0  0  0  0  0  0  0  0
    4.5691    0.1665   -4.4006 H   0  0  0  0  0  0  0  0  0  0  0  0
    2.8859    0.1995   -3.8767 H   0  0  0  0  0  0  0  0  0  0  0  0
    3.3361   -0.6452   -5.3615 H   0  0  0  0  0  0  0  0  0  0  0  0
    4.6029   -2.3503   -4.0120 H   0  0  0  0  0  0  0  0  0  0  0  0
    4.4515   -3.6388   -2.1175 H   0  0  0  0  0  0  0  0  0  0  0  0
    3.4230   -0.7967   -1.6204 H   0  0  0  0  0  0  0  0  0  0  0  0
    6.2462   -1.9357   -1.9528 H   0  0  0  0  0  0  0  0  0  0  0  0
    5.7906   -0.3712   -1.2365 H   0  0  0  0  0  0  0  0  0  0  0  0
    6.1011   -2.8073    0.1918 H   0  0  0  0  0  0  0  0  0  0  0  0
    5.0863   -1.4711    0.7736 H   0  0  0  0  0  0  0  0  0  0  0  0
    3.7171   -5.8575    3.2128 H   0  0  0  0  0  0  0  0  0  0  0  0
  1  2  1  0
  1 17  1  0
  1 18  1  0
  1 19  1  0
  2  7  1  0
  2  3  1  0
  2 20  1  6
  3  4  1  0
  4  5  2  0
  4  6  1  0
  6  7  1  0
  6 21  1  6
  6 10  1  0
  7  8  1  0
  7 22  1  1
  8  9  1  0
  8 23  1  0
  8 24  1  0
  9 25  1  0
  9 26  1  0
  9 10  1  0
 10 11  1  0
 11 15  1  0
 11 12  2  0
 12 13  1  0
 13 27  1  0
 13 14  2  0
 14 15  1  0
 15 16  1  0
M  END
>  <i_m_ct_stereo_status>  (12) 
1

>  <s_m_source_file>  (12) 
/var/tmp/pbs.5076255.sched01/tmp7e7yg0hy/0s0dyhj_r.sdf

>  <i_m_source_file_index>  (12) 
6

>  <i_lp_mmshare_version>  (12) 
48012

>  <i_f3d_flags>  (12) 
0

>  <s_epik_input>  (12) 
Tz1DMU9bQ0BASF0oW0NIM10pW0NAQEhdKFtDQEhdMTIpW0NIMl1bQ0gyXU4yYzNuW2NIXVtuSF1uMw==

>  <s_epik_cmdline>  (12) 
J2VwaWtfcHl0aG9uJywgJy1waHQnLCAnMi4wJywgJy1waCcsICc3LjAnLCAnLXRuJywgJzgnLCAnLW1hJywgJzIwMCcsICctaW1hZScsICc8aW5maWxlLm1hZT4nLCAnLW9tYWUnLCAnPG91dGZpbGUubWFlPic=

>  <r_lp_tautomer_probability>  (12) 
0.850276

>  <r_epik_Ionization_Penalty>  (12) 
0.00052623

>  <r_epik_Ionization_Penalty_Charging>  (12) 
0

>  <r_epik_Ionization_Penalty_Neutral>  (12) 
0.00052623

>  <r_epik_State_Penalty>  (12) 
0.0849381

>  <r_epik_Charging_Adjusted_Penalty>  (12) 
0.0849381

>  <i_epik_Tot_Q>  (12) 
0

>  <i_epik_Tot_abs_Q>  (12) 
0

>  <s_epik_Chemistry_Notes>  (12) 
This compound has an ester and may undergo hydrolysis at high or low pH.

>  <s_lp_Force_Field>  (12) 
OPLS3e

>  <r_lp_Energy>  (12) 
23.7562

>  <b_lp_Chiralities_Consistent>  (12) 
1

>  <s_lp_Variant>  (12) 
3:0-1

>  <s_i_glide_gridfile>  (12) 
pfpi4k_grid

>  <i_i_glide_lignum>  (12) 
6

>  <i_i_glide_rotatable_bonds>  (12) 
1

>  <r_i_docking_score>  (12) 
-4.20694

>  <r_i_glide_ligand_efficiency>  (12) 
-0.280463

>  <r_i_glide_ligand_efficiency_sa>  (12) 
-0.691681

>  <r_i_glide_ligand_efficiency_ln>  (12) 
-1.13454

>  <r_i_glide_gscore>  (12) 
-4.20694

>  <r_i_glide_lipo>  (12) 
-0.519204

>  <r_i_glide_hbond>  (12) 
-0.228418

>  <r_i_glide_metal>  (12) 
-0

>  <r_i_glide_rewards>  (12) 
-2.54892

>  <r_i_glide_evdw>  (12) 
-23.1045

>  <r_i_glide_ecoul>  (12) 
-0.683502

>  <r_i_glide_erotb>  (12) 
0.381762

>  <r_i_glide_esite>  (12) 
-0.0344139

>  <r_i_glide_emodel>  (12) 
-34.2521

>  <r_i_glide_energy>  (12) 
-23.788

>  <r_i_glide_einternal>  (12) 
0.764708

>  <r_i_glide_intrahb_reward>  (12) 
-0.5

>  <i_i_glide_confnum>  (12) 
4

>  <i_i_glide_posenum>  (12) 
35

>  <r_i_glide_eff_state_penalty>  (12) 
0

>  <ligand_id>  (12) 
3

>  <original_smiles>  (12) 
CC1OC(=O)C2C1CCN2c1nc[nH]n1

>  <smiles>  (12) 
[H]c1nc(N2C([H])([H])C([H])([H])C3([H])C2([H])C(=O)OC3([H])C([H])([H])[H])n([H])n1

$$$$
3:0:1
     RDKit          3D

 27 29  0  0  1  0  0  0  0  0999 V2000
   -2.9865    3.2738    8.1439 C   0  0  0  0  0  0  0  0  0  0  0  0
   -1.8845    3.2034    7.0918 C   0  0  2  0  0  0  0  0  0  0  0  0
   -2.3631    3.6947    5.8281 O   0  0  0  0  0  0  0  0  0  0  0  0
   -1.8481    3.0341    4.7703 C   0  0  0  0  0  0  0  0  0  0  0  0
   -2.1320    3.1780    3.5880 O   0  0  0  0  0  0  0  0  0  0  0  0
   -0.8045    2.1372    5.3946 C   0  0  1  0  0  0  0  0  0  0  0  0
   -1.4955    1.7842    6.6691 C   0  0  1  0  0  0  0  0  0  0  0  0
   -0.4223    0.9171    7.2984 C   0  0  0  0  0  0  0  0  0  0  0  0
    0.1369    0.1896    6.0405 C   0  0  0  0  0  0  0  0  0  0  0  0
   -0.2993    0.9017    4.8284 N   0  0  0  0  0  0  0  0  0  0  0  0
    0.2408    0.6884    3.5618 C   0  0  0  0  0  0  0  0  0  0  0  0
    0.9282   -0.3875    3.1768 N   0  0  0  0  0  0  0  0  0  0  0  0
    1.4290    0.0760    1.9916 C   0  0  0  0  0  0  0  0  0  0  0  0
    1.0936    1.3243    1.6713 N   0  0  0  0  0  0  0  0  0  0  0  0
    0.2636    1.6705    2.6729 N   0  0  0  0  0  0  0  0  0  0  0  0
   -0.1658    2.5842    2.7188 H   0  0  0  0  0  0  0  0  0  0  0  0
   -2.6590    2.8773    9.1056 H   0  0  0  0  0  0  0  0  0  0  0  0
   -3.8601    2.7107    7.8188 H   0  0  0  0  0  0  0  0  0  0  0  0
   -3.2977    4.3094    8.2925 H   0  0  0  0  0  0  0  0  0  0  0  0
   -1.0071    3.7761    7.4037 H   0  0  0  0  0  0  0  0  0  0  0  0
    0.0715    2.7521    5.5887 H   0  0  0  0  0  0  0  0  0  0  0  0
   -2.3912    1.1825    6.4752 H   0  0  0  0  0  0  0  0  0  0  0  0
    0.3639    1.5223    7.7514 H   0  0  0  0  0  0  0  0  0  0  0  0
   -0.8022    0.2341    8.0637 H   0  0  0  0  0  0  0  0  0  0  0  0
    1.2337    0.1887    6.0673 H   0  0  0  0  0  0  0  0  0  0  0  0
   -0.1859   -0.8547    6.0010 H   0  0  0  0  0  0  0  0  0  0  0  0
    2.0900   -0.5090    1.3597 H   0  0  0  0  0  0  0  0  0  0  0  0
  1  2  1  0
  1 17  1  0
  1 18  1  0
  1 19  1  0
  2  7  1  0
  2  3  1  0
  2 20  1  1
  3  4  1  0
  4  5  2  0
  4  6  1  0
  6  7  1  0
  6 21  1  1
  6 10  1  0
  7  8  1  0
  7 22  1  6
  8  9  1  0
  8 23  1  0
  8 24  1  0
  9 25  1  0
  9 26  1  0
  9 10  1  0
 10 11  1  0
 11 15  1  0
 11 12  2  0
 12 13  1  0
 13 27  1  0
 13 14  2  0
 14 15  1  0
 15 16  1  0
M  END
>  <i_m_ct_stereo_status>  (13) 
1

>  <s_m_source_file>  (13) 
/var/tmp/pbs.5076255.sched01/tmp7e7yg0hy/0s0dyhj_r.sdf

>  <i_m_source_file_index>  (13) 
6

>  <i_lp_mmshare_version>  (13) 
48012

>  <i_f3d_flags>  (13) 
0

>  <s_epik_input>  (13) 
Tz1DMU9bQ0BASF0oW0NIM10pW0NAQEhdKFtDQEhdMTIpW0NIMl1bQ0gyXU4yYzNuW2NIXVtuSF1uMw==

>  <s_epik_cmdline>  (13) 
J2VwaWtfcHl0aG9uJywgJy1waHQnLCAnMi4wJywgJy1waCcsICc3LjAnLCAnLXRuJywgJzgnLCAnLW1hJywgJzIwMCcsICctaW1hZScsICc8aW5maWxlLm1hZT4nLCAnLW9tYWUnLCAnPG91dGZpbGUubWFlPic=

>  <r_lp_tautomer_probability>  (13) 
0.850276

>  <r_epik_Ionization_Penalty>  (13) 
0.00052623

>  <r_epik_Ionization_Penalty_Charging>  (13) 
0

>  <r_epik_Ionization_Penalty_Neutral>  (13) 
0.00052623

>  <r_epik_State_Penalty>  (13) 
0.0849381

>  <r_epik_Charging_Adjusted_Penalty>  (13) 
0.0849381

>  <i_epik_Tot_Q>  (13) 
0

>  <i_epik_Tot_abs_Q>  (13) 
0

>  <s_epik_Chemistry_Notes>  (13) 
This compound has an ester and may undergo hydrolysis at high or low pH.

>  <s_lp_Force_Field>  (13) 
OPLS3e

>  <r_lp_Energy>  (13) 
23.7562

>  <b_lp_Chiralities_Consistent>  (13) 
1

>  <s_lp_Variant>  (13) 
3:0-1

>  <s_i_glide_gridfile>  (13) 
pfpi4k_grid

>  <i_i_glide_lignum>  (13) 
6

>  <i_i_glide_rotatable_bonds>  (13) 
1

>  <r_i_docking_score>  (13) 
-3.35126

>  <r_i_glide_ligand_efficiency>  (13) 
-0.223418

>  <r_i_glide_ligand_efficiency_sa>  (13) 
-0.550995

>  <r_i_glide_ligand_efficiency_ln>  (13) 
-0.90378

>  <r_i_glide_gscore>  (13) 
-3.35126

>  <r_i_glide_lipo>  (13) 
-0.165682

>  <r_i_glide_hbond>  (13) 
0

>  <r_i_glide_metal>  (13) 
-0

>  <r_i_glide_rewards>  (13) 
-2.48943

>  <r_i_glide_evdw>  (13) 
-18.5177

>  <r_i_glide_ecoul>  (13) 
0.164294

>  <r_i_glide_erotb>  (13) 
0.381762

>  <r_i_glide_esite>  (13) 
-0.176675

>  <r_i_glide_emodel>  (13) 
-27.6849

>  <r_i_glide_energy>  (13) 
-18.3534

>  <r_i_glide_einternal>  (13) 
0.596072

>  <r_i_glide_intrahb_reward>  (13) 
-0.5

>  <i_i_glide_confnum>  (13) 
4

>  <i_i_glide_posenum>  (13) 
3

>  <r_i_glide_eff_state_penalty>  (13) 
0

>  <ligand_id>  (13) 
3

>  <original_smiles>  (13) 
CC1OC(=O)C2C1CCN2c1nc[nH]n1

>  <smiles>  (13) 
[H]c1nc(N2C([H])([H])C([H])([H])C3([H])C2([H])C(=O)OC3([H])C([H])([H])[H])n([H])n1

$$$$
3:0:2
     RDKit          3D

 27 29  0  0  1  0  0  0  0  0999 V2000
   -2.3424    3.1573    3.6490 C   0  0  0  0  0  0  0  0  0  0  0  0
   -1.0600    2.5180    3.1226 C   0  0  2  0  0  0  0  0  0  0  0  0
   -1.1371    1.0863    3.2106 O   0  0  0  0  0  0  0  0  0  0  0  0
    0.0522    0.5106    3.4798 C   0  0  0  0  0  0  0  0  0  0  0  0
    0.2711   -0.6699    3.7041 O   0  0  0  0  0  0  0  0  0  0  0  0
    1.0329    1.6581    3.4094 C   0  0  1  0  0  0  0  0  0  0  0  0
    0.1870    2.7361    3.9975 C   0  0  1  0  0  0  0  0  0  0  0  0
    1.1681    3.8869    3.9037 C   0  0  0  0  0  0  0  0  0  0  0  0
    2.4993    3.1544    4.2424 C   0  0  0  0  0  0  0  0  0  0  0  0
    2.3058    1.7018    4.1075 N   0  0  0  0  0  0  0  0  0  0  0  0
    3.3465    0.7678    4.0875 C   0  0  0  0  0  0  0  0  0  0  0  0
    4.5752    0.9081    4.5930 N   0  0  0  0  0  0  0  0  0  0  0  0
    5.1798   -0.1830    4.0347 C   0  0  0  0  0  0  0  0  0  0  0  0
    4.4191   -0.9691    3.2796 N   0  0  0  0  0  0  0  0  0  0  0  0
    3.2280   -0.3392    3.3587 N   0  0  0  0  0  0  0  0  0  0  0  0
    2.4029   -0.6510    2.8704 H   0  0  0  0  0  0  0  0  0  0  0  0
   -2.2836    4.2414    3.6188 H   0  0  0  0  0  0  0  0  0  0  0  0
   -2.5387    2.8476    4.6720 H   0  0  0  0  0  0  0  0  0  0  0  0
   -3.1923    2.8448    3.0348 H   0  0  0  0  0  0  0  0  0  0  0  0
   -0.8782    2.8131    2.0908 H   0  0  0  0  0  0  0  0  0  0  0  0
    1.2188    1.8549    2.3528 H   0  0  0  0  0  0  0  0  0  0  0  0
   -0.0553    2.5464    5.0516 H   0  0  0  0  0  0  0  0  0  0  0  0
    1.2166    4.2905    2.8908 H   0  0  0  0  0  0  0  0  0  0  0  0
    0.9440    4.7163    4.5835 H   0  0  0  0  0  0  0  0  0  0  0  0
    3.2987    3.4847    3.5578 H   0  0  0  0  0  0  0  0  0  0  0  0
    2.8312    3.3795    5.2612 H   0  0  0  0  0  0  0  0  0  0  0  0
    6.2315   -0.3577    4.1459 H   0  0  0  0  0  0  0  0  0  0  0  0
  1  2  1  0
  1 17  1  0
  1 18  1  0
  1 19  1  0
  2  7  1  0
  2  3  1  0
  2 20  1  6
  3  4  1  0
  4  5  2  0
  4  6  1  0
  6  7  1  0
  6 21  1  6
  6 10  1  0
  7  8  1  0
  7 22  1  1
  8  9  1  0
  8 23  1  0
  8 24  1  0
  9 25  1  0
  9 26  1  0
  9 10  1  0
 10 11  1  0
 11 15  1  0
 11 12  2  0
 12 13  1  0
 13 27  1  0
 13 14  2  0
 14 15  1  0
 15 16  1  0
M  END
>  <i_m_ct_stereo_status>  (14) 
1

>  <s_m_source_file>  (14) 
/var/tmp/pbs.5076255.sched01/tmp7e7yg0hy/0s0dyhj_r.sdf

>  <i_m_source_file_index>  (14) 
6

>  <i_lp_mmshare_version>  (14) 
48012

>  <i_f3d_flags>  (14) 
0

>  <s_epik_input>  (14) 
Tz1DMU9bQ0BASF0oW0NIM10pW0NAQEhdKFtDQEhdMTIpW0NIMl1bQ0gyXU4yYzNuW2NIXVtuSF1uMw==

>  <s_epik_cmdline>  (14) 
J2VwaWtfcHl0aG9uJywgJy1waHQnLCAnMi4wJywgJy1waCcsICc3LjAnLCAnLXRuJywgJzgnLCAnLW1hJywgJzIwMCcsICctaW1hZScsICc8aW5maWxlLm1hZT4nLCAnLW9tYWUnLCAnPG91dGZpbGUubWFlPic=

>  <r_lp_tautomer_probability>  (14) 
0.850276

>  <r_epik_Ionization_Penalty>  (14) 
0.00052623

>  <r_epik_Ionization_Penalty_Charging>  (14) 
0

>  <r_epik_Ionization_Penalty_Neutral>  (14) 
0.00052623

>  <r_epik_State_Penalty>  (14) 
0.0849381

>  <r_epik_Charging_Adjusted_Penalty>  (14) 
0.0849381

>  <i_epik_Tot_Q>  (14) 
0

>  <i_epik_Tot_abs_Q>  (14) 
0

>  <s_epik_Chemistry_Notes>  (14) 
This compound has an ester and may undergo hydrolysis at high or low pH.

>  <s_lp_Force_Field>  (14) 
OPLS3e

>  <r_lp_Energy>  (14) 
23.7562

>  <b_lp_Chiralities_Consistent>  (14) 
1

>  <s_lp_Variant>  (14) 
3:0-1

>  <s_i_glide_gridfile>  (14) 
pfpi4k_grid

>  <i_i_glide_lignum>  (14) 
6

>  <i_i_glide_rotatable_bonds>  (14) 
1

>  <r_i_docking_score>  (14) 
-3.06513

>  <r_i_glide_ligand_efficiency>  (14) 
-0.204342

>  <r_i_glide_ligand_efficiency_sa>  (14) 
-0.503951

>  <r_i_glide_ligand_efficiency_ln>  (14) 
-0.826615

>  <r_i_glide_gscore>  (14) 
-3.06513

>  <r_i_glide_lipo>  (14) 
0

>  <r_i_glide_hbond>  (14) 
0

>  <r_i_glide_metal>  (14) 
-0

>  <r_i_glide_rewards>  (14) 
-2.6264

>  <r_i_glide_evdw>  (14) 
-16.6723

>  <r_i_glide_ecoul>  (14) 
0.279745

>  <r_i_glide_erotb>  (14) 
0.381762

>  <r_i_glide_esite>  (14) 
-0.0288436

>  <r_i_glide_emodel>  (14) 
-25.2621

>  <r_i_glide_energy>  (14) 
-16.3925

>  <r_i_glide_einternal>  (14) 
0.718876

>  <r_i_glide_intrahb_reward>  (14) 
-0.5

>  <i_i_glide_confnum>  (14) 
4

>  <i_i_glide_posenum>  (14) 
24

>  <r_i_glide_eff_state_penalty>  (14) 
0

>  <ligand_id>  (14) 
3

>  <original_smiles>  (14) 
CC1OC(=O)C2C1CCN2c1nc[nH]n1

>  <smiles>  (14) 
[H]c1nc(N2C([H])([H])C([H])([H])C3([H])C2([H])C(=O)OC3([H])C([H])([H])[H])n([H])n1

$$$$
3:1:0
     RDKit          3D

 27 29  0  0  1  0  0  0  0  0999 V2000
   -0.0209    0.8004    2.1562 C   0  0  0  0  0  0  0  0  0  0  0  0
    0.1247    1.1918    3.6261 C   0  0  2  0  0  0  0  0  0  0  0  0
   -0.0036    0.0264    4.4591 O   0  0  0  0  0  0  0  0  0  0  0  0
   -0.6606    0.2614    5.6189 C   0  0  0  0  0  0  0  0  0  0  0  0
   -0.9819   -0.5625    6.4745 O   0  0  0  0  0  0  0  0  0  0  0  0
   -0.8556    1.7638    5.6432 C   0  0  1  0  0  0  0  0  0  0  0  0
   -1.0441    2.0110    4.1839 C   0  0  1  0  0  0  0  0  0  0  0  0
   -1.1870    3.5265    4.1791 C   0  0  0  0  0  0  0  0  0  0  0  0
   -1.9379    3.7400    5.5313 C   0  0  0  0  0  0  0  0  0  0  0  0
   -1.9746    2.4506    6.2445 N   0  0  0  0  0  0  0  0  0  0  0  0
   -2.0769    2.5126    7.6643 C   0  0  0  0  0  0  0  0  0  0  0  0
   -2.9583    3.3713    8.2630 N   0  0  0  0  0  0  0  0  0  0  0  0
   -2.7293    3.0891    9.5397 C   0  0  0  0  0  0  0  0  0  0  0  0
   -1.7920    2.1612    9.7103 N   0  0  0  0  0  0  0  0  0  0  0  0
   -1.3606    1.7486    8.4967 N   0  0  0  0  0  0  0  0  0  0  0  0
   -1.4703    1.7798   10.5895 H   0  0  0  0  0  0  0  0  0  0  0  0
    0.0390    1.6613    1.4909 H   0  0  0  0  0  0  0  0  0  0  0  0
   -0.9787    0.3133    1.9824 H   0  0  0  0  0  0  0  0  0  0  0  0
    0.7635    0.0948    1.8778 H   0  0  0  0  0  0  0  0  0  0  0  0
    1.0795    1.6894    3.8162 H   0  0  0  0  0  0  0  0  0  0  0  0
    0.0611    2.2372    5.9985 H   0  0  0  0  0  0  0  0  0  0  0  0
   -1.9933    1.5722    3.8522 H   0  0  0  0  0  0  0  0  0  0  0  0
   -0.2105    4.0124    4.1908 H   0  0  0  0  0  0  0  0  0  0  0  0
   -1.7413    3.8926    3.3115 H   0  0  0  0  0  0  0  0  0  0  0  0
   -1.4133    4.4866    6.1291 H   0  0  0  0  0  0  0  0  0  0  0  0
   -2.9533    4.0914    5.3647 H   0  0  0  0  0  0  0  0  0  0  0  0
   -3.2561    3.5523   10.3559 H   0  0  0  0  0  0  0  0  0  0  0  0
  1  2  1  0
  1 17  1  0
  1 18  1  0
  1 19  1  0
  2  7  1  0
  2  3  1  0
  2 20  1  6
  3  4  1  0
  4  5  2  0
  4  6  1  0
  6 10  1  0
  6  7  1  0
  6 21  1  1
  7  8  1  0
  7 22  1  6
  8  9  1  0
  8 23  1  0
  8 24  1  0
  9 10  1  0
  9 25  1  0
  9 26  1  0
 10 11  1  0
 11 15  2  0
 11 12  1  0
 12 13  2  0
 13 14  1  0
 13 27  1  0
 14 16  1  0
 14 15  1  0
M  END
>  <i_m_ct_stereo_status>  (15) 
1

>  <s_m_source_file>  (15) 
/var/tmp/pbs.5076255.sched01/tmp7e7yg0hy/0s0dyhj_r.sdf

>  <i_m_source_file_index>  (15) 
7

>  <i_lp_mmshare_version>  (15) 
48012

>  <i_f3d_flags>  (15) 
0

>  <s_epik_input>  (15) 
Tz1DMU9bQ0BASF0oW0NIM10pW0NAQEhdKFtDQEhdMTIpW0NIMl1bQ0gyXU4yYzNuW2NIXVtuSF1uMw==

>  <s_epik_cmdline>  (15) 
J2VwaWtfcHl0aG9uJywgJy1waHQnLCAnMi4wJywgJy1waCcsICc3LjAnLCAnLXRuJywgJzgnLCAnLW1hJywgJzIwMCcsICctaW1hZScsICc8aW5maWxlLm1hZT4nLCAnLW9tYWUnLCAnPG91dGZpbGUubWFlPic=

>  <r_lp_tautomer_probability>  (15) 
0.147413

>  <r_epik_Ionization_Penalty>  (15) 
0.000531045

>  <r_epik_Ionization_Penalty_Charging>  (15) 
0

>  <r_epik_Ionization_Penalty_Neutral>  (15) 
0.000531045

>  <r_epik_State_Penalty>  (15) 
1.19281

>  <r_epik_Charging_Adjusted_Penalty>  (15) 
1.19281

>  <i_epik_Tot_Q>  (15) 
0

>  <i_epik_Tot_abs_Q>  (15) 
0

>  <s_epik_Chemistry_Notes>  (15) 
This compound has an ester and may undergo hydrolysis at high or low pH.

>  <s_lp_Force_Field>  (15) 
OPLS3e

>  <r_lp_Energy>  (15) 
25.1327

>  <b_lp_Chiralities_Consistent>  (15) 
1

>  <s_lp_Variant>  (15) 
3:0-2

>  <s_i_glide_gridfile>  (15) 
pfpi4k_grid

>  <i_i_glide_lignum>  (15) 
7

>  <i_i_glide_rotatable_bonds>  (15) 
1

>  <r_i_docking_score>  (15) 
-3.52453

>  <r_i_glide_ligand_efficiency>  (15) 
-0.234969

>  <r_i_glide_ligand_efficiency_sa>  (15) 
-0.579482

>  <r_i_glide_ligand_efficiency_ln>  (15) 
-0.950507

>  <r_i_glide_gscore>  (15) 
-3.52453

>  <r_i_glide_lipo>  (15) 
0

>  <r_i_glide_hbond>  (15) 
-0.0779104

>  <r_i_glide_metal>  (15) 
-0

>  <r_i_glide_rewards>  (15) 
-2.07455

>  <r_i_glide_evdw>  (15) 
-17.7439

>  <r_i_glide_ecoul>  (15) 
-4.88551

>  <r_i_glide_erotb>  (15) 
0.381762

>  <r_i_glide_esite>  (15) 
-0.133812

>  <r_i_glide_emodel>  (15) 
-28.4677

>  <r_i_glide_energy>  (15) 
-22.6294

>  <r_i_glide_einternal>  (15) 
0.208798

>  <r_i_glide_intrahb_reward>  (15) 
-0

>  <i_i_glide_confnum>  (15) 
4

>  <i_i_glide_posenum>  (15) 
30

>  <r_i_glide_eff_state_penalty>  (15) 
0

>  <ligand_id>  (15) 
3

>  <original_smiles>  (15) 
CC1OC(=O)C2C1CCN2c1nc[nH]n1

>  <smiles>  (15) 
[H]c1nc(N2C([H])([H])C([H])([H])C3([H])C2([H])C(=O)OC3([H])C([H])([H])[H])nn1[H]

$$$$
3:1:1
     RDKit          3D

 27 29  0  0  1  0  0  0  0  0999 V2000
   -1.6296    4.0693    3.5099 C   0  0  0  0  0  0  0  0  0  0  0  0
   -1.7755    2.5499    3.6087 C   0  0  2  0  0  0  0  0  0  0  0  0
   -2.1666    2.1974    4.9472 O   0  0  0  0  0  0  0  0  0  0  0  0
   -1.6111    1.0415    5.3846 C   0  0  0  0  0  0  0  0  0  0  0  0
   -1.7536    0.5358    6.4968 O   0  0  0  0  0  0  0  0  0  0  0  0
   -0.8907    0.4848    4.1681 C   0  0  1  0  0  0  0  0  0  0  0  0
   -0.4631    1.7674    3.5306 C   0  0  1  0  0  0  0  0  0  0  0  0
    0.2300    1.2474    2.2755 C   0  0  0  0  0  0  0  0  0  0  0  0
    0.8736   -0.0639    2.8210 C   0  0  0  0  0  0  0  0  0  0  0  0
    0.3364   -0.2887    4.1769 N   0  0  0  0  0  0  0  0  0  0  0  0
    0.3575   -1.6280    4.6522 C   0  0  0  0  0  0  0  0  0  0  0  0
   -0.6018   -2.1201    5.5026 N   0  0  0  0  0  0  0  0  0  0  0  0
   -0.1538   -3.3540    5.6716 C   0  0  0  0  0  0  0  0  0  0  0  0
    0.9490   -3.6128    4.9772 N   0  0  0  0  0  0  0  0  0  0  0  0
    1.3076   -2.4982    4.3056 N   0  0  0  0  0  0  0  0  0  0  0  0
    1.4675   -4.4758    4.9260 H   0  0  0  0  0  0  0  0  0  0  0  0
   -1.3163    4.3724    2.5110 H   0  0  0  0  0  0  0  0  0  0  0  0
   -0.9008    4.4427    4.2324 H   0  0  0  0  0  0  0  0  0  0  0  0
   -2.5840    4.5454    3.7140 H   0  0  0  0  0  0  0  0  0  0  0  0
   -2.5001    2.1725    2.8825 H   0  0  0  0  0  0  0  0  0  0  0  0
   -1.6207   -0.0310    3.5434 H   0  0  0  0  0  0  0  0  0  0  0  0
    0.2867    2.2624    4.1568 H   0  0  0  0  0  0  0  0  0  0  0  0
   -0.4903    1.0296    1.4877 H   0  0  0  0  0  0  0  0  0  0  0  0
    0.9666    1.9474    1.8744 H   0  0  0  0  0  0  0  0  0  0  0  0
    0.6255   -0.9029    2.1636 H   0  0  0  0  0  0  0  0  0  0  0  0
    1.9621    0.0057    2.8528 H   0  0  0  0  0  0  0  0  0  0  0  0
   -0.6483   -4.0828    6.2928 H   0  0  0  0  0  0  0  0  0  0  0  0
  1  2  1  0
  1 17  1  0
  1 18  1  0
  1 19  1  0
  2  7  1  0
  2  3  1  0
  2 20  1  6
  3  4  1  0
  4  5  2  0
  4  6  1  0
  6 10  1  0
  6  7  1  0
  6 21  1  6
  7  8  1  0
  7 22  1  1
  8  9  1  0
  8 23  1  0
  8 24  1  0
  9 10  1  0
  9 25  1  0
  9 26  1  0
 10 11  1  0
 11 15  2  0
 11 12  1  0
 12 13  2  0
 13 14  1  0
 13 27  1  0
 14 16  1  0
 14 15  1  0
M  END
>  <i_m_ct_stereo_status>  (16) 
1

>  <s_m_source_file>  (16) 
/var/tmp/pbs.5076255.sched01/tmp7e7yg0hy/0s0dyhj_r.sdf

>  <i_m_source_file_index>  (16) 
7

>  <i_lp_mmshare_version>  (16) 
48012

>  <i_f3d_flags>  (16) 
0

>  <s_epik_input>  (16) 
Tz1DMU9bQ0BASF0oW0NIM10pW0NAQEhdKFtDQEhdMTIpW0NIMl1bQ0gyXU4yYzNuW2NIXVtuSF1uMw==

>  <s_epik_cmdline>  (16) 
J2VwaWtfcHl0aG9uJywgJy1waHQnLCAnMi4wJywgJy1waCcsICc3LjAnLCAnLXRuJywgJzgnLCAnLW1hJywgJzIwMCcsICctaW1hZScsICc8aW5maWxlLm1hZT4nLCAnLW9tYWUnLCAnPG91dGZpbGUubWFlPic=

>  <r_lp_tautomer_probability>  (16) 
0.147413

>  <r_epik_Ionization_Penalty>  (16) 
0.000531045

>  <r_epik_Ionization_Penalty_Charging>  (16) 
0

>  <r_epik_Ionization_Penalty_Neutral>  (16) 
0.000531045

>  <r_epik_State_Penalty>  (16) 
1.19281

>  <r_epik_Charging_Adjusted_Penalty>  (16) 
1.19281

>  <i_epik_Tot_Q>  (16) 
0

>  <i_epik_Tot_abs_Q>  (16) 
0

>  <s_epik_Chemistry_Notes>  (16) 
This compound has an ester and may undergo hydrolysis at high or low pH.

>  <s_lp_Force_Field>  (16) 
OPLS3e

>  <r_lp_Energy>  (16) 
25.1327

>  <b_lp_Chiralities_Consistent>  (16) 
1

>  <s_lp_Variant>  (16) 
3:0-2

>  <s_i_glide_gridfile>  (16) 
pfpi4k_grid

>  <i_i_glide_lignum>  (16) 
7

>  <i_i_glide_rotatable_bonds>  (16) 
1

>  <r_i_docking_score>  (16) 
-3.40988

>  <r_i_glide_ligand_efficiency>  (16) 
-0.227325

>  <r_i_glide_ligand_efficiency_sa>  (16) 
-0.560632

>  <r_i_glide_ligand_efficiency_ln>  (16) 
-0.919587

>  <r_i_glide_gscore>  (16) 
-3.40988

>  <r_i_glide_lipo>  (16) 
0

>  <r_i_glide_hbond>  (16) 
-0.16

>  <r_i_glide_metal>  (16) 
-0

>  <r_i_glide_rewards>  (16) 
-1.98943

>  <r_i_glide_evdw>  (16) 
-18.2941

>  <r_i_glide_ecoul>  (16) 
-4.48867

>  <r_i_glide_erotb>  (16) 
0.381762

>  <r_i_glide_esite>  (16) 
-0.0542018

>  <r_i_glide_emodel>  (16) 
-28.5273

>  <r_i_glide_energy>  (16) 
-22.7828

>  <r_i_glide_einternal>  (16) 
0.092856

>  <r_i_glide_intrahb_reward>  (16) 
-0

>  <i_i_glide_confnum>  (16) 
2

>  <i_i_glide_posenum>  (16) 
33

>  <r_i_glide_eff_state_penalty>  (16) 
0

>  <ligand_id>  (16) 
3

>  <original_smiles>  (16) 
CC1OC(=O)C2C1CCN2c1nc[nH]n1

>  <smiles>  (16) 
[H]c1nc(N2C([H])([H])C([H])([H])C3([H])C2([H])C(=O)OC3([H])C([H])([H])[H])nn1[H]

$$$$
3:1:2
     RDKit          3D

 27 29  0  0  1  0  0  0  0  0999 V2000
   -1.6420    4.0699    3.4697 C   0  0  0  0  0  0  0  0  0  0  0  0
   -1.7687    2.5463    3.5521 C   0  0  2  0  0  0  0  0  0  0  0  0
   -2.1714    2.1819    4.8825 O   0  0  0  0  0  0  0  0  0  0  0  0
   -1.6004    1.0392    5.3255 C   0  0  0  0  0  0  0  0  0  0  0  0
   -1.7412    0.5360    6.4411 O   0  0  0  0  0  0  0  0  0  0  0  0
   -0.8603    0.4987    4.1130 C   0  0  1  0  0  0  0  0  0  0  0  0
   -0.4426    1.7859    3.4814 C   0  0  1  0  0  0  0  0  0  0  0  0
    0.2612    1.2688    2.2302 C   0  0  0  0  0  0  0  0  0  0  0  0
    0.9090   -0.0432    2.7750 C   0  0  0  0  0  0  0  0  0  0  0  0
    0.3682   -0.2671    4.1324 N   0  0  0  0  0  0  0  0  0  0  0  0
    0.3474   -1.5993    4.6239 C   0  0  0  0  0  0  0  0  0  0  0  0
    1.2856   -2.5160    4.2224 N   0  0  0  0  0  0  0  0  0  0  0  0
    0.8955   -3.5696    4.9167 C   0  0  0  0  0  0  0  0  0  0  0  0
   -0.1687   -3.3377    5.6754 N   0  0  0  0  0  0  0  0  0  0  0  0
   -0.5609   -2.0592    5.4909 N   0  0  0  0  0  0  0  0  0  0  0  0
   -0.6422   -3.9844    6.2853 H   0  0  0  0  0  0  0  0  0  0  0  0
   -1.3215    4.3887    2.4819 H   0  0  0  0  0  0  0  0  0  0  0  0
   -0.9246    4.4518    4.1985 H   0  0  0  0  0  0  0  0  0  0  0  0
   -2.6036    4.5409    3.6639 H   0  0  0  0  0  0  0  0  0  0  0  0
   -2.4815    2.1669    2.8162 H   0  0  0  0  0  0  0  0  0  0  0  0
   -1.5722   -0.0239    3.4742 H   0  0  0  0  0  0  0  0  0  0  0  0
    0.2981    2.2906    4.1112 H   0  0  0  0  0  0  0  0  0  0  0  0
   -0.4553    1.0546    1.4366 H   0  0  0  0  0  0  0  0  0  0  0  0
    0.9945    1.9793    1.8405 H   0  0  0  0  0  0  0  0  0  0  0  0
    0.6586   -0.8785    2.1138 H   0  0  0  0  0  0  0  0  0  0  0  0
    1.9978    0.0324    2.8048 H   0  0  0  0  0  0  0  0  0  0  0  0
    1.3930   -4.5266    4.8610 H   0  0  0  0  0  0  0  0  0  0  0  0
  1  2  1  0
  1 17  1  0
  1 18  1  0
  1 19  1  0
  2  7  1  0
  2  3  1  0
  2 20  1  6
  3  4  1  0
  4  5  2  0
  4  6  1  0
  6 10  1  0
  6  7  1  0
  6 21  1  6
  7  8  1  0
  7 22  1  1
  8  9  1  0
  8 23  1  0
  8 24  1  0
  9 10  1  0
  9 25  1  0
  9 26  1  0
 10 11  1  0
 11 15  2  0
 11 12  1  0
 12 13  2  0
 13 14  1  0
 13 27  1  0
 14 16  1  0
 14 15  1  0
M  END
>  <i_m_ct_stereo_status>  (17) 
1

>  <s_m_source_file>  (17) 
/var/tmp/pbs.5076255.sched01/tmp7e7yg0hy/0s0dyhj_r.sdf

>  <i_m_source_file_index>  (17) 
7

>  <i_lp_mmshare_version>  (17) 
48012

>  <i_f3d_flags>  (17) 
0

>  <s_epik_input>  (17) 
Tz1DMU9bQ0BASF0oW0NIM10pW0NAQEhdKFtDQEhdMTIpW0NIMl1bQ0gyXU4yYzNuW2NIXVtuSF1uMw==

>  <s_epik_cmdline>  (17) 
J2VwaWtfcHl0aG9uJywgJy1waHQnLCAnMi4wJywgJy1waCcsICc3LjAnLCAnLXRuJywgJzgnLCAnLW1hJywgJzIwMCcsICctaW1hZScsICc8aW5maWxlLm1hZT4nLCAnLW9tYWUnLCAnPG91dGZpbGUubWFlPic=

>  <r_lp_tautomer_probability>  (17) 
0.147413

>  <r_epik_Ionization_Penalty>  (17) 
0.000531045

>  <r_epik_Ionization_Penalty_Charging>  (17) 
0

>  <r_epik_Ionization_Penalty_Neutral>  (17) 
0.000531045

>  <r_epik_State_Penalty>  (17) 
1.19281

>  <r_epik_Charging_Adjusted_Penalty>  (17) 
1.19281

>  <i_epik_Tot_Q>  (17) 
0

>  <i_epik_Tot_abs_Q>  (17) 
0

>  <s_epik_Chemistry_Notes>  (17) 
This compound has an ester and may undergo hydrolysis at high or low pH.

>  <s_lp_Force_Field>  (17) 
OPLS3e

>  <r_lp_Energy>  (17) 
25.1327

>  <b_lp_Chiralities_Consistent>  (17) 
1

>  <s_lp_Variant>  (17) 
3:0-2

>  <s_i_glide_gridfile>  (17) 
pfpi4k_grid

>  <i_i_glide_lignum>  (17) 
7

>  <i_i_glide_rotatable_bonds>  (17) 
1

>  <r_i_docking_score>  (17) 
-3.35396

>  <r_i_glide_ligand_efficiency>  (17) 
-0.223597

>  <r_i_glide_ligand_efficiency_sa>  (17) 
-0.551438

>  <r_i_glide_ligand_efficiency_ln>  (17) 
-0.904507

>  <r_i_glide_gscore>  (17) 
-3.35396

>  <r_i_glide_lipo>  (17) 
0

>  <r_i_glide_hbond>  (17) 
-0.16

>  <r_i_glide_metal>  (17) 
-0

>  <r_i_glide_rewards>  (17) 
-1.99823

>  <r_i_glide_evdw>  (17) 
-18.5845

>  <r_i_glide_ecoul>  (17) 
-3.95637

>  <r_i_glide_erotb>  (17) 
0.381762

>  <r_i_glide_esite>  (17) 
-0.0548053

>  <r_i_glide_emodel>  (17) 
-28.0725

>  <r_i_glide_energy>  (17) 
-22.5409

>  <r_i_glide_einternal>  (17) 
0.232143

>  <r_i_glide_intrahb_reward>  (17) 
-0

>  <i_i_glide_confnum>  (17) 
4

>  <i_i_glide_posenum>  (17) 
9

>  <r_i_glide_eff_state_penalty>  (17) 
0

>  <ligand_id>  (17) 
3

>  <original_smiles>  (17) 
CC1OC(=O)C2C1CCN2c1nc[nH]n1

>  <smiles>  (17) 
[H]c1nc(N2C([H])([H])C([H])([H])C3([H])C2([H])C(=O)OC3([H])C([H])([H])[H])nn1[H]

$$$$
4:0:0
     RDKit          3D

 50 53  0  0  1  0  0  0  0  0999 V2000
    5.9216   -6.9436    3.2444 C   0  0  0  0  0  0  0  0  0  0  0  0
    4.6780   -6.2951    2.6028 C   0  0  1  0  0  0  0  0  0  0  0  0
    4.9005   -4.7843    2.6814 C   0  0  0  0  0  0  0  0  0  0  0  0
    5.0100   -3.9550    1.6289 C   0  0  0  0  0  0  0  0  0  0  0  0
    4.9055   -4.4671    0.2550 C   0  0  0  0  0  0  0  0  0  0  0  0
    5.0200   -3.7192   -0.7132 O   0  0  0  0  0  0  0  0  0  0  0  0
    4.6774   -5.9155    0.0856 C   0  0  0  0  0  0  0  0  0  0  0  0
    4.5848   -6.7560    1.1440 C   0  0  0  0  0  0  0  0  0  0  0  0
    4.3457   -8.2444    0.9687 C   0  0  0  0  0  0  0  0  0  0  0  0
    3.1069   -8.6946    1.7592 C   0  0  0  0  0  0  0  0  0  0  0  0
    3.1266   -8.2446    3.2476 C   0  0  1  0  0  0  0  0  0  0  0  0
    3.3978   -6.7228    3.3785 C   0  0  2  0  0  0  0  0  0  0  0  0
    2.1169   -5.9355    2.9933 C   0  0  0  0  0  0  0  0  0  0  0  0
    0.9347   -6.2978    3.9179 C   0  0  0  0  0  0  0  0  0  0  0  0
    0.6397   -7.8149    4.0505 C   0  0  2  0  0  0  0  0  0  0  0  0
   -0.1311   -7.9980    5.3729 C   0  0  0  0  0  0  0  0  0  0  0  0
    1.9196   -8.6826    4.1331 C   0  0  1  0  0  0  0  0  0  0  0  0
    1.4138  -10.1019    3.8599 C   0  0  0  0  0  0  0  0  0  0  0  0
    0.2426   -9.9413    2.8798 C   0  0  0  0  0  0  0  0  0  0  0  0
   -0.2086   -8.4601    2.9145 C   0  0  1  0  0  0  0  0  0  0  0  0
   -1.7326   -8.2938    3.0477 C   0  0  0  0  0  0  0  0  0  0  0  0
    0.0781   -7.8575    1.6702 O   0  0  0  0  0  0  0  0  0  0  0  0
    6.8380   -6.6372    2.7337 H   0  0  0  0  0  0  0  0  0  0  0  0
    5.9036   -8.0343    3.2260 H   0  0  0  0  0  0  0  0  0  0  0  0
    6.0335   -6.6550    4.2925 H   0  0  0  0  0  0  0  0  0  0  0  0
    4.9876   -4.3656    3.6749 H   0  0  0  0  0  0  0  0  0  0  0  0
    5.1945   -2.8968    1.7671 H   0  0  0  0  0  0  0  0  0  0  0  0
    4.6003   -6.2843   -0.9262 H   0  0  0  0  0  0  0  0  0  0  0  0
    4.2260   -8.4856   -0.0872 H   0  0  0  0  0  0  0  0  0  0  0  0
    5.2331   -8.7923    1.2870 H   0  0  0  0  0  0  0  0  0  0  0  0
    2.2225   -8.3005    1.2569 H   0  0  0  0  0  0  0  0  0  0  0  0
    3.0426   -9.7788    1.6839 H   0  0  0  0  0  0  0  0  0  0  0  0
    3.9694   -8.7634    3.7010 H   0  0  0  0  0  0  0  0  0  0  0  0
    3.5684   -6.5003    4.4311 H   0  0  0  0  0  0  0  0  0  0  0  0
    2.2787   -4.8569    3.0752 H   0  0  0  0  0  0  0  0  0  0  0  0
    1.8552   -6.1059    1.9483 H   0  0  0  0  0  0  0  0  0  0  0  0
    1.1790   -5.8923    4.9038 H   0  0  0  0  0  0  0  0  0  0  0  0
    0.0353   -5.7640    3.6054 H   0  0  0  0  0  0  0  0  0  0  0  0
   -0.4669   -9.0209    5.5449 H   0  0  0  0  0  0  0  0  0  0  0  0
   -1.0121   -7.3632    5.3715 H   0  0  0  0  0  0  0  0  0  0  0  0
    0.4638   -7.7282    6.2555 H   0  0  0  0  0  0  0  0  0  0  0  0
    2.2983   -8.6428    5.1539 H   0  0  0  0  0  0  0  0  0  0  0  0
    2.1924  -10.7798    3.5113 H   0  0  0  0  0  0  0  0  0  0  0  0
    1.0451  -10.5397    4.7849 H   0  0  0  0  0  0  0  0  0  0  0  0
    0.5619  -10.2476    1.8832 H   0  0  0  0  0  0  0  0  0  0  0  0
   -0.5699  -10.6091    3.1697 H   0  0  0  0  0  0  0  0  0  0  0  0
   -2.1278   -8.7785    3.9410 H   0  0  0  0  0  0  0  0  0  0  0  0
   -2.2694   -8.7057    2.1812 H   0  0  0  0  0  0  0  0  0  0  0  0
   -2.0107   -7.2428    3.0996 H   0  0  0  0  0  0  0  0  0  0  0  0
   -0.0087   -8.5176    0.9848 H   0  0  0  0  0  0  0  0  0  0  0  0
  2  1  1  1
  1 23  1  0
  1 24  1  0
  1 25  1  0
  2  8  1  0
  2 12  1  0
  2  3  1  0
  3  4  2  0
  3 26  1  0
  4  5  1  0
  4 27  1  0
  5  6  2  0
  5  7  1  0
  7  8  2  0
  7 28  1  0
  8  9  1  0
  9 10  1  0
  9 29  1  0
  9 30  1  0
 10 11  1  0
 10 31  1  0
 10 32  1  0
 11 17  1  0
 11 12  1  0
 11 33  1  1
 12 13  1  0
 12 34  1  1
 13 14  1  0
 13 35  1  0
 13 36  1  0
 14 15  1  0
 14 37  1  0
 14 38  1  0
 15 20  1  0
 15 16  1  1
 15 17  1  0
 16 39  1  0
 16 40  1  0
 16 41  1  0
 17 18  1  0
 17 42  1  1
 18 19  1  0
 18 43  1  0
 18 44  1  0
 19 20  1  0
 19 45  1  0
 19 46  1  0
 20 21  1  0
 20 22  1  6
 21 47  1  0
 21 48  1  0
 21 49  1  0
 22 50  1  0
M  END
>  <i_m_ct_stereo_status>  (18) 
1

>  <s_m_source_file>  (18) 
/var/tmp/pbs.5076255.sched01/tmp7e7yg0hy/0s0dyhj_r.sdf

>  <i_m_source_file_index>  (18) 
8

>  <i_lp_mmshare_version>  (18) 
48012

>  <i_f3d_flags>  (18) 
0

>  <s_epik_input>  (18) 
W0NIXTE9W0NIXUMoPU8pW0NIXT1DKFtDQEBdMTJbQ0gzXSlbQ0gyXVtDSDJdW0NASF0zW0NAQEhdMltDSDJdW0NIMl1bQ0BdNChbQ0gzXSlbQ0BIXTNbQ0gyXVtDSDJdW0NAXTQoW0NIM10pW09IXQ==

>  <s_epik_cmdline>  (18) 
J2VwaWtfcHl0aG9uJywgJy1waHQnLCAnMi4wJywgJy1waCcsICc3LjAnLCAnLXRuJywgJzgnLCAnLW1hJywgJzIwMCcsICctaW1hZScsICc8aW5maWxlLm1hZT4nLCAnLW9tYWUnLCAnPG91dGZpbGUubWFlPic=

>  <r_lp_tautomer_probability>  (18) 
1

>  <r_epik_Ionization_Penalty>  (18) 
1.90486e-06

>  <r_epik_Ionization_Penalty_Charging>  (18) 
0

>  <r_epik_Ionization_Penalty_Neutral>  (18) 
1.90486e-06

>  <r_epik_State_Penalty>  (18) 
-0

>  <r_epik_Charging_Adjusted_Penalty>  (18) 
0

>  <i_epik_Tot_Q>  (18) 
0

>  <i_epik_Tot_abs_Q>  (18) 
0

>  <s_lp_Force_Field>  (18) 
OPLS3e

>  <r_lp_Energy>  (18) 
43.3979

>  <b_lp_Chiralities_Consistent>  (18) 
1

>  <s_lp_Variant>  (18) 
4:0-1

>  <s_i_glide_gridfile>  (18) 
pfpi4k_grid

>  <i_i_glide_lignum>  (18) 
8

>  <i_i_glide_rotatable_bonds>  (18) 
1

>  <r_i_docking_score>  (18) 
-3.91387

>  <r_i_glide_ligand_efficiency>  (18) 
-0.177903

>  <r_i_glide_ligand_efficiency_sa>  (18) 
-0.498492

>  <r_i_glide_ligand_efficiency_ln>  (18) 
-0.956693

>  <r_i_glide_gscore>  (18) 
-3.91387

>  <r_i_glide_lipo>  (18) 
-0.201178

>  <r_i_glide_hbond>  (18) 
-0.32

>  <r_i_glide_metal>  (18) 
-0

>  <r_i_glide_rewards>  (18) 
-1.42532

>  <r_i_glide_evdw>  (18) 
-25.6591

>  <r_i_glide_ecoul>  (18) 
-4.56278

>  <r_i_glide_erotb>  (18) 
0

>  <r_i_glide_esite>  (18) 
0

>  <r_i_glide_emodel>  (18) 
-37.1786

>  <r_i_glide_energy>  (18) 
-30.2219

>  <r_i_glide_einternal>  (18) 
0.539659

>  <r_i_glide_intrahb_reward>  (18) 
-0

>  <i_i_glide_confnum>  (18) 
1

>  <i_i_glide_posenum>  (18) 
10

>  <r_i_glide_eff_state_penalty>  (18) 
0

>  <ligand_id>  (18) 
4

>  <original_smiles>  (18) 
CC12C=CC(=O)C=C1CCC1C2CCC2(C)C1CCC2(C)O

>  <smiles>  (18) 
[H]OC1(C([H])([H])[H])C([H])([H])C([H])([H])C2([H])C3([H])C([H])([H])C([H])([H])C4=C([H])C(=O)C([H])=C([H])C4(C([H])([H])[H])C3([H])C([H])([H])C([H])([H])C21C([H])([H])[H]

$$$$
4:0:1
     RDKit          3D

 50 53  0  0  1  0  0  0  0  0999 V2000
    4.7707   -6.3946    3.6142 C   0  0  0  0  0  0  0  0  0  0  0  0
    3.8127   -5.9309    2.4977 C   0  0  1  0  0  0  0  0  0  0  0  0
    3.1685   -7.2018    1.9313 C   0  0  0  0  0  0  0  0  0  0  0  0
    1.8581   -7.5004    1.9717 C   0  0  0  0  0  0  0  0  0  0  0  0
    0.8972   -6.5583    2.5622 C   0  0  0  0  0  0  0  0  0  0  0  0
   -0.3197   -6.7765    2.5536 O   0  0  0  0  0  0  0  0  0  0  0  0
    1.4276   -5.3092    3.1349 C   0  0  0  0  0  0  0  0  0  0  0  0
    2.7481   -5.0154    3.1127 C   0  0  0  0  0  0  0  0  0  0  0  0
    3.2863   -3.7113    3.6826 C   0  0  0  0  0  0  0  0  0  0  0  0
    4.1058   -2.9547    2.6286 C   0  0  0  0  0  0  0  0  0  0  0  0
    5.1956   -3.8279    1.9368 C   0  0  1  0  0  0  0  0  0  0  0  0
    4.6043   -5.1583    1.3967 C   0  0  2  0  0  0  0  0  0  0  0  0
    3.8038   -4.8698    0.1013 C   0  0  0  0  0  0  0  0  0  0  0  0
    4.7031   -4.2543   -0.9945 C   0  0  0  0  0  0  0  0  0  0  0  0
    5.5326   -3.0146   -0.5724 C   0  0  2  0  0  0  0  0  0  0  0  0
    6.7437   -2.9366   -1.5460 C   0  0  0  0  0  0  0  0  0  0  0  0
    6.0943   -3.1306    0.8679 C   0  0  1  0  0  0  0  0  0  0  0  0
    6.4875   -1.6889    1.2178 C   0  0  0  0  0  0  0  0  0  0  0  0
    5.4666   -0.7900    0.5036 C   0  0  0  0  0  0  0  0  0  0  0  0
    4.7781   -1.6455   -0.5926 C   0  0  1  0  0  0  0  0  0  0  0  0
    4.6987   -0.9608   -1.9659 C   0  0  0  0  0  0  0  0  0  0  0  0
    3.4233   -1.8154   -0.2442 O   0  0  0  0  0  0  0  0  0  0  0  0
    4.2348   -6.9562    4.3783 H   0  0  0  0  0  0  0  0  0  0  0  0
    5.2713   -5.5749    4.1278 H   0  0  0  0  0  0  0  0  0  0  0  0
    5.5547   -7.0423    3.2269 H   0  0  0  0  0  0  0  0  0  0  0  0
    3.8434   -7.9170    1.4801 H   0  0  0  0  0  0  0  0  0  0  0  0
    1.4856   -8.4397    1.5765 H   0  0  0  0  0  0  0  0  0  0  0  0
    0.7166   -4.6230    3.5718 H   0  0  0  0  0  0  0  0  0  0  0  0
    2.4605   -3.0792    4.0097 H   0  0  0  0  0  0  0  0  0  0  0  0
    3.8792   -3.9220    4.5754 H   0  0  0  0  0  0  0  0  0  0  0  0
    3.3853   -2.5742    1.9146 H   0  0  0  0  0  0  0  0  0  0  0  0
    4.5581   -2.0894    3.1106 H   0  0  0  0  0  0  0  0  0  0  0  0
    5.9092   -4.0854    2.7173 H   0  0  0  0  0  0  0  0  0  0  0  0
    5.4325   -5.7978    1.0867 H   0  0  0  0  0  0  0  0  0  0  0  0
    3.3787   -5.7889   -0.3097 H   0  0  0  0  0  0  0  0  0  0  0  0
    2.9449   -4.2308    0.3075 H   0  0  0  0  0  0  0  0  0  0  0  0
    5.3830   -5.0504   -1.3062 H   0  0  0  0  0  0  0  0  0  0  0  0
    4.1047   -4.0216   -1.8800 H   0  0  0  0  0  0  0  0  0  0  0  0
    7.3532   -2.0514   -1.3811 H   0  0  0  0  0  0  0  0  0  0  0  0
    6.4309   -2.9113   -2.5931 H   0  0  0  0  0  0  0  0  0  0  0  0
    7.4229   -3.7818   -1.4426 H   0  0  0  0  0  0  0  0  0  0  0  0
    7.0000   -3.7401    0.8341 H   0  0  0  0  0  0  0  0  0  0  0  0
    6.5620   -1.5084    2.2887 H   0  0  0  0  0  0  0  0  0  0  0  0
    7.4852   -1.4884    0.8290 H   0  0  0  0  0  0  0  0  0  0  0  0
    4.7486   -0.3914    1.2239 H   0  0  0  0  0  0  0  0  0  0  0  0
    5.9895    0.0706    0.0874 H   0  0  0  0  0  0  0  0  0  0  0  0
    5.6800   -0.6839   -2.3374 H   0  0  0  0  0  0  0  0  0  0  0  0
    4.1257   -0.0408   -1.9381 H   0  0  0  0  0  0  0  0  0  0  0  0
    4.2236   -1.6065   -2.6988 H   0  0  0  0  0  0  0  0  0  0  0  0
    2.9030   -1.0641   -0.4817 H   0  0  0  0  0  0  0  0  0  0  0  0
  2  1  1  1
  1 23  1  0
  1 24  1  0
  1 25  1  0
  2  8  1  0
  2 12  1  0
  2  3  1  0
  3  4  2  0
  3 26  1  0
  4  5  1  0
  4 27  1  0
  5  6  2  0
  5  7  1  0
  7  8  2  0
  7 28  1  0
  8  9  1  0
  9 10  1  0
  9 29  1  0
  9 30  1  0
 10 11  1  0
 10 31  1  0
 10 32  1  0
 11 17  1  0
 11 12  1  0
 11 33  1  1
 12 13  1  0
 12 34  1  6
 13 14  1  0
 13 35  1  0
 13 36  1  0
 14 15  1  0
 14 37  1  0
 14 38  1  0
 15 20  1  0
 15 16  1  6
 15 17  1  0
 16 39  1  0
 16 40  1  0
 16 41  1  0
 17 18  1  0
 17 42  1  6
 18 19  1  0
 18 43  1  0
 18 44  1  0
 19 20  1  0
 19 45  1  0
 19 46  1  0
 20 21  1  0
 20 22  1  1
 21 47  1  0
 21 48  1  0
 21 49  1  0
 22 50  1  0
M  END
>  <i_m_ct_stereo_status>  (19) 
1

>  <s_m_source_file>  (19) 
/var/tmp/pbs.5076255.sched01/tmp7e7yg0hy/0s0dyhj_r.sdf

>  <i_m_source_file_index>  (19) 
8

>  <i_lp_mmshare_version>  (19) 
48012

>  <i_f3d_flags>  (19) 
0

>  <s_epik_input>  (19) 
W0NIXTE9W0NIXUMoPU8pW0NIXT1DKFtDQEBdMTJbQ0gzXSlbQ0gyXVtDSDJdW0NASF0zW0NAQEhdMltDSDJdW0NIMl1bQ0BdNChbQ0gzXSlbQ0BIXTNbQ0gyXVtDSDJdW0NAXTQoW0NIM10pW09IXQ==

>  <s_epik_cmdline>  (19) 
J2VwaWtfcHl0aG9uJywgJy1waHQnLCAnMi4wJywgJy1waCcsICc3LjAnLCAnLXRuJywgJzgnLCAnLW1hJywgJzIwMCcsICctaW1hZScsICc8aW5maWxlLm1hZT4nLCAnLW9tYWUnLCAnPG91dGZpbGUubWFlPic=

>  <r_lp_tautomer_probability>  (19) 
1

>  <r_epik_Ionization_Penalty>  (19) 
1.90486e-06

>  <r_epik_Ionization_Penalty_Charging>  (19) 
0

>  <r_epik_Ionization_Penalty_Neutral>  (19) 
1.90486e-06

>  <r_epik_State_Penalty>  (19) 
-0

>  <r_epik_Charging_Adjusted_Penalty>  (19) 
0

>  <i_epik_Tot_Q>  (19) 
0

>  <i_epik_Tot_abs_Q>  (19) 
0

>  <s_lp_Force_Field>  (19) 
OPLS3e

>  <r_lp_Energy>  (19) 
43.3979

>  <b_lp_Chiralities_Consistent>  (19) 
1

>  <s_lp_Variant>  (19) 
4:0-1

>  <s_i_glide_gridfile>  (19) 
pfpi4k_grid

>  <i_i_glide_lignum>  (19) 
8

>  <i_i_glide_rotatable_bonds>  (19) 
1

>  <r_i_docking_score>  (19) 
-3.68184

>  <r_i_glide_ligand_efficiency>  (19) 
-0.167357

>  <r_i_glide_ligand_efficiency_sa>  (19) 
-0.46894

>  <r_i_glide_ligand_efficiency_ln>  (19) 
-0.899977

>  <r_i_glide_gscore>  (19) 
-3.68184

>  <r_i_glide_lipo>  (19) 
-0.437734

>  <r_i_glide_hbond>  (19) 
-0.211401

>  <r_i_glide_metal>  (19) 
-0

>  <r_i_glide_rewards>  (19) 
-1.36067

>  <r_i_glide_evdw>  (19) 
-23.8512

>  <r_i_glide_ecoul>  (19) 
-2.84675

>  <r_i_glide_erotb>  (19) 
0

>  <r_i_glide_esite>  (19) 
-0.0524694

>  <r_i_glide_emodel>  (19) 
-33.4025

>  <r_i_glide_energy>  (19) 
-26.6979

>  <r_i_glide_einternal>  (19) 
0.379

>  <r_i_glide_intrahb_reward>  (19) 
-0

>  <i_i_glide_confnum>  (19) 
1

>  <i_i_glide_posenum>  (19) 
2

>  <r_i_glide_eff_state_penalty>  (19) 
0

>  <ligand_id>  (19) 
4

>  <original_smiles>  (19) 
CC12C=CC(=O)C=C1CCC1C2CCC2(C)C1CCC2(C)O

>  <smiles>  (19) 
[H]OC1(C([H])([H])[H])C([H])([H])C([H])([H])C2([H])C3([H])C([H])([H])C([H])([H])C4=C([H])C(=O)C([H])=C([H])C4(C([H])([H])[H])C3([H])C([H])([H])C([H])([H])C21C([H])([H])[H]

$$$$
6:0:0
     RDKit          3D

 44 47  0  0  1  0  0  0  0  0999 V2000
    3.6801   -2.0261   -2.9434 C   0  0  0  0  0  0  0  0  0  0  0  0
    3.8474   -1.7908   -1.4487 C   0  0  0  0  0  0  0  0  0  0  0  0
    3.1131   -2.3901   -0.4917 C   0  0  0  0  0  0  0  0  0  0  0  0
    2.9324   -3.8704   -0.6603 C   0  0  0  0  0  0  0  0  0  0  0  0
    4.3526   -4.4678   -0.4621 C   0  0  0  0  0  0  0  0  0  0  0  0
    5.2449   -3.5540    0.4487 C   0  0  1  0  0  0  0  0  0  0  0  0
    6.0604   -2.3959   -0.2810 C   0  0  2  0  0  0  0  0  0  0  0  0
    7.0745   -3.0336   -1.2602 C   0  0  0  0  0  0  0  0  0  0  0  0
    6.8903   -1.6743    0.8089 C   0  0  0  0  0  0  0  0  0  0  0  0
    6.0310   -1.0655    1.9356 C   0  0  0  0  0  0  0  0  0  0  0  0
    5.1325   -2.1275    2.5578 C   0  0  1  0  0  0  0  0  0  0  0  0
    4.2627   -1.5148    3.4991 O   0  0  0  0  0  0  0  0  0  0  0  0
    3.3812   -2.4309    4.1370 C   0  0  0  0  0  0  0  0  0  0  0  0
    4.1283   -3.2780    5.1903 C   0  0  0  0  0  0  0  0  0  0  0  0
    2.3006   -1.5691    4.8066 C   0  0  0  0  0  0  0  0  0  0  0  0
    2.6989   -3.2549    3.1968 O   0  0  0  0  0  0  0  0  0  0  0  0
    3.7149   -3.9296    2.3071 O   0  0  0  0  0  0  0  0  0  0  0  0
    4.3160   -2.9178    1.5146 C   0  0  2  0  0  0  0  0  0  0  0  0
    3.3641   -2.0839    0.8358 O   0  0  0  0  0  0  0  0  0  0  0  0
    5.2172   -1.2987   -1.0518 C   0  0  0  0  0  0  0  0  0  0  0  0
    3.5311   -1.0655   -3.4338 H   0  0  0  0  0  0  0  0  0  0  0  0
    2.8031   -2.6246   -3.1727 H   0  0  0  0  0  0  0  0  0  0  0  0
    4.5532   -2.5023   -3.3862 H   0  0  0  0  0  0  0  0  0  0  0  0
    2.2391   -4.2421    0.0987 H   0  0  0  0  0  0  0  0  0  0  0  0
    2.5092   -4.1284   -1.6323 H   0  0  0  0  0  0  0  0  0  0  0  0
    4.2487   -5.4585   -0.0210 H   0  0  0  0  0  0  0  0  0  0  0  0
    4.8242   -4.6301   -1.4297 H   0  0  0  0  0  0  0  0  0  0  0  0
    5.9598   -4.2098    0.9535 H   0  0  0  0  0  0  0  0  0  0  0  0
    7.7973   -2.3033   -1.6312 H   0  0  0  0  0  0  0  0  0  0  0  0
    6.5828   -3.4656   -2.1348 H   0  0  0  0  0  0  0  0  0  0  0  0
    7.6427   -3.8266   -0.7677 H   0  0  0  0  0  0  0  0  0  0  0  0
    7.5694   -2.4020    1.2502 H   0  0  0  0  0  0  0  0  0  0  0  0
    7.5174   -0.8941    0.3780 H   0  0  0  0  0  0  0  0  0  0  0  0
    6.6785   -0.6566    2.7110 H   0  0  0  0  0  0  0  0  0  0  0  0
    5.4316   -0.2261    1.5895 H   0  0  0  0  0  0  0  0  0  0  0  0
    5.7819   -2.8326    3.0792 H   0  0  0  0  0  0  0  0  0  0  0  0
    4.8506   -3.9610    4.7463 H   0  0  0  0  0  0  0  0  0  0  0  0
    3.4405   -3.8797    5.7848 H   0  0  0  0  0  0  0  0  0  0  0  0
    4.6726   -2.6318    5.8794 H   0  0  0  0  0  0  0  0  0  0  0  0
    1.7671   -0.9845    4.0555 H   0  0  0  0  0  0  0  0  0  0  0  0
    2.7415   -0.8732    5.5217 H   0  0  0  0  0  0  0  0  0  0  0  0
    1.5712   -2.1830    5.3365 H   0  0  0  0  0  0  0  0  0  0  0  0
    5.7568   -0.9369   -1.9311 H   0  0  0  0  0  0  0  0  0  0  0  0
    5.0424   -0.4073   -0.4530 H   0  0  0  0  0  0  0  0  0  0  0  0
  1  2  1  0
  1 21  1  0
  1 22  1  0
  1 23  1  0
  2 20  1  0
  2  3  2  0
  3 19  1  0
  3  4  1  0
  4  5  1  0
  4 24  1  0
  4 25  1  0
  5  6  1  0
  5 26  1  0
  5 27  1  0
  6 18  1  0
  6  7  1  0
  6 28  1  1
  7  8  1  6
  7  9  1  0
  7 20  1  0
  8 29  1  0
  8 30  1  0
  8 31  1  0
  9 10  1  0
  9 32  1  0
  9 33  1  0
 10 11  1  0
 10 34  1  0
 10 35  1  0
 11 18  1  0
 11 12  1  0
 11 36  1  1
 12 13  1  0
 13 14  1  0
 13 15  1  0
 13 16  1  0
 14 37  1  0
 14 38  1  0
 14 39  1  0
 15 40  1  0
 15 41  1  0
 15 42  1  0
 16 17  1  0
 18 17  1  1
 18 19  1  0
 20 43  1  0
 20 44  1  0
M  END
>  <i_m_ct_stereo_status>  (20) 
1

>  <s_m_source_file>  (20) 
/var/tmp/pbs.5076255.sched01/tmp7e7yg0hy/0s0dyhj_r.sdf

>  <i_m_source_file_index>  (20) 
10

>  <i_lp_mmshare_version>  (20) 
48012

>  <i_f3d_flags>  (20) 
0

>  <s_epik_input>  (20) 
W0NIMl0xW0NIMl1DKE8yKT1DKFtDSDNdKVtDSDJdW0NAQF0oW0NASF0xW0NAXTIzNCkoW0NIM10pW0NIMl1bQ0gyXVtDQEhdM09DKFtDSDNdKShbQ0gzXSlPTzQ=

>  <s_epik_cmdline>  (20) 
J2VwaWtfcHl0aG9uJywgJy1waHQnLCAnMi4wJywgJy1waCcsICc3LjAnLCAnLXRuJywgJzgnLCAnLW1hJywgJzIwMCcsICctaW1hZScsICc8aW5maWxlLm1hZT4nLCAnLW9tYWUnLCAnPG91dGZpbGUubWFlPic=

>  <r_lp_tautomer_probability>  (20) 
1

>  <r_epik_Ionization_Penalty>  (20) 
4.47298e-15

>  <r_epik_Ionization_Penalty_Charging>  (20) 
0

>  <r_epik_Ionization_Penalty_Neutral>  (20) 
4.47298e-15

>  <r_epik_State_Penalty>  (20) 
-0

>  <r_epik_Charging_Adjusted_Penalty>  (20) 
0

>  <i_epik_Tot_Q>  (20) 
0

>  <i_epik_Tot_abs_Q>  (20) 
0

>  <s_lp_Force_Field>  (20) 
OPLS3e

>  <r_lp_Energy>  (20) 
67.7138

>  <b_lp_Chiralities_Consistent>  (20) 
1

>  <s_lp_Variant>  (20) 
6:0-1

>  <s_i_glide_gridfile>  (20) 
pfpi4k_grid

>  <i_i_glide_lignum>  (20) 
10

>  <i_i_glide_rotatable_bonds>  (20) 
0

>  <r_i_docking_score>  (20) 
-2.66441

>  <r_i_glide_ligand_efficiency>  (20) 
-0.133221

>  <r_i_glide_ligand_efficiency_sa>  (20) 
-0.361616

>  <r_i_glide_ligand_efficiency_ln>  (20) 
-0.666814

>  <r_i_glide_gscore>  (20) 
-2.66441

>  <r_i_glide_lipo>  (20) 
-0.295311

>  <r_i_glide_hbond>  (20) 
0

>  <r_i_glide_metal>  (20) 
-0

>  <r_i_glide_rewards>  (20) 
-1.51343

>  <r_i_glide_evdw>  (20) 
-20.0418

>  <r_i_glide_ecoul>  (20) 
0.976143

>  <r_i_glide_erotb>  (20) 
0

>  <r_i_glide_esite>  (20) 
0

>  <r_i_glide_emodel>  (20) 
-21.3564

>  <r_i_glide_energy>  (20) 
-19.0657

>  <r_i_glide_einternal>  (20) 
0

>  <r_i_glide_intrahb_reward>  (20) 
-0

>  <i_i_glide_confnum>  (20) 
1

>  <i_i_glide_posenum>  (20) 
1

>  <r_i_glide_eff_state_penalty>  (20) 
0

>  <ligand_id>  (20) 
6

>  <original_smiles>  (20) 
CC1=C2CCC3C(C)(CCC4OC(C)(C)OOC43O2)C1

>  <smiles>  (20) 
[H]C([H])([H])C1=C2OC34OOC(C([H])([H])[H])(C([H])([H])[H])OC3([H])C([H])([H])C([H])([H])C(C([H])([H])[H])(C1([H])[H])C4([H])C([H])([H])C2([H])[H]

$$$$
6:0:1
     RDKit          3D

 44 47  0  0  1  0  0  0  0  0999 V2000
    4.4148   -0.5715   -2.5070 C   0  0  0  0  0  0  0  0  0  0  0  0
    4.2067   -1.3228   -1.2035 C   0  0  0  0  0  0  0  0  0  0  0  0
    3.3449   -2.3255   -1.0745 C   0  0  0  0  0  0  0  0  0  0  0  0
    3.4150   -3.3195   -2.1974 C   0  0  0  0  0  0  0  0  0  0  0  0
    4.8185   -3.9557   -2.0846 C   0  0  0  0  0  0  0  0  0  0  0  0
    5.3284   -3.9513   -0.6116 C   0  0  1  0  0  0  0  0  0  0  0  0
    6.1503   -2.6824   -0.2000 C   0  0  2  0  0  0  0  0  0  0  0  0
    7.4401   -2.6086   -1.0605 C   0  0  0  0  0  0  0  0  0  0  0  0
    6.6078   -2.8747    1.2527 C   0  0  0  0  0  0  0  0  0  0  0  0
    5.4466   -3.0974    2.2450 C   0  0  0  0  0  0  0  0  0  0  0  0
    4.5666   -4.2457    1.7969 C   0  0  1  0  0  0  0  0  0  0  0  0
    3.4460   -4.3323    2.6579 O   0  0  0  0  0  0  0  0  0  0  0  0
    2.5751   -5.3925    2.3245 C   0  0  0  0  0  0  0  0  0  0  0  0
    3.1450   -6.7574    2.7437 C   0  0  0  0  0  0  0  0  0  0  0  0
    1.2880   -5.1124    3.1187 C   0  0  0  0  0  0  0  0  0  0  0  0
    2.2002   -5.3784    0.9499 O   0  0  0  0  0  0  0  0  0  0  0  0
    3.4849   -5.3624    0.0957 O   0  0  0  0  0  0  0  0  0  0  0  0
    4.0983   -4.1111    0.3311 C   0  0  2  0  0  0  0  0  0  0  0  0
    3.2486   -2.9949    0.1465 O   0  0  0  0  0  0  0  0  0  0  0  0
    5.3963   -1.2841   -0.2716 C   0  0  0  0  0  0  0  0  0  0  0  0
    4.2658    0.4858   -2.3193 H   0  0  0  0  0  0  0  0  0  0  0  0
    3.6865   -0.8290   -3.2861 H   0  0  0  0  0  0  0  0  0  0  0  0
    5.4066   -0.7177   -2.8758 H   0  0  0  0  0  0  0  0  0  0  0  0
    2.5898   -4.0237   -2.0289 H   0  0  0  0  0  0  0  0  0  0  0  0
    3.2507   -2.8861   -3.1900 H   0  0  0  0  0  0  0  0  0  0  0  0
    4.7683   -4.9819   -2.4244 H   0  0  0  0  0  0  0  0  0  0  0  0
    5.5249   -3.4901   -2.7658 H   0  0  0  0  0  0  0  0  0  0  0  0
    5.9757   -4.8342   -0.4789 H   0  0  0  0  0  0  0  0  0  0  0  0
    8.1324   -1.8640   -0.6693 H   0  0  0  0  0  0  0  0  0  0  0  0
    7.2264   -2.3488   -2.1013 H   0  0  0  0  0  0  0  0  0  0  0  0
    7.9686   -3.5685   -1.0640 H   0  0  0  0  0  0  0  0  0  0  0  0
    7.2776   -3.7411    1.3101 H   0  0  0  0  0  0  0  0  0  0  0  0
    7.1669   -1.9986    1.5581 H   0  0  0  0  0  0  0  0  0  0  0  0
    5.8167   -3.3268    3.2460 H   0  0  0  0  0  0  0  0  0  0  0  0
    4.8454   -2.1903    2.3835 H   0  0  0  0  0  0  0  0  0  0  0  0
    5.1622   -5.1626    1.8951 H   0  0  0  0  0  0  0  0  0  0  0  0
    4.0214   -7.0367    2.1647 H   0  0  0  0  0  0  0  0  0  0  0  0
    2.4083   -7.5551    2.6188 H   0  0  0  0  0  0  0  0  0  0  0  0
    3.4330   -6.7444    3.7925 H   0  0  0  0  0  0  0  0  0  0  0  0
    0.8824   -4.1305    2.8439 H   0  0  0  0  0  0  0  0  0  0  0  0
    1.4700   -5.0811    4.1967 H   0  0  0  0  0  0  0  0  0  0  0  0
    0.5281   -5.8656    2.9225 H   0  0  0  0  0  0  0  0  0  0  0  0
    6.0786   -0.4719   -0.5324 H   0  0  0  0  0  0  0  0  0  0  0  0
    4.9853   -0.9940    0.6883 H   0  0  0  0  0  0  0  0  0  0  0  0
  1  2  1  0
  1 21  1  0
  1 22  1  0
  1 23  1  0
  2 20  1  0
  2  3  2  0
  3 19  1  0
  3  4  1  0
  4  5  1  0
  4 24  1  0
  4 25  1  0
  5  6  1  0
  5 26  1  0
  5 27  1  0
  6 18  1  0
  6  7  1  0
  6 28  1  6
  7  8  1  6
  7  9  1  0
  7 20  1  0
  8 29  1  0
  8 30  1  0
  8 31  1  0
  9 10  1  0
  9 32  1  0
  9 33  1  0
 10 11  1  0
 10 34  1  0
 10 35  1  0
 11 18  1  0
 11 12  1  0
 11 36  1  6
 12 13  1  0
 13 14  1  0
 13 15  1  0
 13 16  1  0
 14 37  1  0
 14 38  1  0
 14 39  1  0
 15 40  1  0
 15 41  1  0
 15 42  1  0
 16 17  1  0
 18 17  1  6
 18 19  1  0
 20 43  1  0
 20 44  1  0
M  END
>  <i_m_ct_stereo_status>  (21) 
1

>  <s_m_source_file>  (21) 
/var/tmp/pbs.5076255.sched01/tmp7e7yg0hy/0s0dyhj_r.sdf

>  <i_m_source_file_index>  (21) 
10

>  <i_lp_mmshare_version>  (21) 
48012

>  <i_f3d_flags>  (21) 
0

>  <s_epik_input>  (21) 
W0NIMl0xW0NIMl1DKE8yKT1DKFtDSDNdKVtDSDJdW0NAQF0oW0NASF0xW0NAXTIzNCkoW0NIM10pW0NIMl1bQ0gyXVtDQEhdM09DKFtDSDNdKShbQ0gzXSlPTzQ=

>  <s_epik_cmdline>  (21) 
J2VwaWtfcHl0aG9uJywgJy1waHQnLCAnMi4wJywgJy1waCcsICc3LjAnLCAnLXRuJywgJzgnLCAnLW1hJywgJzIwMCcsICctaW1hZScsICc8aW5maWxlLm1hZT4nLCAnLW9tYWUnLCAnPG91dGZpbGUubWFlPic=

>  <r_lp_tautomer_probability>  (21) 
1

>  <r_epik_Ionization_Penalty>  (21) 
4.47298e-15

>  <r_epik_Ionization_Penalty_Charging>  (21) 
0

>  <r_epik_Ionization_Penalty_Neutral>  (21) 
4.47298e-15

>  <r_epik_State_Penalty>  (21) 
-0

>  <r_epik_Charging_Adjusted_Penalty>  (21) 
0

>  <i_epik_Tot_Q>  (21) 
0

>  <i_epik_Tot_abs_Q>  (21) 
0

>  <s_lp_Force_Field>  (21) 
OPLS3e

>  <r_lp_Energy>  (21) 
67.7138

>  <b_lp_Chiralities_Consistent>  (21) 
1

>  <s_lp_Variant>  (21) 
6:0-1

>  <s_i_glide_gridfile>  (21) 
pfpi4k_grid

>  <i_i_glide_lignum>  (21) 
10

>  <i_i_glide_rotatable_bonds>  (21) 
0

>  <r_i_docking_score>  (21) 
-2.57692

>  <r_i_glide_ligand_efficiency>  (21) 
-0.128846

>  <r_i_glide_ligand_efficiency_sa>  (21) 
-0.349742

>  <r_i_glide_ligand_efficiency_ln>  (21) 
-0.644918

>  <r_i_glide_gscore>  (21) 
-2.57692

>  <r_i_glide_lipo>  (21) 
-0.230046

>  <r_i_glide_hbond>  (21) 
-0.010142

>  <r_i_glide_metal>  (21) 
-0

>  <r_i_glide_rewards>  (21) 
-1.52663

>  <r_i_glide_evdw>  (21) 
-16.8777

>  <r_i_glide_ecoul>  (21) 
0.287293

>  <r_i_glide_erotb>  (21) 
0

>  <r_i_glide_esite>  (21) 
-0.00931371

>  <r_i_glide_emodel>  (21) 
-18.7635

>  <r_i_glide_energy>  (21) 
-16.5904

>  <r_i_glide_einternal>  (21) 
0

>  <r_i_glide_intrahb_reward>  (21) 
-0

>  <i_i_glide_confnum>  (21) 
2

>  <i_i_glide_posenum>  (21) 
28

>  <r_i_glide_eff_state_penalty>  (21) 
0

>  <ligand_id>  (21) 
6

>  <original_smiles>  (21) 
CC1=C2CCC3C(C)(CCC4OC(C)(C)OOC43O2)C1

>  <smiles>  (21) 
[H]C([H])([H])C1=C2OC34OOC(C([H])([H])[H])(C([H])([H])[H])OC3([H])C([H])([H])C([H])([H])C(C([H])([H])[H])(C1([H])[H])C4([H])C([H])([H])C2([H])[H]

$$$$
6:0:2
     RDKit          3D

 44 47  0  0  1  0  0  0  0  0999 V2000
    4.0660   -1.5032   -2.8826 C   0  0  0  0  0  0  0  0  0  0  0  0
    3.8977   -1.5178   -1.3719 C   0  0  0  0  0  0  0  0  0  0  0  0
    3.0266   -2.2872   -0.6910 C   0  0  0  0  0  0  0  0  0  0  0  0
    2.9797   -3.7242   -1.1205 C   0  0  0  0  0  0  0  0  0  0  0  0
    4.3575   -4.2983   -0.7069 C   0  0  0  0  0  0  0  0  0  0  0  0
    4.9617   -3.5206    0.5097 C   0  0  1  0  0  0  0  0  0  0  0  0
    5.8309   -2.2340    0.1565 C   0  0  2  0  0  0  0  0  0  0  0  0
    7.0781   -2.6705   -0.6497 C   0  0  0  0  0  0  0  0  0  0  0  0
    6.3472   -1.6628    1.4930 C   0  0  0  0  0  0  0  0  0  0  0  0
    5.2387   -1.2806    2.4925 C   0  0  0  0  0  0  0  0  0  0  0  0
    4.3004   -2.4614    2.7300 C   0  0  1  0  0  0  0  0  0  0  0  0
    3.2045   -2.0357    3.5265 O   0  0  0  0  0  0  0  0  0  0  0  0
    2.2676   -3.0725    3.8073 C   0  0  0  0  0  0  0  0  0  0  0  0
    2.8250   -4.0536    4.8616 C   0  0  0  0  0  0  0  0  0  0  0  0
    1.0128   -2.3671    4.3362 C   0  0  0  0  0  0  0  0  0  0  0  0
    1.8634   -3.7522    2.6219 O   0  0  0  0  0  0  0  0  0  0  0  0
    3.0979   -4.2474    1.9009 O   0  0  0  0  0  0  0  0  0  0  0  0
    3.7912   -3.1024    1.4270 C   0  0  2  0  0  0  0  0  0  0  0  0
    2.9642   -2.1898    0.6863 O   0  0  0  0  0  0  0  0  0  0  0  0
    5.1110   -1.0572   -0.6070 C   0  0  0  0  0  0  0  0  0  0  0  0
    3.9627   -0.4806   -3.2410 H   0  0  0  0  0  0  0  0  0  0  0  0
    3.3008   -2.0816   -3.3897 H   0  0  0  0  0  0  0  0  0  0  0  0
    5.0409   -1.8756   -3.1858 H   0  0  0  0  0  0  0  0  0  0  0  0
    2.1588   -4.2364   -0.6169 H   0  0  0  0  0  0  0  0  0  0  0  0
    2.8102   -3.8192   -2.1916 H   0  0  0  0  0  0  0  0  0  0  0  0
    4.2248   -5.3503   -0.4586 H   0  0  0  0  0  0  0  0  0  0  0  0
    5.0360   -4.2846   -1.5598 H   0  0  0  0  0  0  0  0  0  0  0  0
    5.5977   -4.2252    1.0530 H   0  0  0  0  0  0  0  0  0  0  0  0
    7.8164   -1.8675   -0.7170 H   0  0  0  0  0  0  0  0  0  0  0  0
    6.8259   -2.9732   -1.6692 H   0  0  0  0  0  0  0  0  0  0  0  0
    7.5774   -3.5149   -0.1690 H   0  0  0  0  0  0  0  0  0  0  0  0
    6.9579   -2.4346    1.9552 H   0  0  0  0  0  0  0  0  0  0  0  0
    6.9996   -0.8049    1.3261 H   0  0  0  0  0  0  0  0  0  0  0  0
    5.6845   -0.9884    3.4438 H   0  0  0  0  0  0  0  0  0  0  0  0
    4.6717   -0.4110    2.1640 H   0  0  0  0  0  0  0  0  0  0  0  0
    4.8671   -3.2173    3.2753 H   0  0  0  0  0  0  0  0  0  0  0  0
    3.6694   -4.6303    4.4921 H   0  0  0  0  0  0  0  0  0  0  0  0
    2.0680   -4.7672    5.1869 H   0  0  0  0  0  0  0  0  0  0  0  0
    3.1628   -3.5126    5.7457 H   0  0  0  0  0  0  0  0  0  0  0  0
    0.6160   -1.6868    3.5810 H   0  0  0  0  0  0  0  0  0  0  0  0
    1.2347   -1.7796    5.2287 H   0  0  0  0  0  0  0  0  0  0  0  0
    0.2248   -3.0803    4.5870 H   0  0  0  0  0  0  0  0  0  0  0  0
    5.8024   -0.5364   -1.2746 H   0  0  0  0  0  0  0  0  0  0  0  0
    4.7510   -0.2803    0.0650 H   0  0  0  0  0  0  0  0  0  0  0  0
  1  2  1  0
  1 21  1  0
  1 22  1  0
  1 23  1  0
  2 20  1  0
  2  3  2  0
  3 19  1  0
  3  4  1  0
  4  5  1  0
  4 24  1  0
  4 25  1  0
  5  6  1  0
  5 26  1  0
  5 27  1  0
  6 18  1  0
  6  7  1  0
  6 28  1  1
  7  8  1  6
  7  9  1  0
  7 20  1  0
  8 29  1  0
  8 30  1  0
  8 31  1  0
  9 10  1  0
  9 32  1  0
  9 33  1  0
 10 11  1  0
 10 34  1  0
 10 35  1  0
 11 18  1  0
 11 12  1  0
 11 36  1  1
 12 13  1  0
 13 14  1  0
 13 15  1  0
 13 16  1  0
 14 37  1  0
 14 38  1  0
 14 39  1  0
 15 40  1  0
 15 41  1  0
 15 42  1  0
 16 17  1  0
 18 17  1  1
 18 19  1  0
 20 43  1  0
 20 44  1  0
M  END
>  <i_m_ct_stereo_status>  (22) 
1

>  <s_m_source_file>  (22) 
/var/tmp/pbs.5076255.sched01/tmp7e7yg0hy/0s0dyhj_r.sdf

>  <i_m_source_file_index>  (22) 
10

>  <i_lp_mmshare_version>  (22) 
48012

>  <i_f3d_flags>  (22) 
0

>  <s_epik_input>  (22) 
W0NIMl0xW0NIMl1DKE8yKT1DKFtDSDNdKVtDSDJdW0NAQF0oW0NASF0xW0NAXTIzNCkoW0NIM10pW0NIMl1bQ0gyXVtDQEhdM09DKFtDSDNdKShbQ0gzXSlPTzQ=

>  <s_epik_cmdline>  (22) 
J2VwaWtfcHl0aG9uJywgJy1waHQnLCAnMi4wJywgJy1waCcsICc3LjAnLCAnLXRuJywgJzgnLCAnLW1hJywgJzIwMCcsICctaW1hZScsICc8aW5maWxlLm1hZT4nLCAnLW9tYWUnLCAnPG91dGZpbGUubWFlPic=

>  <r_lp_tautomer_probability>  (22) 
1

>  <r_epik_Ionization_Penalty>  (22) 
4.47298e-15

>  <r_epik_Ionization_Penalty_Charging>  (22) 
0

>  <r_epik_Ionization_Penalty_Neutral>  (22) 
4.47298e-15

>  <r_epik_State_Penalty>  (22) 
-0

>  <r_epik_Charging_Adjusted_Penalty>  (22) 
0

>  <i_epik_Tot_Q>  (22) 
0

>  <i_epik_Tot_abs_Q>  (22) 
0

>  <s_lp_Force_Field>  (22) 
OPLS3e

>  <r_lp_Energy>  (22) 
67.7138

>  <b_lp_Chiralities_Consistent>  (22) 
1

>  <s_lp_Variant>  (22) 
6:0-1

>  <s_i_glide_gridfile>  (22) 
pfpi4k_grid

>  <i_i_glide_lignum>  (22) 
10

>  <i_i_glide_rotatable_bonds>  (22) 
0

>  <r_i_docking_score>  (22) 
-2.52913

>  <r_i_glide_ligand_efficiency>  (22) 
-0.126456

>  <r_i_glide_ligand_efficiency_sa>  (22) 
-0.343255

>  <r_i_glide_ligand_efficiency_ln>  (22) 
-0.632957

>  <r_i_glide_gscore>  (22) 
-2.52913

>  <r_i_glide_lipo>  (22) 
-0.328698

>  <r_i_glide_hbond>  (22) 
0

>  <r_i_glide_metal>  (22) 
-0

>  <r_i_glide_rewards>  (22) 
-1.50047

>  <r_i_glide_evdw>  (22) 
-17.6514

>  <r_i_glide_ecoul>  (22) 
1.21738

>  <r_i_glide_erotb>  (22) 
0

>  <r_i_glide_esite>  (22) 
0

>  <r_i_glide_emodel>  (22) 
-18.6534

>  <r_i_glide_energy>  (22) 
-16.434

>  <r_i_glide_einternal>  (22) 
0

>  <r_i_glide_intrahb_reward>  (22) 
-0

>  <i_i_glide_confnum>  (22) 
1

>  <i_i_glide_posenum>  (22) 
22

>  <r_i_glide_eff_state_penalty>  (22) 
0

>  <ligand_id>  (22) 
6

>  <original_smiles>  (22) 
CC1=C2CCC3C(C)(CCC4OC(C)(C)OOC43O2)C1

>  <smiles>  (22) 
[H]C([H])([H])C1=C2OC34OOC(C([H])([H])[H])(C([H])([H])[H])OC3([H])C([H])([H])C([H])([H])C(C([H])([H])[H])(C1([H])[H])C4([H])C([H])([H])C2([H])[H]

$$$$
7:0:0
     RDKit          3D

 80 85  0  0  1  0  0  0  0  0999 V2000
    4.7469   -2.8893    1.6628 C   0  0  0  0  0  0  0  0  0  0  0  0
    4.8000   -3.9601    0.5603 C   0  0  2  0  0  0  0  0  0  0  0  0
    3.5115   -3.9914   -0.2667 C   0  0  0  0  0  0  0  0  0  0  0  0
    2.6182   -4.9683    0.4962 C   0  0  1  0  0  0  0  0  0  0  0  0
    1.5673   -5.4579   -0.3217 O   0  0  0  0  0  0  0  0  0  0  0  0
    3.5728   -6.0756    1.0098 C   0  0  1  0  0  0  0  0  0  0  0  0
    4.9105   -5.3562    1.1485 C   0  0  0  0  0  0  0  0  0  0  0  0
    6.0834   -5.8164    1.6456 C   0  0  0  0  0  0  0  0  0  0  0  0
    6.4277   -7.1798    2.2360 C   0  0  1  0  0  0  0  0  0  0  0  0
    7.9484   -7.4160    2.1372 C   0  0  0  0  0  0  0  0  0  0  0  0
    5.9194   -7.3780    3.6914 C   0  0  1  0  0  0  0  0  0  0  0  0
    6.1906   -6.0655    4.5223 C   0  0  0  0  0  0  0  0  0  0  0  0
    6.3878   -6.3423    5.9936 C   0  0  0  0  0  0  0  0  0  0  0  0
    5.3944   -7.0157    6.5576 C   0  0  0  0  0  0  0  0  0  0  0  0
    4.9573   -7.6216    7.6773 O   0  0  0  0  0  0  0  0  0  0  0  0
    4.1422   -7.6108    6.3610 C   0  0  1  0  0  0  0  0  0  0  0  0
    3.1263   -6.4910    6.2676 C   0  0  0  0  0  0  0  0  0  0  0  0
    4.2068   -8.8091    5.3678 C   0  0  1  0  0  0  0  0  0  0  0  0
    5.3864   -9.7384    5.8422 C   0  0  0  0  0  0  0  0  0  0  0  0
    2.9434   -9.8163    5.4648 C   0  0  1  0  0  0  0  0  0  0  0  0
    1.7167   -9.4177    6.3406 C   0  0  1  0  0  0  0  0  0  0  0  0
    1.9523   -9.1865    7.8527 C   0  0  0  0  0  0  0  0  0  0  0  0
    0.6550   -8.5565    5.6043 C   0  0  1  0  0  0  0  0  0  0  0  0
    0.2533   -7.4242    6.3495 O   0  0  0  0  0  0  0  0  0  0  0  0
    0.9556   -8.2268    4.0948 C   0  0  0  0  0  0  0  0  0  0  0  0
    2.1024   -9.0184    3.3312 C   0  0  2  0  0  0  0  0  0  0  0  0
    2.4221  -10.3403    4.0918 C   0  0  0  0  0  0  0  0  0  0  0  0
    3.4078  -11.3674    3.4592 C   0  0  0  0  0  0  0  0  0  0  0  0
    1.1432  -11.2481    4.1224 C   0  0  0  0  0  0  0  0  0  0  0  0
    3.3914   -8.2218    2.7846 C   0  0  1  0  0  0  0  0  0  0  0  0
    3.7779   -9.0325    1.4736 C   0  0  0  0  0  0  0  0  0  0  0  0
    2.9852   -6.7655    2.2937 C   0  0  1  0  0  0  0  0  0  0  0  0
    3.0767   -5.8116    3.3295 O   0  0  0  0  0  0  0  0  0  0  0  0
    4.5816   -8.2785    3.8723 C   0  0  1  0  0  0  0  0  0  0  0  0
    5.6691   -2.8755    2.2383 H   0  0  0  0  0  0  0  0  0  0  0  0
    3.9267   -3.0705    2.3558 H   0  0  0  0  0  0  0  0  0  0  0  0
    4.6047   -1.8936    1.2375 H   0  0  0  0  0  0  0  0  0  0  0  0
    5.6490   -3.7607   -0.0908 H   0  0  0  0  0  0  0  0  0  0  0  0
    3.0468   -3.0121   -0.4054 H   0  0  0  0  0  0  0  0  0  0  0  0
    3.7475   -4.3773   -1.2545 H   0  0  0  0  0  0  0  0  0  0  0  0
    2.1764   -4.4406    1.3364 H   0  0  0  0  0  0  0  0  0  0  0  0
    1.9425   -5.6437   -1.1785 H   0  0  0  0  0  0  0  0  0  0  0  0
    3.6675   -6.7423    0.1607 H   0  0  0  0  0  0  0  0  0  0  0  0
    6.9124   -5.1298    1.6206 H   0  0  0  0  0  0  0  0  0  0  0  0
    6.0481   -7.9546    1.6004 H   0  0  0  0  0  0  0  0  0  0  0  0
    8.2898   -7.3528    1.1012 H   0  0  0  0  0  0  0  0  0  0  0  0
    8.2163   -8.4132    2.4874 H   0  0  0  0  0  0  0  0  0  0  0  0
    8.5302   -6.7019    2.7195 H   0  0  0  0  0  0  0  0  0  0  0  0
    6.6819   -8.0351    4.1042 H   0  0  0  0  0  0  0  0  0  0  0  0
    7.1181   -5.5799    4.1962 H   0  0  0  0  0  0  0  0  0  0  0  0
    5.3999   -5.3226    4.4106 H   0  0  0  0  0  0  0  0  0  0  0  0
    7.2733   -6.0471    6.5164 H   0  0  0  0  0  0  0  0  0  0  0  0
    2.4149   -6.6915    5.4951 H   0  0  0  0  0  0  0  0  0  0  0  0
    3.5890   -5.5445    5.9935 H   0  0  0  0  0  0  0  0  0  0  0  0
    2.6083   -6.3199    7.2057 H   0  0  0  0  0  0  0  0  0  0  0  0
    5.4843  -10.6397    5.2411 H   0  0  0  0  0  0  0  0  0  0  0  0
    5.2314  -10.0769    6.8709 H   0  0  0  0  0  0  0  0  0  0  0  0
    6.3655   -9.2696    5.8252 H   0  0  0  0  0  0  0  0  0  0  0  0
    3.2761  -10.7280    5.9703 H   0  0  0  0  0  0  0  0  0  0  0  0
    1.1880  -10.3637    6.4427 H   0  0  0  0  0  0  0  0  0  0  0  0
    2.6949   -9.8947    8.2314 H   0  0  0  0  0  0  0  0  0  0  0  0
    1.0427   -9.3651    8.4230 H   0  0  0  0  0  0  0  0  0  0  0  0
    2.2975   -8.1979    8.1200 H   0  0  0  0  0  0  0  0  0  0  0  0
   -0.2707   -9.1328    5.6149 H   0  0  0  0  0  0  0  0  0  0  0  0
    0.0385   -7.7194    7.2170 H   0  0  0  0  0  0  0  0  0  0  0  0
    0.0238   -8.4409    3.5723 H   0  0  0  0  0  0  0  0  0  0  0  0
    1.0339   -7.1517    3.9805 H   0  0  0  0  0  0  0  0  0  0  0  0
    1.5572   -9.3276    2.4373 H   0  0  0  0  0  0  0  0  0  0  0  0
    3.1098  -11.6225    2.4432 H   0  0  0  0  0  0  0  0  0  0  0  0
    3.4025  -12.3062    4.0169 H   0  0  0  0  0  0  0  0  0  0  0  0
    4.4481  -11.0819    3.4269 H   0  0  0  0  0  0  0  0  0  0  0  0
    0.9538  -11.7138    3.1506 H   0  0  0  0  0  0  0  0  0  0  0  0
    0.2125  -10.7454    4.3497 H   0  0  0  0  0  0  0  0  0  0  0  0
    1.2433  -12.0612    4.8461 H   0  0  0  0  0  0  0  0  0  0  0  0
    4.3664   -8.5180    0.7310 H   0  0  0  0  0  0  0  0  0  0  0  0
    2.9127   -9.3722    0.9010 H   0  0  0  0  0  0  0  0  0  0  0  0
    4.3843   -9.9174    1.6492 H   0  0  0  0  0  0  0  0  0  0  0  0
    1.9303   -6.8444    2.0442 H   0  0  0  0  0  0  0  0  0  0  0  0
    3.9784   -5.7648    3.5969 H   0  0  0  0  0  0  0  0  0  0  0  0
    5.0726   -9.1707    3.5150 H   0  0  0  0  0  0  0  0  0  0  0  0
  1  2  1  0
  1 35  1  0
  1 36  1  0
  1 37  1  0
  2  7  1  0
  2  3  1  0
  2 38  1  6
  3  4  1  0
  3 39  1  0
  3 40  1  0
  4  5  1  0
  4  6  1  0
  4 41  1  1
  5 42  1  0
  6 32  1  0
  6  7  1  0
  6 43  1  6
  7  8  2  3
  8  9  1  0
  8 44  1  0
  9 10  1  0
  9 11  1  0
  9 45  1  6
 10 46  1  0
 10 47  1  0
 10 48  1  0
 11 34  1  0
 11 12  1  0
 11 49  1  1
 12 13  1  0
 12 50  1  0
 12 51  1  0
 13 14  2  0
 13 52  1  0
 14 16  1  0
 14 15  1  0
 15 16  1  0
 16 17  1  1
 16 18  1  0
 17 53  1  0
 17 54  1  0
 17 55  1  0
 18 34  1  0
 18 19  1  1
 18 20  1  0
 19 56  1  0
 19 57  1  0
 19 58  1  0
 20 27  1  0
 20 21  1  0
 20 59  1  1
 21 22  1  0
 21 23  1  0
 21 60  1  1
 22 61  1  0
 22 62  1  0
 22 63  1  0
 23 24  1  0
 23 25  1  0
 23 64  1  6
 24 65  1  0
 25 26  1  0
 25 66  1  0
 25 67  1  0
 26 27  1  0
 26 30  1  0
 26 68  1  6
 27 28  1  0
 27 29  1  0
 28 69  1  0
 28 70  1  0
 28 71  1  0
 29 72  1  0
 29 73  1  0
 29 74  1  0
 30 31  1  6
 30 32  1  0
 30 34  1  0
 31 75  1  0
 31 76  1  0
 31 77  1  0
 32 33  1  0
 32 78  1  6
 33 79  1  0
 34 80  1  6
M  END
>  <i_m_ct_stereo_status>  (23) 
1

>  <s_m_source_file>  (23) 
/var/tmp/pbs.5076255.sched01/tmp7e7yg0hy/0s0dyhj_r.sdf

>  <i_m_source_file_index>  (23) 
11

>  <i_lp_mmshare_version>  (23) 
48012

>  <i_f3d_flags>  (23) 
0

>  <s_epik_input>  (23) 
W09IXVtDQEBIXTFbQ0gyXVtDQEBIXShbQ0gzXSkvQyg9W0NIXS9bQ0BIXTJbQ0gzXSlbQ0BIXTFbQ0BIXShbT0hdKVtDQF0zKFtDSDNdKVtDQEBIXShDNChbQ0gzXSlbQ0gzXSlbQ0gyXVtDQEhdKFtPSF0pW0NASF0oW0NIM10pW0NAQEhdNFtDQEBdNShbQ0gzXSlbQ0BASF0zW0NAQEhdMltDSDJdW0NIXT1DKE82KUM1NltDSDNd

>  <s_epik_cmdline>  (23) 
J2VwaWtfcHl0aG9uJywgJy1waHQnLCAnMi4wJywgJy1waCcsICc3LjAnLCAnLXRuJywgJzgnLCAnLW1hJywgJzIwMCcsICctaW1hZScsICc8aW5maWxlLm1hZT4nLCAnLW9tYWUnLCAnPG91dGZpbGUubWFlPic=

>  <r_lp_tautomer_probability>  (23) 
1

>  <r_epik_Ionization_Penalty>  (23) 
2.9039e-06

>  <r_epik_Ionization_Penalty_Charging>  (23) 
0

>  <r_epik_Ionization_Penalty_Neutral>  (23) 
2.9039e-06

>  <r_epik_State_Penalty>  (23) 
-0

>  <r_epik_Charging_Adjusted_Penalty>  (23) 
0

>  <i_epik_Tot_Q>  (23) 
0

>  <i_epik_Tot_abs_Q>  (23) 
0

>  <s_lp_Force_Field>  (23) 
OPLS3e

>  <r_lp_Energy>  (23) 
164.928

>  <b_lp_Chiralities_Consistent>  (23) 
1

>  <s_lp_Variant>  (23) 
7:0-1

>  <s_i_glide_gridfile>  (23) 
pfpi4k_grid

>  <i_i_glide_lignum>  (23) 
11

>  <i_i_glide_rotatable_bonds>  (23) 
3

>  <r_i_docking_score>  (23) 
-3.53913

>  <r_i_glide_ligand_efficiency>  (23) 
-0.104092

>  <r_i_glide_ligand_efficiency_sa>  (23) 
-0.337218

>  <r_i_glide_ligand_efficiency_ln>  (23) 
-0.781892

>  <r_i_glide_gscore>  (23) 
-3.53913

>  <r_i_glide_lipo>  (23) 
-0.422908

>  <r_i_glide_hbond>  (23) 
-0.503631

>  <r_i_glide_metal>  (23) 
-0

>  <r_i_glide_rewards>  (23) 
-0.199883

>  <r_i_glide_evdw>  (23) 
-27.6951

>  <r_i_glide_ecoul>  (23) 
-6.85299

>  <r_i_glide_erotb>  (23) 
0

>  <r_i_glide_esite>  (23) 
0

>  <r_i_glide_emodel>  (23) 
-42.2739

>  <r_i_glide_energy>  (23) 
-34.5481

>  <r_i_glide_einternal>  (23) 
0.685028

>  <r_i_glide_intrahb_reward>  (23) 
-0

>  <i_i_glide_confnum>  (23) 
2

>  <i_i_glide_posenum>  (23) 
31

>  <r_i_glide_eff_state_penalty>  (23) 
0

>  <ligand_id>  (23) 
7

>  <original_smiles>  (23) 
CC1CC(O)C2C1=CC(C)C1CC=C3OC3(C)C3(C)C4C(C)C(O)CC(C4(C)C)C(C)(C2O)C13

>  <smiles>  (23) 
[H]OC1([H])C([H])([H])C([H])(C([H])([H])[H])C2=C([H])C([H])(C([H])([H])[H])C3([H])C([H])([H])C([H])=C4OC4(C([H])([H])[H])C4(C([H])([H])[H])C5([H])C([H])(C([H])([H])[H])C([H])(O[H])C([H])([H])C([H])(C5(C([H])([H])[H])C([H])([H])[H])C(C([H])([H])[H])(C([H])(O[H])C21[H])C34[H]

$$$$
7:0:1
     RDKit          3D

 80 85  0  0  1  0  0  0  0  0999 V2000
    4.7360   -2.8770    1.6638 C   0  0  0  0  0  0  0  0  0  0  0  0
    4.7949   -3.9506    0.5659 C   0  0  2  0  0  0  0  0  0  0  0  0
    3.5063   -3.9868   -0.2625 C   0  0  0  0  0  0  0  0  0  0  0  0
    2.6162   -4.9687    0.5018 C   0  0  1  0  0  0  0  0  0  0  0  0
    1.5653   -5.4633   -0.3096 O   0  0  0  0  0  0  0  0  0  0  0  0
    3.5767   -6.0713    1.0172 C   0  0  1  0  0  0  0  0  0  0  0  0
    4.9141   -5.3438    1.1541 C   0  0  0  0  0  0  0  0  0  0  0  0
    6.0851   -5.8014    1.6517 C   0  0  0  0  0  0  0  0  0  0  0  0
    6.4373   -7.1622    2.2427 C   0  0  1  0  0  0  0  0  0  0  0  0
    7.9579   -7.3903    2.1448 C   0  0  0  0  0  0  0  0  0  0  0  0
    5.9261   -7.3631    3.6990 C   0  0  1  0  0  0  0  0  0  0  0  0
    6.1901   -6.0494    4.5311 C   0  0  0  0  0  0  0  0  0  0  0  0
    6.3848   -6.3247    6.0027 C   0  0  0  0  0  0  0  0  0  0  0  0
    5.3968   -6.9992    6.5641 C   0  0  0  0  0  0  0  0  0  0  0  0
    4.9616   -7.6085    7.6827 O   0  0  0  0  0  0  0  0  0  0  0  0
    4.1468   -7.6033    6.3668 C   0  0  1  0  0  0  0  0  0  0  0  0
    3.1243   -6.4881    6.2718 C   0  0  0  0  0  0  0  0  0  0  0  0
    4.2180   -8.8015    5.3709 C   0  0  1  0  0  0  0  0  0  0  0  0
    5.3999   -9.7236    5.8513 C   0  0  0  0  0  0  0  0  0  0  0  0
    2.9578   -9.8145    5.4682 C   0  0  1  0  0  0  0  0  0  0  0  0
    1.7287   -9.4207    6.3419 C   0  0  1  0  0  0  0  0  0  0  0  0
    1.9624   -9.1905    7.8543 C   0  0  0  0  0  0  0  0  0  0  0  0
    0.6634   -8.5669    5.6028 C   0  0  1  0  0  0  0  0  0  0  0  0
    0.2626   -7.4330    6.3469 O   0  0  0  0  0  0  0  0  0  0  0  0
    0.9653   -8.2339    4.0965 C   0  0  0  0  0  0  0  0  0  0  0  0
    2.1178   -9.0196    3.3313 C   0  0  2  0  0  0  0  0  0  0  0  0
    2.4414  -10.3395    4.0931 C   0  0  0  0  0  0  0  0  0  0  0  0
    3.4314  -11.3617    3.4632 C   0  0  0  0  0  0  0  0  0  0  0  0
    1.1649  -11.2544    4.1224 C   0  0  0  0  0  0  0  0  0  0  0  0
    3.4042   -8.2184    2.7894 C   0  0  1  0  0  0  0  0  0  0  0  0
    3.7948   -9.0266    1.4781 C   0  0  0  0  0  0  0  0  0  0  0  0
    2.9919   -6.7627    2.2976 C   0  0  1  0  0  0  0  0  0  0  0  0
    3.0699   -5.8081    3.3351 O   0  0  0  0  0  0  0  0  0  0  0  0
    4.5936   -8.2695    3.8768 C   0  0  1  0  0  0  0  0  0  0  0  0
    5.6570   -2.8629    2.2446 H   0  0  0  0  0  0  0  0  0  0  0  0
    3.9150   -3.0617    2.3562 H   0  0  0  0  0  0  0  0  0  0  0  0
    4.5946   -1.8819    1.2403 H   0  0  0  0  0  0  0  0  0  0  0  0
    5.6443   -3.7470   -0.0856 H   0  0  0  0  0  0  0  0  0  0  0  0
    3.0394   -3.0128   -0.4022 H   0  0  0  0  0  0  0  0  0  0  0  0
    3.7443   -4.3745   -1.2515 H   0  0  0  0  0  0  0  0  0  0  0  0
    2.1770   -4.4385    1.3453 H   0  0  0  0  0  0  0  0  0  0  0  0
    1.9431   -5.6597   -1.1679 H   0  0  0  0  0  0  0  0  0  0  0  0
    3.6759   -6.7353    0.1664 H   0  0  0  0  0  0  0  0  0  0  0  0
    6.9128   -5.1084    1.6288 H   0  0  0  0  0  0  0  0  0  0  0  0
    6.0598   -7.9382    1.6066 H   0  0  0  0  0  0  0  0  0  0  0  0
    8.3010   -7.3243    1.1113 H   0  0  0  0  0  0  0  0  0  0  0  0
    8.2305   -8.3865    2.4962 H   0  0  0  0  0  0  0  0  0  0  0  0
    8.5343   -6.6734    2.7300 H   0  0  0  0  0  0  0  0  0  0  0  0
    6.6925   -8.0161    4.1129 H   0  0  0  0  0  0  0  0  0  0  0  0
    7.1090   -5.5539    4.2007 H   0  0  0  0  0  0  0  0  0  0  0  0
    5.3834   -5.3201    4.4055 H   0  0  0  0  0  0  0  0  0  0  0  0
    7.2739   -6.0220    6.5221 H   0  0  0  0  0  0  0  0  0  0  0  0
    2.4098   -6.7002    5.5107 H   0  0  0  0  0  0  0  0  0  0  0  0
    3.5830   -5.5392    5.9949 H   0  0  0  0  0  0  0  0  0  0  0  0
    2.6101   -6.3181    7.2140 H   0  0  0  0  0  0  0  0  0  0  0  0
    5.5021  -10.6266    5.2498 H   0  0  0  0  0  0  0  0  0  0  0  0
    5.2468  -10.0620    6.8781 H   0  0  0  0  0  0  0  0  0  0  0  0
    6.3784   -9.2514    5.8321 H   0  0  0  0  0  0  0  0  0  0  0  0
    3.2951  -10.7230    5.9740 H   0  0  0  0  0  0  0  0  0  0  0  0
    1.2044  -10.3696    6.4402 H   0  0  0  0  0  0  0  0  0  0  0  0
    2.7058   -9.8938    8.2330 H   0  0  0  0  0  0  0  0  0  0  0  0
    1.0514   -9.3699    8.4227 H   0  0  0  0  0  0  0  0  0  0  0  0
    2.3029   -8.1992    8.1228 H   0  0  0  0  0  0  0  0  0  0  0  0
   -0.2609   -9.1464    5.6152 H   0  0  0  0  0  0  0  0  0  0  0  0
    0.0610   -7.7257    7.2180 H   0  0  0  0  0  0  0  0  0  0  0  0
    0.0365   -8.4570    3.5717 H   0  0  0  0  0  0  0  0  0  0  0  0
    1.0282   -7.1576    3.9785 H   0  0  0  0  0  0  0  0  0  0  0  0
    1.5747   -9.3326    2.4377 H   0  0  0  0  0  0  0  0  0  0  0  0
    3.1375  -11.6190    2.4476 H   0  0  0  0  0  0  0  0  0  0  0  0
    3.4304  -12.2998    4.0204 H   0  0  0  0  0  0  0  0  0  0  0  0
    4.4729  -11.0726    3.4331 H   0  0  0  0  0  0  0  0  0  0  0  0
    0.9834  -11.7227    3.1531 H   0  0  0  0  0  0  0  0  0  0  0  0
    0.2264  -10.7568    4.3461 H   0  0  0  0  0  0  0  0  0  0  0  0
    1.2681  -12.0642    4.8483 H   0  0  0  0  0  0  0  0  0  0  0  0
    4.3820   -8.5080    0.7370 H   0  0  0  0  0  0  0  0  0  0  0  0
    2.9354   -9.3726    0.9047 H   0  0  0  0  0  0  0  0  0  0  0  0
    4.4074   -9.9072    1.6556 H   0  0  0  0  0  0  0  0  0  0  0  0
    1.9379   -6.8524    2.0447 H   0  0  0  0  0  0  0  0  0  0  0  0
    2.6786   -6.1762    4.1036 H   0  0  0  0  0  0  0  0  0  0  0  0
    5.0891   -9.1594    3.5214 H   0  0  0  0  0  0  0  0  0  0  0  0
  1  2  1  0
  1 35  1  0
  1 36  1  0
  1 37  1  0
  2  7  1  0
  2  3  1  0
  2 38  1  6
  3  4  1  0
  3 39  1  0
  3 40  1  0
  4  5  1  0
  4  6  1  0
  4 41  1  1
  5 42  1  0
  6 32  1  0
  6  7  1  0
  6 43  1  6
  7  8  2  3
  8  9  1  0
  8 44  1  0
  9 10  1  0
  9 11  1  0
  9 45  1  6
 10 46  1  0
 10 47  1  0
 10 48  1  0
 11 34  1  0
 11 12  1  0
 11 49  1  1
 12 13  1  0
 12 50  1  0
 12 51  1  0
 13 14  2  0
 13 52  1  0
 14 16  1  0
 14 15  1  0
 15 16  1  0
 16 17  1  1
 16 18  1  0
 17 53  1  0
 17 54  1  0
 17 55  1  0
 18 34  1  0
 18 19  1  1
 18 20  1  0
 19 56  1  0
 19 57  1  0
 19 58  1  0
 20 27  1  0
 20 21  1  0
 20 59  1  1
 21 22  1  0
 21 23  1  0
 21 60  1  1
 22 61  1  0
 22 62  1  0
 22 63  1  0
 23 24  1  0
 23 25  1  0
 23 64  1  6
 24 65  1  0
 25 26  1  0
 25 66  1  0
 25 67  1  0
 26 27  1  0
 26 30  1  0
 26 68  1  6
 27 28  1  0
 27 29  1  0
 28 69  1  0
 28 70  1  0
 28 71  1  0
 29 72  1  0
 29 73  1  0
 29 74  1  0
 30 31  1  6
 30 32  1  0
 30 34  1  0
 31 75  1  0
 31 76  1  0
 31 77  1  0
 32 33  1  0
 32 78  1  6
 33 79  1  0
 34 80  1  6
M  END
>  <i_m_ct_stereo_status>  (24) 
1

>  <s_m_source_file>  (24) 
/var/tmp/pbs.5076255.sched01/tmp7e7yg0hy/0s0dyhj_r.sdf

>  <i_m_source_file_index>  (24) 
11

>  <i_lp_mmshare_version>  (24) 
48012

>  <i_f3d_flags>  (24) 
0

>  <s_epik_input>  (24) 
W09IXVtDQEBIXTFbQ0gyXVtDQEBIXShbQ0gzXSkvQyg9W0NIXS9bQ0BIXTJbQ0gzXSlbQ0BIXTFbQ0BIXShbT0hdKVtDQF0zKFtDSDNdKVtDQEBIXShDNChbQ0gzXSlbQ0gzXSlbQ0gyXVtDQEhdKFtPSF0pW0NASF0oW0NIM10pW0NAQEhdNFtDQEBdNShbQ0gzXSlbQ0BASF0zW0NAQEhdMltDSDJdW0NIXT1DKE82KUM1NltDSDNd

>  <s_epik_cmdline>  (24) 
J2VwaWtfcHl0aG9uJywgJy1waHQnLCAnMi4wJywgJy1waCcsICc3LjAnLCAnLXRuJywgJzgnLCAnLW1hJywgJzIwMCcsICctaW1hZScsICc8aW5maWxlLm1hZT4nLCAnLW9tYWUnLCAnPG91dGZpbGUubWFlPic=

>  <r_lp_tautomer_probability>  (24) 
1

>  <r_epik_Ionization_Penalty>  (24) 
2.9039e-06

>  <r_epik_Ionization_Penalty_Charging>  (24) 
0

>  <r_epik_Ionization_Penalty_Neutral>  (24) 
2.9039e-06

>  <r_epik_State_Penalty>  (24) 
-0

>  <r_epik_Charging_Adjusted_Penalty>  (24) 
0

>  <i_epik_Tot_Q>  (24) 
0

>  <i_epik_Tot_abs_Q>  (24) 
0

>  <s_lp_Force_Field>  (24) 
OPLS3e

>  <r_lp_Energy>  (24) 
164.928

>  <b_lp_Chiralities_Consistent>  (24) 
1

>  <s_lp_Variant>  (24) 
7:0-1

>  <s_i_glide_gridfile>  (24) 
pfpi4k_grid

>  <i_i_glide_lignum>  (24) 
11

>  <i_i_glide_rotatable_bonds>  (24) 
3

>  <r_i_docking_score>  (24) 
-3.53012

>  <r_i_glide_ligand_efficiency>  (24) 
-0.103827

>  <r_i_glide_ligand_efficiency_sa>  (24) 
-0.336359

>  <r_i_glide_ligand_efficiency_ln>  (24) 
-0.779903

>  <r_i_glide_gscore>  (24) 
-3.53012

>  <r_i_glide_lipo>  (24) 
-0.417722

>  <r_i_glide_hbond>  (24) 
-0.503196

>  <r_i_glide_metal>  (24) 
-0

>  <r_i_glide_rewards>  (24) 
-0.199883

>  <r_i_glide_evdw>  (24) 
-27.6256

>  <r_i_glide_ecoul>  (24) 
-6.8536

>  <r_i_glide_erotb>  (24) 
0

>  <r_i_glide_esite>  (24) 
0

>  <r_i_glide_emodel>  (24) 
-42.0148

>  <r_i_glide_energy>  (24) 
-34.4792

>  <r_i_glide_einternal>  (24) 
1.038

>  <r_i_glide_intrahb_reward>  (24) 
-0

>  <i_i_glide_confnum>  (24) 
1

>  <i_i_glide_posenum>  (24) 
38

>  <r_i_glide_eff_state_penalty>  (24) 
0

>  <ligand_id>  (24) 
7

>  <original_smiles>  (24) 
CC1CC(O)C2C1=CC(C)C1CC=C3OC3(C)C3(C)C4C(C)C(O)CC(C4(C)C)C(C)(C2O)C13

>  <smiles>  (24) 
[H]OC1([H])C([H])([H])C([H])(C([H])([H])[H])C2=C([H])C([H])(C([H])([H])[H])C3([H])C([H])([H])C([H])=C4OC4(C([H])([H])[H])C4(C([H])([H])[H])C5([H])C([H])(C([H])([H])[H])C([H])(O[H])C([H])([H])C([H])(C5(C([H])([H])[H])C([H])([H])[H])C(C([H])([H])[H])(C([H])(O[H])C21[H])C34[H]

$$$$
7:0:2
     RDKit          3D

 80 85  0  0  1  0  0  0  0  0999 V2000
    5.0298   -2.3334    1.7304 C   0  0  0  0  0  0  0  0  0  0  0  0
    5.1668   -3.4283    0.6570 C   0  0  2  0  0  0  0  0  0  0  0  0
    4.0318   -3.3710   -0.3742 C   0  0  0  0  0  0  0  0  0  0  0  0
    2.9423   -4.2490    0.2406 C   0  0  1  0  0  0  0  0  0  0  0  0
    1.9733   -4.6586   -0.7178 O   0  0  0  0  0  0  0  0  0  0  0  0
    3.7021   -5.4229    0.9216 C   0  0  1  0  0  0  0  0  0  0  0  0
    5.0653   -4.8174    1.2661 C   0  0  0  0  0  0  0  0  0  0  0  0
    6.0961   -5.3639    1.9462 C   0  0  0  0  0  0  0  0  0  0  0  0
    6.2328   -6.7405    2.5973 C   0  0  1  0  0  0  0  0  0  0  0  0
    7.7273   -7.1080    2.7389 C   0  0  0  0  0  0  0  0  0  0  0  0
    5.4780   -6.8666    3.9540 C   0  0  1  0  0  0  0  0  0  0  0  0
    5.7219   -5.5668    4.8092 C   0  0  0  0  0  0  0  0  0  0  0  0
    5.6591   -5.8288    6.2966 C   0  0  0  0  0  0  0  0  0  0  0  0
    4.5377   -6.4023    6.6945 C   0  0  0  0  0  0  0  0  0  0  0  0
    3.8746   -6.9481    7.7337 O   0  0  0  0  0  0  0  0  0  0  0  0
    3.2804   -6.8984    6.3058 C   0  0  1  0  0  0  0  0  0  0  0  0
    2.3912   -5.7000    6.0437 C   0  0  0  0  0  0  0  0  0  0  0  0
    3.4012   -8.1176    5.3415 C   0  0  1  0  0  0  0  0  0  0  0  0
    4.4061   -9.1316    6.0050 C   0  0  0  0  0  0  0  0  0  0  0  0
    2.0551   -9.0148    5.2398 C   0  0  1  0  0  0  0  0  0  0  0  0
    0.7398   -8.5005    5.9070 C   0  0  1  0  0  0  0  0  0  0  0  0
    0.7587   -8.2639    7.4368 C   0  0  0  0  0  0  0  0  0  0  0  0
   -0.1056   -7.5525    5.0038 C   0  0  1  0  0  0  0  0  0  0  0  0
   -0.5316   -6.3523    5.6338 O   0  0  0  0  0  0  0  0  0  0  0  0
    0.4594   -7.2867    3.5614 C   0  0  0  0  0  0  0  0  0  0  0  0
    1.6420   -8.1855    2.9942 C   0  0  2  0  0  0  0  0  0  0  0  0
    1.7215   -9.5160    3.7980 C   0  0  0  0  0  0  0  0  0  0  0  0
    2.7036  -10.6341    3.3327 C   0  0  0  0  0  0  0  0  0  0  0  0
    0.3810  -10.3086    3.6284 C   0  0  0  0  0  0  0  0  0  0  0  0
    3.0651   -7.5119    2.6611 C   0  0  1  0  0  0  0  0  0  0  0  0
    3.5943   -8.3835    1.4456 C   0  0  0  0  0  0  0  0  0  0  0  0
    2.8676   -6.0324    2.1020 C   0  0  1  0  0  0  0  0  0  0  0  0
    2.8646   -5.0743    3.1384 O   0  0  0  0  0  0  0  0  0  0  0  0
    4.0585   -7.6473    3.9254 C   0  0  1  0  0  0  0  0  0  0  0  0
    5.8456   -2.3884    2.4522 H   0  0  0  0  0  0  0  0  0  0  0  0
    4.0976   -2.4253    2.2870 H   0  0  0  0  0  0  0  0  0  0  0  0
    5.0508   -1.3369    1.2873 H   0  0  0  0  0  0  0  0  0  0  0  0
    6.1265   -3.3086    0.1539 H   0  0  0  0  0  0  0  0  0  0  0  0
    3.6816   -2.3610   -0.5858 H   0  0  0  0  0  0  0  0  0  0  0  0
    4.3716   -3.8098   -1.3114 H   0  0  0  0  0  0  0  0  0  0  0  0
    2.4282   -3.6524    0.9923 H   0  0  0  0  0  0  0  0  0  0  0  0
    2.4111   -5.1333   -1.4202 H   0  0  0  0  0  0  0  0  0  0  0  0
    3.8630   -6.1158    0.1040 H   0  0  0  0  0  0  0  0  0  0  0  0
    6.9794   -4.7499    2.0520 H   0  0  0  0  0  0  0  0  0  0  0  0
    5.8901   -7.4901    1.9112 H   0  0  0  0  0  0  0  0  0  0  0  0
    8.2341   -7.0915    1.7740 H   0  0  0  0  0  0  0  0  0  0  0  0
    7.8484   -8.1187    3.1330 H   0  0  0  0  0  0  0  0  0  0  0  0
    8.2644   -6.4335    3.4055 H   0  0  0  0  0  0  0  0  0  0  0  0
    6.1072   -7.5772    4.4885 H   0  0  0  0  0  0  0  0  0  0  0  0
    6.7215   -5.1597    4.6301 H   0  0  0  0  0  0  0  0  0  0  0  0
    5.0156   -4.7730    4.5589 H   0  0  0  0  0  0  0  0  0  0  0  0
    6.4740   -5.5949    6.9491 H   0  0  0  0  0  0  0  0  0  0  0  0
    1.8047   -5.8563    5.1637 H   0  0  0  0  0  0  0  0  0  0  0  0
    2.9743   -4.8021    5.8392 H   0  0  0  0  0  0  0  0  0  0  0  0
    1.7529   -5.4646    6.8899 H   0  0  0  0  0  0  0  0  0  0  0  0
    4.5206  -10.0513    5.4333 H   0  0  0  0  0  0  0  0  0  0  0  0
    4.0652   -9.4380    6.9959 H   0  0  0  0  0  0  0  0  0  0  0  0
    5.4141   -8.7490    6.1389 H   0  0  0  0  0  0  0  0  0  0  0  0
    2.2288   -9.9402    5.7942 H   0  0  0  0  0  0  0  0  0  0  0  0
    0.1238   -9.4006    5.9308 H   0  0  0  0  0  0  0  0  0  0  0  0
    1.3704   -9.0178    7.9350 H   0  0  0  0  0  0  0  0  0  0  0  0
   -0.2414   -8.3444    7.8578 H   0  0  0  0  0  0  0  0  0  0  0  0
    1.1398   -7.2991    7.7438 H   0  0  0  0  0  0  0  0  0  0  0  0
   -1.0643   -8.0531    4.8674 H   0  0  0  0  0  0  0  0  0  0  0  0
    0.2225   -5.9129    5.9842 H   0  0  0  0  0  0  0  0  0  0  0  0
   -0.3929   -7.4390    2.8984 H   0  0  0  0  0  0  0  0  0  0  0  0
    0.6431   -6.2250    3.4455 H   0  0  0  0  0  0  0  0  0  0  0  0
    1.2170   -8.4640    2.0286 H   0  0  0  0  0  0  0  0  0  0  0  0
    2.5710  -10.8806    2.2783 H   0  0  0  0  0  0  0  0  0  0  0  0
    2.5291  -11.5579    3.8863 H   0  0  0  0  0  0  0  0  0  0  0  0
    3.7560  -10.4396    3.4798 H   0  0  0  0  0  0  0  0  0  0  0  0
    0.3089  -10.7766    2.6445 H   0  0  0  0  0  0  0  0  0  0  0  0
   -0.5315   -9.7249    3.7015 H   0  0  0  0  0  0  0  0  0  0  0  0
    0.2904  -11.1084    4.3659 H   0  0  0  0  0  0  0  0  0  0  0  0
    4.3189   -7.9299    0.7859 H   0  0  0  0  0  0  0  0  0  0  0  0
    2.7995   -8.6979    0.7793 H   0  0  0  0  0  0  0  0  0  0  0  0
    4.0988   -9.3047    1.7205 H   0  0  0  0  0  0  0  0  0  0  0  0
    1.8640   -6.0287    1.6830 H   0  0  0  0  0  0  0  0  0  0  0  0
    2.7719   -4.2173    2.7658 H   0  0  0  0  0  0  0  0  0  0  0  0
    4.5204   -8.5842    3.6565 H   0  0  0  0  0  0  0  0  0  0  0  0
  1  2  1  0
  1 35  1  0
  1 36  1  0
  1 37  1  0
  2  7  1  0
  2  3  1  0
  2 38  1  6
  3  4  1  0
  3 39  1  0
  3 40  1  0
  4  5  1  0
  4  6  1  0
  4 41  1  1
  5 42  1  0
  6 32  1  0
  6  7  1  0
  6 43  1  6
  7  8  2  3
  8  9  1  0
  8 44  1  0
  9 10  1  0
  9 11  1  0
  9 45  1  6
 10 46  1  0
 10 47  1  0
 10 48  1  0
 11 34  1  0
 11 12  1  0
 11 49  1  1
 12 13  1  0
 12 50  1  0
 12 51  1  0
 13 14  2  0
 13 52  1  0
 14 16  1  0
 14 15  1  0
 15 16  1  0
 16 17  1  1
 16 18  1  0
 17 53  1  0
 17 54  1  0
 17 55  1  0
 18 34  1  0
 18 19  1  1
 18 20  1  0
 19 56  1  0
 19 57  1  0
 19 58  1  0
 20 27  1  0
 20 21  1  0
 20 59  1  1
 21 22  1  0
 21 23  1  0
 21 60  1  1
 22 61  1  0
 22 62  1  0
 22 63  1  0
 23 24  1  0
 23 25  1  0
 23 64  1  6
 24 65  1  0
 25 26  1  0
 25 66  1  0
 25 67  1  0
 26 27  1  0
 26 30  1  0
 26 68  1  6
 27 28  1  0
 27 29  1  0
 28 69  1  0
 28 70  1  0
 28 71  1  0
 29 72  1  0
 29 73  1  0
 29 74  1  0
 30 31  1  6
 30 32  1  0
 30 34  1  0
 31 75  1  0
 31 76  1  0
 31 77  1  0
 32 33  1  0
 32 78  1  6
 33 79  1  0
 34 80  1  6
M  END
>  <i_m_ct_stereo_status>  (25) 
1

>  <s_m_source_file>  (25) 
/var/tmp/pbs.5076255.sched01/tmp7e7yg0hy/0s0dyhj_r.sdf

>  <i_m_source_file_index>  (25) 
11

>  <i_lp_mmshare_version>  (25) 
48012

>  <i_f3d_flags>  (25) 
0

>  <s_epik_input>  (25) 
W09IXVtDQEBIXTFbQ0gyXVtDQEBIXShbQ0gzXSkvQyg9W0NIXS9bQ0BIXTJbQ0gzXSlbQ0BIXTFbQ0BIXShbT0hdKVtDQF0zKFtDSDNdKVtDQEBIXShDNChbQ0gzXSlbQ0gzXSlbQ0gyXVtDQEhdKFtPSF0pW0NASF0oW0NIM10pW0NAQEhdNFtDQEBdNShbQ0gzXSlbQ0BASF0zW0NAQEhdMltDSDJdW0NIXT1DKE82KUM1NltDSDNd

>  <s_epik_cmdline>  (25) 
J2VwaWtfcHl0aG9uJywgJy1waHQnLCAnMi4wJywgJy1waCcsICc3LjAnLCAnLXRuJywgJzgnLCAnLW1hJywgJzIwMCcsICctaW1hZScsICc8aW5maWxlLm1hZT4nLCAnLW9tYWUnLCAnPG91dGZpbGUubWFlPic=

>  <r_lp_tautomer_probability>  (25) 
1

>  <r_epik_Ionization_Penalty>  (25) 
2.9039e-06

>  <r_epik_Ionization_Penalty_Charging>  (25) 
0

>  <r_epik_Ionization_Penalty_Neutral>  (25) 
2.9039e-06

>  <r_epik_State_Penalty>  (25) 
-0

>  <r_epik_Charging_Adjusted_Penalty>  (25) 
0

>  <i_epik_Tot_Q>  (25) 
0

>  <i_epik_Tot_abs_Q>  (25) 
0

>  <s_lp_Force_Field>  (25) 
OPLS3e

>  <r_lp_Energy>  (25) 
164.928

>  <b_lp_Chiralities_Consistent>  (25) 
1

>  <s_lp_Variant>  (25) 
7:0-1

>  <s_i_glide_gridfile>  (25) 
pfpi4k_grid

>  <i_i_glide_lignum>  (25) 
11

>  <i_i_glide_rotatable_bonds>  (25) 
3

>  <r_i_docking_score>  (25) 
-3.1442

>  <r_i_glide_ligand_efficiency>  (25) 
-0.0924766

>  <r_i_glide_ligand_efficiency_sa>  (25) 
-0.299588

>  <r_i_glide_ligand_efficiency_ln>  (25) 
-0.694643

>  <r_i_glide_gscore>  (25) 
-3.1442

>  <r_i_glide_lipo>  (25) 
-0.244687

>  <r_i_glide_hbond>  (25) 
-0.32

>  <r_i_glide_metal>  (25) 
-0

>  <r_i_glide_rewards>  (25) 
-0.199883

>  <r_i_glide_evdw>  (25) 
-26.2573

>  <r_i_glide_ecoul>  (25) 
-7.11181

>  <r_i_glide_erotb>  (25) 
0

>  <r_i_glide_esite>  (25) 
0

>  <r_i_glide_emodel>  (25) 
-40.2765

>  <r_i_glide_energy>  (25) 
-33.3691

>  <r_i_glide_einternal>  (25) 
0.482937

>  <r_i_glide_intrahb_reward>  (25) 
-0

>  <i_i_glide_confnum>  (25) 
1

>  <i_i_glide_posenum>  (25) 
11

>  <r_i_glide_eff_state_penalty>  (25) 
0

>  <ligand_id>  (25) 
7

>  <original_smiles>  (25) 
CC1CC(O)C2C1=CC(C)C1CC=C3OC3(C)C3(C)C4C(C)C(O)CC(C4(C)C)C(C)(C2O)C13

>  <smiles>  (25) 
[H]OC1([H])C([H])([H])C([H])(C([H])([H])[H])C2=C([H])C([H])(C([H])([H])[H])C3([H])C([H])([H])C([H])=C4OC4(C([H])([H])[H])C4(C([H])([H])[H])C5([H])C([H])(C([H])([H])[H])C([H])(O[H])C([H])([H])C([H])(C5(C([H])([H])[H])C([H])([H])[H])C(C([H])([H])[H])(C([H])(O[H])C21[H])C34[H]

$$$$
7:1:0
     RDKit          3D

 80 85  0  0  1  0  0  0  0  0999 V2000
    2.0744  -11.5278    4.4813 C   0  0  0  0  0  0  0  0  0  0  0  0
    0.9242  -10.5010    4.3205 C   0  0  2  0  0  0  0  0  0  0  0  0
    0.4786  -10.3339    2.8820 C   0  0  0  0  0  0  0  0  0  0  0  0
   -0.1664   -8.9462    2.8382 C   0  0  1  0  0  0  0  0  0  0  0  0
   -1.5143   -9.0572    3.2777 O   0  0  0  0  0  0  0  0  0  0  0  0
    0.6637   -8.0696    3.8105 C   0  0  1  0  0  0  0  0  0  0  0  0
    1.2376   -9.0948    4.8165 C   0  0  0  0  0  0  0  0  0  0  0  0
    1.9169   -8.9486    5.9520 C   0  0  0  0  0  0  0  0  0  0  0  0
    2.9185   -7.9466    6.4928 C   0  0  1  0  0  0  0  0  0  0  0  0
    3.4827   -8.6253    7.7918 C   0  0  0  0  0  0  0  0  0  0  0  0
    4.0184   -7.7260    5.4301 C   0  0  1  0  0  0  0  0  0  0  0  0
    4.5544   -9.0885    4.8191 C   0  0  0  0  0  0  0  0  0  0  0  0
    6.0259   -9.0215    4.5564 C   0  0  0  0  0  0  0  0  0  0  0  0
    6.4042   -8.0100    3.7782 C   0  0  0  0  0  0  0  0  0  0  0  0
    7.4099   -7.2920    3.2626 O   0  0  0  0  0  0  0  0  0  0  0  0
    5.9673   -6.9122    3.0099 C   0  0  1  0  0  0  0  0  0  0  0  0
    5.3808   -7.4651    1.7102 C   0  0  0  0  0  0  0  0  0  0  0  0
    5.2297   -5.8061    3.8731 C   0  0  1  0  0  0  0  0  0  0  0  0
    6.2115   -5.4548    5.0604 C   0  0  0  0  0  0  0  0  0  0  0  0
    5.0787   -4.3629    3.1429 C   0  0  1  0  0  0  0  0  0  0  0  0
    5.4486   -4.2128    1.6334 C   0  0  1  0  0  0  0  0  0  0  0  0
    6.8985   -4.5483    1.2149 C   0  0  0  0  0  0  0  0  0  0  0  0
    4.2780   -4.5526    0.6591 C   0  0  1  0  0  0  0  0  0  0  0  0
    4.6521   -5.4061   -0.4002 O   0  0  0  0  0  0  0  0  0  0  0  0
    2.9144   -4.9647    1.3226 C   0  0  0  0  0  0  0  0  0  0  0  0
    2.6709   -4.7110    2.8744 C   0  0  2  0  0  0  0  0  0  0  0  0
    3.7028   -3.6602    3.3962 C   0  0  0  0  0  0  0  0  0  0  0  0
    3.5874   -3.1323    4.8617 C   0  0  0  0  0  0  0  0  0  0  0  0
    3.4730   -2.3028    2.6396 C   0  0  0  0  0  0  0  0  0  0  0  0
    2.4751   -5.9950    3.8349 C   0  0  1  0  0  0  0  0  0  0  0  0
    1.4594   -5.4740    4.9267 C   0  0  0  0  0  0  0  0  0  0  0  0
    1.6988   -7.1615    3.0773 C   0  0  1  0  0  0  0  0  0  0  0  0
    2.5493   -8.0072    2.3454 O   0  0  0  0  0  0  0  0  0  0  0  0
    3.8770   -6.4088    4.5274 C   0  0  1  0  0  0  0  0  0  0  0  0
    2.4335  -11.6252    5.5028 H   0  0  0  0  0  0  0  0  0  0  0  0
    2.9289  -11.3100    3.8469 H   0  0  0  0  0  0  0  0  0  0  0  0
    1.7120  -12.5129    4.2212 H   0  0  0  0  0  0  0  0  0  0  0  0
    0.0937  -10.8374    4.9396 H   0  0  0  0  0  0  0  0  0  0  0  0
    1.3450  -10.3528    2.2167 H   0  0  0  0  0  0  0  0  0  0  0  0
   -0.1657  -11.1373    2.5586 H   0  0  0  0  0  0  0  0  0  0  0  0
   -0.1792   -8.5675    1.8184 H   0  0  0  0  0  0  0  0  0  0  0  0
   -1.5786   -9.7023    3.9845 H   0  0  0  0  0  0  0  0  0  0  0  0
   -0.0511   -7.4470    4.3283 H   0  0  0  0  0  0  0  0  0  0  0  0
    2.1619   -9.8349    6.4613 H   0  0  0  0  0  0  0  0  0  0  0  0
    2.5105   -7.0171    6.8514 H   0  0  0  0  0  0  0  0  0  0  0  0
    2.7290   -8.6509    8.5865 H   0  0  0  0  0  0  0  0  0  0  0  0
    4.3673   -8.1418    8.1782 H   0  0  0  0  0  0  0  0  0  0  0  0
    3.7602   -9.6850    7.6244 H   0  0  0  0  0  0  0  0  0  0  0  0
    4.8289   -7.4721    6.0946 H   0  0  0  0  0  0  0  0  0  0  0  0
    4.3794   -9.9270    5.4835 H   0  0  0  0  0  0  0  0  0  0  0  0
    4.0383   -9.3423    3.8896 H   0  0  0  0  0  0  0  0  0  0  0  0
    6.7112   -9.7177    5.0464 H   0  0  0  0  0  0  0  0  0  0  0  0
    4.4984   -6.9467    1.4399 H   0  0  0  0  0  0  0  0  0  0  0  0
    5.0974   -8.5170    1.8055 H   0  0  0  0  0  0  0  0  0  0  0  0
    6.0956   -7.4255    0.8901 H   0  0  0  0  0  0  0  0  0  0  0  0
    5.8039   -4.6912    5.7257 H   0  0  0  0  0  0  0  0  0  0  0  0
    7.1595   -5.0691    4.6978 H   0  0  0  0  0  0  0  0  0  0  0  0
    6.4752   -6.2888    5.7048 H   0  0  0  0  0  0  0  0  0  0  0  0
    5.8004   -3.6800    3.5992 H   0  0  0  0  0  0  0  0  0  0  0  0
    5.5354   -3.1326    1.5133 H   0  0  0  0  0  0  0  0  0  0  0  0
    7.1055   -5.6002    1.0690 H   0  0  0  0  0  0  0  0  0  0  0  0
    7.6111   -4.1978    1.9597 H   0  0  0  0  0  0  0  0  0  0  0  0
    7.1533   -4.0583    0.2758 H   0  0  0  0  0  0  0  0  0  0  0  0
    4.0857   -3.6445    0.0877 H   0  0  0  0  0  0  0  0  0  0  0  0
    3.9452   -5.4506   -1.0371 H   0  0  0  0  0  0  0  0  0  0  0  0
    2.1848   -4.3443    0.8129 H   0  0  0  0  0  0  0  0  0  0  0  0
    2.6075   -5.9481    0.9734 H   0  0  0  0  0  0  0  0  0  0  0  0
    1.7043   -4.1995    2.8743 H   0  0  0  0  0  0  0  0  0  0  0  0
    2.5958   -2.7316    5.0725 H   0  0  0  0  0  0  0  0  0  0  0  0
    4.2858   -2.3108    5.0265 H   0  0  0  0  0  0  0  0  0  0  0  0
    3.8226   -3.8189    5.6632 H   0  0  0  0  0  0  0  0  0  0  0  0
    2.5826   -1.7871    2.9989 H   0  0  0  0  0  0  0  0  0  0  0  0
    3.3089   -2.3713    1.5707 H   0  0  0  0  0  0  0  0  0  0  0  0
    4.3110   -1.6184    2.7822 H   0  0  0  0  0  0  0  0  0  0  0  0
    1.0855   -6.2389    5.5992 H   0  0  0  0  0  0  0  0  0  0  0  0
    0.5639   -5.0362    4.4913 H   0  0  0  0  0  0  0  0  0  0  0  0
    1.8554   -4.7349    5.6132 H   0  0  0  0  0  0  0  0  0  0  0  0
    1.0778   -6.6639    2.3308 H   0  0  0  0  0  0  0  0  0  0  0  0
    3.0132   -8.5659    2.9586 H   0  0  0  0  0  0  0  0  0  0  0  0
    3.8122   -5.7636    5.3916 H   0  0  0  0  0  0  0  0  0  0  0  0
  1  2  1  0
  1 35  1  0
  1 36  1  0
  1 37  1  0
  2  7  1  0
  2  3  1  0
  2 38  1  1
  3  4  1  0
  3 39  1  0
  3 40  1  0
  4  5  1  0
  4  6  1  0
  4 41  1  6
  5 42  1  0
  6 32  1  0
  6  7  1  0
  6 43  1  1
  7  8  2  3
  8  9  1  0
  8 44  1  0
  9 10  1  0
  9 11  1  0
  9 45  1  1
 10 46  1  0
 10 47  1  0
 10 48  1  0
 11 34  1  0
 11 12  1  0
 11 49  1  1
 12 13  1  0
 12 50  1  0
 12 51  1  0
 13 14  2  0
 13 52  1  0
 14 16  1  0
 14 15  1  0
 15 16  1  0
 16 17  1  6
 16 18  1  0
 17 53  1  0
 17 54  1  0
 17 55  1  0
 18 34  1  0
 18 19  1  1
 18 20  1  0
 19 56  1  0
 19 57  1  0
 19 58  1  0
 20 27  1  0
 20 21  1  0
 20 59  1  1
 21 22  1  0
 21 23  1  0
 21 60  1  1
 22 61  1  0
 22 62  1  0
 22 63  1  0
 23 24  1  0
 23 25  1  0
 23 64  1  6
 24 65  1  0
 25 26  1  0
 25 66  1  0
 25 67  1  0
 26 27  1  0
 26 30  1  0
 26 68  1  6
 27 28  1  0
 27 29  1  0
 28 69  1  0
 28 70  1  0
 28 71  1  0
 29 72  1  0
 29 73  1  0
 29 74  1  0
 30 31  1  1
 30 32  1  0
 30 34  1  0
 31 75  1  0
 31 76  1  0
 31 77  1  0
 32 33  1  0
 32 78  1  6
 33 79  1  0
 34 80  1  1
M  END
>  <i_m_ct_stereo_status>  (26) 
1

>  <s_m_source_file>  (26) 
/var/tmp/pbs.5076255.sched01/tmp7e7yg0hy/0s0dyhj_r.sdf

>  <i_m_source_file_index>  (26) 
12

>  <i_lp_mmshare_version>  (26) 
48012

>  <i_f3d_flags>  (26) 
0

>  <s_epik_input>  (26) 
W09IXVtDQEBIXTFbQ0gyXVtDQEBIXShbQ0gzXSkvQyg9W0NIXS9bQ0BIXTJbQ0gzXSlbQ0BIXTFbQ0BIXShbT0hdKVtDQF0zKFtDSDNdKVtDQEBIXShDNChbQ0gzXSlbQ0gzXSlbQ0gyXVtDQEhdKFtPSF0pW0NASF0oW0NIM10pW0NAQEhdNFtDQEBdNShbQ0gzXSlbQ0BASF0zW0NAQEhdMltDSDJdW0NIXT1DKE82KUM1NltDSDNd

>  <s_epik_cmdline>  (26) 
J2VwaWtfcHl0aG9uJywgJy1waHQnLCAnMi4wJywgJy1waCcsICc3LjAnLCAnLXRuJywgJzgnLCAnLW1hJywgJzIwMCcsICctaW1hZScsICc8aW5maWxlLm1hZT4nLCAnLW9tYWUnLCAnPG91dGZpbGUubWFlPic=

>  <r_lp_tautomer_probability>  (26) 
1

>  <r_epik_Ionization_Penalty>  (26) 
2.9039e-06

>  <r_epik_Ionization_Penalty_Charging>  (26) 
0

>  <r_epik_Ionization_Penalty_Neutral>  (26) 
2.9039e-06

>  <r_epik_State_Penalty>  (26) 
-0

>  <r_epik_Charging_Adjusted_Penalty>  (26) 
0

>  <i_epik_Tot_Q>  (26) 
0

>  <i_epik_Tot_abs_Q>  (26) 
0

>  <s_lp_Force_Field>  (26) 
OPLS3e

>  <r_lp_Energy>  (26) 
203.904

>  <b_lp_Chiralities_Consistent>  (26) 
1

>  <s_lp_Variant>  (26) 
7:0-2

>  <s_i_glide_gridfile>  (26) 
pfpi4k_grid

>  <i_i_glide_lignum>  (26) 
12

>  <i_i_glide_rotatable_bonds>  (26) 
3

>  <r_i_docking_score>  (26) 
-3.36524

>  <r_i_glide_ligand_efficiency>  (26) 
-0.0989776

>  <r_i_glide_ligand_efficiency_sa>  (26) 
-0.320649

>  <r_i_glide_ligand_efficiency_ln>  (26) 
-0.743475

>  <r_i_glide_gscore>  (26) 
-3.36524

>  <r_i_glide_lipo>  (26) 
-0.385182

>  <r_i_glide_hbond>  (26) 
-0.456

>  <r_i_glide_metal>  (26) 
-0

>  <r_i_glide_rewards>  (26) 
-0.199883

>  <r_i_glide_evdw>  (26) 
-26.4142

>  <r_i_glide_ecoul>  (26) 
-6.68975

>  <r_i_glide_erotb>  (26) 
0

>  <r_i_glide_esite>  (26) 
0

>  <r_i_glide_emodel>  (26) 
-36.9353

>  <r_i_glide_energy>  (26) 
-33.104

>  <r_i_glide_einternal>  (26) 
0.792693

>  <r_i_glide_intrahb_reward>  (26) 
-0

>  <i_i_glide_confnum>  (26) 
1

>  <i_i_glide_posenum>  (26) 
1

>  <r_i_glide_eff_state_penalty>  (26) 
0

>  <ligand_id>  (26) 
7

>  <original_smiles>  (26) 
CC1CC(O)C2C1=CC(C)C1CC=C3OC3(C)C3(C)C4C(C)C(O)CC(C4(C)C)C(C)(C2O)C13

>  <smiles>  (26) 
[H]OC1([H])C([H])([H])C([H])(C([H])([H])[H])C2=C([H])C([H])(C([H])([H])[H])C3([H])C([H])([H])C([H])=C4OC4(C([H])([H])[H])C4(C([H])([H])[H])C5([H])C([H])(C([H])([H])[H])C([H])(O[H])C([H])([H])C([H])(C5(C([H])([H])[H])C([H])([H])[H])C(C([H])([H])[H])(C([H])(O[H])C21[H])C34[H]

$$$$
7:1:1
     RDKit          3D

 80 85  0  0  1  0  0  0  0  0999 V2000
    1.7503  -11.3009    4.0902 C   0  0  0  0  0  0  0  0  0  0  0  0
    0.6478  -10.2193    3.9423 C   0  0  2  0  0  0  0  0  0  0  0  0
    0.1979  -10.0117    2.5009 C   0  0  0  0  0  0  0  0  0  0  0  0
   -0.3801   -8.5927    2.4835 C   0  0  1  0  0  0  0  0  0  0  0  0
   -1.7278   -8.6494    2.9248 O   0  0  0  0  0  0  0  0  0  0  0  0
    0.4937   -7.7741    3.4734 C   0  0  1  0  0  0  0  0  0  0  0  0
    1.0107   -8.8300    4.4572 C   0  0  0  0  0  0  0  0  0  0  0  0
    1.6884   -8.7281    5.6087 C   0  0  0  0  0  0  0  0  0  0  0  0
    2.7324   -7.7925    6.1588 C   0  0  1  0  0  0  0  0  0  0  0  0
    3.2721   -8.5223    7.4475 C   0  0  0  0  0  0  0  0  0  0  0  0
    3.8495   -7.6032    5.1009 C   0  0  1  0  0  0  0  0  0  0  0  0
    4.3274   -8.9726    4.4681 C   0  0  0  0  0  0  0  0  0  0  0  0
    5.8124   -8.9708    4.2117 C   0  0  0  0  0  0  0  0  0  0  0  0
    6.2275   -7.9622    3.4559 C   0  0  0  0  0  0  0  0  0  0  0  0
    7.2720   -7.2684    2.9454 O   0  0  0  0  0  0  0  0  0  0  0  0
    5.8312   -6.8265    2.7013 C   0  0  1  0  0  0  0  0  0  0  0  0
    5.2333   -7.3336    1.3946 C   0  0  0  0  0  0  0  0  0  0  0  0
    5.1540   -5.7089    3.5815 C   0  0  1  0  0  0  0  0  0  0  0  0
    6.1390   -5.4203    4.7806 C   0  0  0  0  0  0  0  0  0  0  0  0
    5.0628   -4.2446    2.8756 C   0  0  1  0  0  0  0  0  0  0  0  0
    5.4494   -4.0820    1.3735 C   0  0  1  0  0  0  0  0  0  0  0  0
    6.8827   -4.4730    0.9507 C   0  0  0  0  0  0  0  0  0  0  0  0
    4.2729   -4.3632    0.3814 C   0  0  1  0  0  0  0  0  0  0  0  0
    4.6478   -5.1837   -0.6965 O   0  0  0  0  0  0  0  0  0  0  0  0
    2.8875   -4.7291    1.0397 C   0  0  0  0  0  0  0  0  0  0  0  0
    2.6426   -4.4888    2.5926 C   0  0  2  0  0  0  0  0  0  0  0  0
    3.7166   -3.4903    3.1371 C   0  0  0  0  0  0  0  0  0  0  0  0
    3.6203   -2.9830    4.6132 C   0  0  0  0  0  0  0  0  0  0  0  0
    3.5480   -2.1111    2.4033 C   0  0  0  0  0  0  0  0  0  0  0  0
    2.3887   -5.7746    3.5323 C   0  0  1  0  0  0  0  0  0  0  0  0
    1.3930   -5.2302    4.6339 C   0  0  0  0  0  0  0  0  0  0  0  0
    1.5656   -6.8999    2.7535 C   0  0  1  0  0  0  0  0  0  0  0  0
    2.3878   -7.7704    2.0097 O   0  0  0  0  0  0  0  0  0  0  0  0
    3.7672   -6.2614    4.2235 C   0  0  1  0  0  0  0  0  0  0  0  0
    2.0927  -11.4232    5.1099 H   0  0  0  0  0  0  0  0  0  0  0  0
    2.6037  -11.1032    3.4683 H   0  0  0  0  0  0  0  0  0  0  0  0
    1.3454  -12.2581    3.8001 H   0  0  0  0  0  0  0  0  0  0  0  0
   -0.1860  -10.5291    4.5505 H   0  0  0  0  0  0  0  0  0  0  0  0
    1.0553  -10.0786    1.8444 H   0  0  0  0  0  0  0  0  0  0  0  0
   -0.5004  -10.7744    2.1717 H   0  0  0  0  0  0  0  0  0  0  0  0
   -0.3743   -8.2011    1.4658 H   0  0  0  0  0  0  0  0  0  0  0  0
   -1.7878   -9.2595    3.6488 H   0  0  0  0  0  0  0  0  0  0  0  0
   -0.1933   -7.1300    3.9957 H   0  0  0  0  0  0  0  0  0  0  0  0
    1.9180   -9.6161    6.1002 H   0  0  0  0  0  0  0  0  0  0  0  0
    2.3795   -6.8547    6.5346 H   0  0  0  0  0  0  0  0  0  0  0  0
    2.5150   -8.5247    8.2378 H   0  0  0  0  0  0  0  0  0  0  0  0
    4.1751   -8.0822    7.8415 H   0  0  0  0  0  0  0  0  0  0  0  0
    3.5014   -9.5879    7.2611 H   0  0  0  0  0  0  0  0  0  0  0  0
    4.6690   -7.3942    5.7714 H   0  0  0  0  0  0  0  0  0  0  0  0
    4.1146   -9.8155    5.1167 H   0  0  0  0  0  0  0  0  0  0  0  0
    3.8034   -9.1830    3.5322 H   0  0  0  0  0  0  0  0  0  0  0  0
    6.4570   -9.7011    4.6913 H   0  0  0  0  0  0  0  0  0  0  0  0
    4.3734   -6.7687    1.1273 H   0  0  0  0  0  0  0  0  0  0  0  0
    4.9036   -8.3724    1.4676 H   0  0  0  0  0  0  0  0  0  0  0  0
    5.9435   -7.3025    0.5766 H   0  0  0  0  0  0  0  0  0  0  0  0
    5.7657   -4.6484    5.4570 H   0  0  0  0  0  0  0  0  0  0  0  0
    7.1049   -5.0711    4.4254 H   0  0  0  0  0  0  0  0  0  0  0  0
    6.3661   -6.2747    5.4105 H   0  0  0  0  0  0  0  0  0  0  0  0
    5.8114   -3.6016    3.3459 H   0  0  0  0  0  0  0  0  0  0  0  0
    5.5786   -3.0056    1.2662 H   0  0  0  0  0  0  0  0  0  0  0  0
    7.0439   -5.5314    0.7908 H   0  0  0  0  0  0  0  0  0  0  0  0
    7.6097   -4.1559    1.7001 H   0  0  0  0  0  0  0  0  0  0  0  0
    7.1580   -3.9832    0.0185 H   0  0  0  0  0  0  0  0  0  0  0  0
    4.1113   -3.4366   -0.1675 H   0  0  0  0  0  0  0  0  0  0  0  0
    3.8974   -5.2910   -1.2952 H   0  0  0  0  0  0  0  0  0  0  0  0
    2.1903   -4.0669    0.5403 H   0  0  0  0  0  0  0  0  0  0  0  0
    2.5292   -5.6891    0.6664 H   0  0  0  0  0  0  0  0  0  0  0  0
    1.6993   -3.9328    2.5997 H   0  0  0  0  0  0  0  0  0  0  0  0
    2.6470   -2.5441    4.8292 H   0  0  0  0  0  0  0  0  0  0  0  0
    4.3528   -2.1958    4.7937 H   0  0  0  0  0  0  0  0  0  0  0  0
    3.8245   -3.6933    5.4035 H   0  0  0  0  0  0  0  0  0  0  0  0
    2.6803   -1.5634    2.7685 H   0  0  0  0  0  0  0  0  0  0  0  0
    3.3840   -2.1559    1.3319 H   0  0  0  0  0  0  0  0  0  0  0  0
    4.4142   -1.4661    2.5585 H   0  0  0  0  0  0  0  0  0  0  0  0
    0.9860   -5.9889    5.2934 H   0  0  0  0  0  0  0  0  0  0  0  0
    0.5185   -4.7458    4.2051 H   0  0  0  0  0  0  0  0  0  0  0  0
    1.8202   -4.5207    5.3337 H   0  0  0  0  0  0  0  0  0  0  0  0
    0.9668   -6.3637    2.0139 H   0  0  0  0  0  0  0  0  0  0  0  0
    1.8538   -8.4441    1.6180 H   0  0  0  0  0  0  0  0  0  0  0  0
    3.7292   -5.6313    5.0984 H   0  0  0  0  0  0  0  0  0  0  0  0
  1  2  1  0
  1 35  1  0
  1 36  1  0
  1 37  1  0
  2  7  1  0
  2  3  1  0
  2 38  1  1
  3  4  1  0
  3 39  1  0
  3 40  1  0
  4  5  1  0
  4  6  1  0
  4 41  1  6
  5 42  1  0
  6 32  1  0
  6  7  1  0
  6 43  1  1
  7  8  2  3
  8  9  1  0
  8 44  1  0
  9 10  1  0
  9 11  1  0
  9 45  1  1
 10 46  1  0
 10 47  1  0
 10 48  1  0
 11 34  1  0
 11 12  1  0
 11 49  1  1
 12 13  1  0
 12 50  1  0
 12 51  1  0
 13 14  2  0
 13 52  1  0
 14 16  1  0
 14 15  1  0
 15 16  1  0
 16 17  1  6
 16 18  1  0
 17 53  1  0
 17 54  1  0
 17 55  1  0
 18 34  1  0
 18 19  1  1
 18 20  1  0
 19 56  1  0
 19 57  1  0
 19 58  1  0
 20 27  1  0
 20 21  1  0
 20 59  1  1
 21 22  1  0
 21 23  1  0
 21 60  1  1
 22 61  1  0
 22 62  1  0
 22 63  1  0
 23 24  1  0
 23 25  1  0
 23 64  1  6
 24 65  1  0
 25 26  1  0
 25 66  1  0
 25 67  1  0
 26 27  1  0
 26 30  1  0
 26 68  1  6
 27 28  1  0
 27 29  1  0
 28 69  1  0
 28 70  1  0
 28 71  1  0
 29 72  1  0
 29 73  1  0
 29 74  1  0
 30 31  1  1
 30 32  1  0
 30 34  1  0
 31 75  1  0
 31 76  1  0
 31 77  1  0
 32 33  1  0
 32 78  1  6
 33 79  1  0
 34 80  1  1
M  END
>  <i_m_ct_stereo_status>  (27) 
1

>  <s_m_source_file>  (27) 
/var/tmp/pbs.5076255.sched01/tmp7e7yg0hy/0s0dyhj_r.sdf

>  <i_m_source_file_index>  (27) 
12

>  <i_lp_mmshare_version>  (27) 
48012

>  <i_f3d_flags>  (27) 
0

>  <s_epik_input>  (27) 
W09IXVtDQEBIXTFbQ0gyXVtDQEBIXShbQ0gzXSkvQyg9W0NIXS9bQ0BIXTJbQ0gzXSlbQ0BIXTFbQ0BIXShbT0hdKVtDQF0zKFtDSDNdKVtDQEBIXShDNChbQ0gzXSlbQ0gzXSlbQ0gyXVtDQEhdKFtPSF0pW0NASF0oW0NIM10pW0NAQEhdNFtDQEBdNShbQ0gzXSlbQ0BASF0zW0NAQEhdMltDSDJdW0NIXT1DKE82KUM1NltDSDNd

>  <s_epik_cmdline>  (27) 
J2VwaWtfcHl0aG9uJywgJy1waHQnLCAnMi4wJywgJy1waCcsICc3LjAnLCAnLXRuJywgJzgnLCAnLW1hJywgJzIwMCcsICctaW1hZScsICc8aW5maWxlLm1hZT4nLCAnLW9tYWUnLCAnPG91dGZpbGUubWFlPic=

>  <r_lp_tautomer_probability>  (27) 
1

>  <r_epik_Ionization_Penalty>  (27) 
2.9039e-06

>  <r_epik_Ionization_Penalty_Charging>  (27) 
0

>  <r_epik_Ionization_Penalty_Neutral>  (27) 
2.9039e-06

>  <r_epik_State_Penalty>  (27) 
-0

>  <r_epik_Charging_Adjusted_Penalty>  (27) 
0

>  <i_epik_Tot_Q>  (27) 
0

>  <i_epik_Tot_abs_Q>  (27) 
0

>  <s_lp_Force_Field>  (27) 
OPLS3e

>  <r_lp_Energy>  (27) 
203.904

>  <b_lp_Chiralities_Consistent>  (27) 
1

>  <s_lp_Variant>  (27) 
7:0-2

>  <s_i_glide_gridfile>  (27) 
pfpi4k_grid

>  <i_i_glide_lignum>  (27) 
12

>  <i_i_glide_rotatable_bonds>  (27) 
3

>  <r_i_docking_score>  (27) 
-3.35896

>  <r_i_glide_ligand_efficiency>  (27) 
-0.0987929

>  <r_i_glide_ligand_efficiency_sa>  (27) 
-0.320051

>  <r_i_glide_ligand_efficiency_ln>  (27) 
-0.742088

>  <r_i_glide_gscore>  (27) 
-3.35896

>  <r_i_glide_lipo>  (27) 
-0.483164

>  <r_i_glide_hbond>  (27) 
-0.355034

>  <r_i_glide_metal>  (27) 
-0

>  <r_i_glide_rewards>  (27) 
-0.199883

>  <r_i_glide_evdw>  (27) 
-27.9131

>  <r_i_glide_ecoul>  (27) 
-6.61001

>  <r_i_glide_erotb>  (27) 
0

>  <r_i_glide_esite>  (27) 
0

>  <r_i_glide_emodel>  (27) 
-37.1947

>  <r_i_glide_energy>  (27) 
-34.5231

>  <r_i_glide_einternal>  (27) 
1.10446

>  <r_i_glide_intrahb_reward>  (27) 
-0

>  <i_i_glide_confnum>  (27) 
1

>  <i_i_glide_posenum>  (27) 
36

>  <r_i_glide_eff_state_penalty>  (27) 
0

>  <ligand_id>  (27) 
7

>  <original_smiles>  (27) 
CC1CC(O)C2C1=CC(C)C1CC=C3OC3(C)C3(C)C4C(C)C(O)CC(C4(C)C)C(C)(C2O)C13

>  <smiles>  (27) 
[H]OC1([H])C([H])([H])C([H])(C([H])([H])[H])C2=C([H])C([H])(C([H])([H])[H])C3([H])C([H])([H])C([H])=C4OC4(C([H])([H])[H])C4(C([H])([H])[H])C5([H])C([H])(C([H])([H])[H])C([H])(O[H])C([H])([H])C([H])(C5(C([H])([H])[H])C([H])([H])[H])C(C([H])([H])[H])(C([H])(O[H])C21[H])C34[H]

$$$$
7:1:2
     RDKit          3D

 80 85  0  0  1  0  0  0  0  0999 V2000
    2.6467   -3.7398   -0.6231 C   0  0  0  0  0  0  0  0  0  0  0  0
    3.3283   -4.7427    0.3351 C   0  0  2  0  0  0  0  0  0  0  0  0
    2.3452   -5.7330    0.9626 C   0  0  0  0  0  0  0  0  0  0  0  0
    3.0301   -6.1891    2.2597 C   0  0  1  0  0  0  0  0  0  0  0  0
    3.9356   -7.2318    1.9304 O   0  0  0  0  0  0  0  0  0  0  0  0
    3.8076   -4.9249    2.7711 C   0  0  1  0  0  0  0  0  0  0  0  0
    4.0808   -4.1267    1.4748 C   0  0  0  0  0  0  0  0  0  0  0  0
    4.7788   -2.9991    1.2466 C   0  0  0  0  0  0  0  0  0  0  0  0
    5.1651   -1.8048    2.0861 C   0  0  1  0  0  0  0  0  0  0  0  0
    5.7831   -0.8410    1.0455 C   0  0  0  0  0  0  0  0  0  0  0  0
    3.8803   -1.2023    2.7363 C   0  0  1  0  0  0  0  0  0  0  0  0
    2.6964   -1.1013    1.6923 C   0  0  0  0  0  0  0  0  0  0  0  0
    1.8853    0.1418    1.8987 C   0  0  0  0  0  0  0  0  0  0  0  0
    1.3974    0.2581    3.1525 C   0  0  0  0  0  0  0  0  0  0  0  0
    0.7750    1.0254    4.0563 O   0  0  0  0  0  0  0  0  0  0  0  0
    1.2935   -0.3537    4.4271 C   0  0  1  0  0  0  0  0  0  0  0  0
    0.2562   -1.4614    4.3159 C   0  0  0  0  0  0  0  0  0  0  0  0
    2.6924   -0.5522    5.1279 C   0  0  1  0  0  0  0  0  0  0  0  0
    3.4044    0.8595    5.1050 C   0  0  0  0  0  0  0  0  0  0  0  0
    2.6180   -0.8474    6.7229 C   0  0  1  0  0  0  0  0  0  0  0  0
    1.2363   -1.1167    7.3936 C   0  0  1  0  0  0  0  0  0  0  0  0
    0.1686   -0.0032    7.3049 C   0  0  0  0  0  0  0  0  0  0  0  0
    0.7810   -2.6112    7.3425 C   0  0  1  0  0  0  0  0  0  0  0  0
   -0.5644   -2.7948    6.9403 O   0  0  0  0  0  0  0  0  0  0  0  0
    1.7813   -3.6165    6.6633 C   0  0  0  0  0  0  0  0  0  0  0  0
    3.2787   -3.1724    6.3573 C   0  0  2  0  0  0  0  0  0  0  0  0
    3.6398   -1.9277    7.2229 C   0  0  0  0  0  0  0  0  0  0  0  0
    5.1048   -1.3775    7.2141 C   0  0  0  0  0  0  0  0  0  0  0  0
    3.5478   -2.3097    8.7426 C   0  0  0  0  0  0  0  0  0  0  0  0
    3.7478   -3.0901    4.8209 C   0  0  1  0  0  0  0  0  0  0  0  0
    5.2658   -3.5143    4.8807 C   0  0  0  0  0  0  0  0  0  0  0  0
    3.0423   -4.2191    3.9436 C   0  0  1  0  0  0  0  0  0  0  0  0
    1.7963   -3.8226    3.4302 O   0  0  0  0  0  0  0  0  0  0  0  0
    3.6139   -1.5715    4.2697 C   0  0  1  0  0  0  0  0  0  0  0  0
    3.3258   -3.0023   -1.0395 H   0  0  0  0  0  0  0  0  0  0  0  0
    1.8290   -3.1881   -0.1569 H   0  0  0  0  0  0  0  0  0  0  0  0
    2.2323   -4.2612   -1.4793 H   0  0  0  0  0  0  0  0  0  0  0  0
    4.0875   -5.2897   -0.2210 H   0  0  0  0  0  0  0  0  0  0  0  0
    1.4181   -5.2322    1.1977 H   0  0  0  0  0  0  0  0  0  0  0  0
    2.1021   -6.5339    0.2735 H   0  0  0  0  0  0  0  0  0  0  0  0
    2.2959   -6.5814    2.9571 H   0  0  0  0  0  0  0  0  0  0  0  0
    3.4441   -7.9981    1.6747 H   0  0  0  0  0  0  0  0  0  0  0  0
    4.7401   -5.3273    3.1574 H   0  0  0  0  0  0  0  0  0  0  0  0
    4.9222   -2.6749    0.2683 H   0  0  0  0  0  0  0  0  0  0  0  0
    5.9379   -1.9287    2.8298 H   0  0  0  0  0  0  0  0  0  0  0  0
    6.7709   -1.1868    0.7362 H   0  0  0  0  0  0  0  0  0  0  0  0
    5.9093    0.1678    1.4277 H   0  0  0  0  0  0  0  0  0  0  0  0
    5.1835   -0.7440    0.1524 H   0  0  0  0  0  0  0  0  0  0  0  0
    4.1951   -0.1688    2.7899 H   0  0  0  0  0  0  0  0  0  0  0  0
    3.0579   -1.0684    0.6620 H   0  0  0  0  0  0  0  0  0  0  0  0
    2.0407   -1.9741    1.7377 H   0  0  0  0  0  0  0  0  0  0  0  0
    1.7808    0.8760    1.1433 H   0  0  0  0  0  0  0  0  0  0  0  0
    0.5671   -2.3283    4.8481 H   0  0  0  0  0  0  0  0  0  0  0  0
    0.1158   -1.7844    3.2808 H   0  0  0  0  0  0  0  0  0  0  0  0
   -0.7236   -1.1503    4.6659 H   0  0  0  0  0  0  0  0  0  0  0  0
    4.3928    0.8313    5.5766 H   0  0  0  0  0  0  0  0  0  0  0  0
    2.8261    1.6011    5.6411 H   0  0  0  0  0  0  0  0  0  0  0  0
    3.5671    1.2758    4.1187 H   0  0  0  0  0  0  0  0  0  0  0  0
    2.9291    0.0583    7.2454 H   0  0  0  0  0  0  0  0  0  0  0  0
    1.4559   -0.9861    8.4545 H   0  0  0  0  0  0  0  0  0  0  0  0
   -0.3874    0.0262    6.3737 H   0  0  0  0  0  0  0  0  0  0  0  0
    0.6267    0.9817    7.4239 H   0  0  0  0  0  0  0  0  0  0  0  0
   -0.5672   -0.1068    8.0933 H   0  0  0  0  0  0  0  0  0  0  0  0
    0.6880   -2.9300    8.3801 H   0  0  0  0  0  0  0  0  0  0  0  0
   -0.7352   -3.7251    6.8995 H   0  0  0  0  0  0  0  0  0  0  0  0
    1.8638   -4.4301    7.3755 H   0  0  0  0  0  0  0  0  0  0  0  0
    1.2929   -4.1329    5.8404 H   0  0  0  0  0  0  0  0  0  0  0  0
    3.8545   -4.0057    6.7882 H   0  0  0  0  0  0  0  0  0  0  0  0
    5.8275   -2.1561    7.4650 H   0  0  0  0  0  0  0  0  0  0  0  0
    5.2246   -0.6024    7.9663 H   0  0  0  0  0  0  0  0  0  0  0  0
    5.4601   -0.9056    6.3080 H   0  0  0  0  0  0  0  0  0  0  0  0
    4.3923   -2.9188    9.0544 H   0  0  0  0  0  0  0  0  0  0  0  0
    2.6867   -2.9066    9.0309 H   0  0  0  0  0  0  0  0  0  0  0  0
    3.5402   -1.4253    9.3801 H   0  0  0  0  0  0  0  0  0  0  0  0
    5.7403   -3.6566    3.9169 H   0  0  0  0  0  0  0  0  0  0  0  0
    5.4162   -4.4626    5.3938 H   0  0  0  0  0  0  0  0  0  0  0  0
    5.9276   -2.8034    5.3620 H   0  0  0  0  0  0  0  0  0  0  0  0
    2.8395   -5.0408    4.6349 H   0  0  0  0  0  0  0  0  0  0  0  0
    1.9465   -3.1066    2.8289 H   0  0  0  0  0  0  0  0  0  0  0  0
    4.5859   -1.2158    4.5792 H   0  0  0  0  0  0  0  0  0  0  0  0
  1  2  1  0
  1 35  1  0
  1 36  1  0
  1 37  1  0
  2  7  1  0
  2  3  1  0
  2 38  1  6
  3  4  1  0
  3 39  1  0
  3 40  1  0
  4  5  1  0
  4  6  1  0
  4 41  1  1
  5 42  1  0
  6 32  1  0
  6  7  1  0
  6 43  1  1
  7  8  2  3
  8  9  1  0
  8 44  1  0
  9 10  1  0
  9 11  1  0
  9 45  1  1
 10 46  1  0
 10 47  1  0
 10 48  1  0
 11 34  1  0
 11 12  1  0
 11 49  1  1
 12 13  1  0
 12 50  1  0
 12 51  1  0
 13 14  2  0
 13 52  1  0
 14 16  1  0
 14 15  1  0
 15 16  1  0
 16 17  1  6
 16 18  1  0
 17 53  1  0
 17 54  1  0
 17 55  1  0
 18 34  1  0
 18 19  1  1
 18 20  1  0
 19 56  1  0
 19 57  1  0
 19 58  1  0
 20 27  1  0
 20 21  1  0
 20 59  1  1
 21 22  1  0
 21 23  1  0
 21 60  1  1
 22 61  1  0
 22 62  1  0
 22 63  1  0
 23 24  1  0
 23 25  1  0
 23 64  1  1
 24 65  1  0
 25 26  1  0
 25 66  1  0
 25 67  1  0
 26 27  1  0
 26 30  1  0
 26 68  1  1
 27 28  1  0
 27 29  1  0
 28 69  1  0
 28 70  1  0
 28 71  1  0
 29 72  1  0
 29 73  1  0
 29 74  1  0
 30 31  1  1
 30 32  1  0
 30 34  1  0
 31 75  1  0
 31 76  1  0
 31 77  1  0
 32 33  1  0
 32 78  1  1
 33 79  1  0
 34 80  1  1
M  END
>  <i_m_ct_stereo_status>  (28) 
1

>  <s_m_source_file>  (28) 
/var/tmp/pbs.5076255.sched01/tmp7e7yg0hy/0s0dyhj_r.sdf

>  <i_m_source_file_index>  (28) 
12

>  <i_lp_mmshare_version>  (28) 
48012

>  <i_f3d_flags>  (28) 
0

>  <s_epik_input>  (28) 
W09IXVtDQEBIXTFbQ0gyXVtDQEBIXShbQ0gzXSkvQyg9W0NIXS9bQ0BIXTJbQ0gzXSlbQ0BIXTFbQ0BIXShbT0hdKVtDQF0zKFtDSDNdKVtDQEBIXShDNChbQ0gzXSlbQ0gzXSlbQ0gyXVtDQEhdKFtPSF0pW0NASF0oW0NIM10pW0NAQEhdNFtDQEBdNShbQ0gzXSlbQ0BASF0zW0NAQEhdMltDSDJdW0NIXT1DKE82KUM1NltDSDNd

>  <s_epik_cmdline>  (28) 
J2VwaWtfcHl0aG9uJywgJy1waHQnLCAnMi4wJywgJy1waCcsICc3LjAnLCAnLXRuJywgJzgnLCAnLW1hJywgJzIwMCcsICctaW1hZScsICc8aW5maWxlLm1hZT4nLCAnLW9tYWUnLCAnPG91dGZpbGUubWFlPic=

>  <r_lp_tautomer_probability>  (28) 
1

>  <r_epik_Ionization_Penalty>  (28) 
2.9039e-06

>  <r_epik_Ionization_Penalty_Charging>  (28) 
0

>  <r_epik_Ionization_Penalty_Neutral>  (28) 
2.9039e-06

>  <r_epik_State_Penalty>  (28) 
-0

>  <r_epik_Charging_Adjusted_Penalty>  (28) 
0

>  <i_epik_Tot_Q>  (28) 
0

>  <i_epik_Tot_abs_Q>  (28) 
0

>  <s_lp_Force_Field>  (28) 
OPLS3e

>  <r_lp_Energy>  (28) 
203.904

>  <b_lp_Chiralities_Consistent>  (28) 
1

>  <s_lp_Variant>  (28) 
7:0-2

>  <s_i_glide_gridfile>  (28) 
pfpi4k_grid

>  <i_i_glide_lignum>  (28) 
12

>  <i_i_glide_rotatable_bonds>  (28) 
3

>  <r_i_docking_score>  (28) 
-1.78507

>  <r_i_glide_ligand_efficiency>  (28) 
-0.0525019

>  <r_i_glide_ligand_efficiency_sa>  (28) 
-0.170086

>  <r_i_glide_ligand_efficiency_ln>  (28) 
-0.394371

>  <r_i_glide_gscore>  (28) 
-1.78507

>  <r_i_glide_lipo>  (28) 
-0.258158

>  <r_i_glide_hbond>  (28) 
0

>  <r_i_glide_metal>  (28) 
-0

>  <r_i_glide_rewards>  (28) 
-0.199883

>  <r_i_glide_evdw>  (28) 
-24.3626

>  <r_i_glide_ecoul>  (28) 
-0.725973

>  <r_i_glide_erotb>  (28) 
0

>  <r_i_glide_esite>  (28) 
0

>  <r_i_glide_emodel>  (28) 
-24.8951

>  <r_i_glide_energy>  (28) 
-25.0885

>  <r_i_glide_einternal>  (28) 
0.813715

>  <r_i_glide_intrahb_reward>  (28) 
-0

>  <i_i_glide_confnum>  (28) 
2

>  <i_i_glide_posenum>  (28) 
37

>  <r_i_glide_eff_state_penalty>  (28) 
0

>  <ligand_id>  (28) 
7

>  <original_smiles>  (28) 
CC1CC(O)C2C1=CC(C)C1CC=C3OC3(C)C3(C)C4C(C)C(O)CC(C4(C)C)C(C)(C2O)C13

>  <smiles>  (28) 
[H]OC1([H])C([H])([H])C([H])(C([H])([H])[H])C2=C([H])C([H])(C([H])([H])[H])C3([H])C([H])([H])C([H])=C4OC4(C([H])([H])[H])C4(C([H])([H])[H])C5([H])C([H])(C([H])([H])[H])C([H])(O[H])C([H])([H])C([H])(C5(C([H])([H])[H])C([H])([H])[H])C(C([H])([H])[H])(C([H])(O[H])C21[H])C34[H]

$$$$
7:2:0
     RDKit          3D

 80 85  0  0  1  0  0  0  0  0999 V2000
    5.8271   -0.6573    1.4071 C   0  0  0  0  0  0  0  0  0  0  0  0
    5.5167   -2.0445    0.8332 C   0  0  2  0  0  0  0  0  0  0  0  0
    4.3900   -2.0082   -0.1826 C   0  0  0  0  0  0  0  0  0  0  0  0
    3.9996   -3.4825   -0.3654 C   0  0  1  0  0  0  0  0  0  0  0  0
    4.6478   -3.9979   -1.5127 O   0  0  0  0  0  0  0  0  0  0  0  0
    4.4518   -4.2287    0.9308 C   0  0  1  0  0  0  0  0  0  0  0  0
    5.0988   -3.1398    1.8097 C   0  0  0  0  0  0  0  0  0  0  0  0
    5.2923   -3.0339    3.1437 C   0  0  0  0  0  0  0  0  0  0  0  0
    5.0534   -3.9822    4.3420 C   0  0  1  0  0  0  0  0  0  0  0  0
    5.6502   -3.3795    5.6367 C   0  0  0  0  0  0  0  0  0  0  0  0
    3.5765   -4.3706    4.6034 C   0  0  1  0  0  0  0  0  0  0  0  0
    2.6242   -3.1117    4.4406 C   0  0  0  0  0  0  0  0  0  0  0  0
    1.1907   -3.4613    4.2491 C   0  0  0  0  0  0  0  0  0  0  0  0
    0.7362   -4.6002    4.7300 C   0  0  0  0  0  0  0  0  0  0  0  0
   -0.1956   -5.4862    4.4043 O   0  0  0  0  0  0  0  0  0  0  0  0
    0.9104   -5.8340    5.3861 C   0  0  2  0  0  0  0  0  0  0  0  0
    0.3535   -5.8131    6.8054 C   0  0  0  0  0  0  0  0  0  0  0  0
    2.1317   -6.7111    4.9755 C   0  0  1  0  0  0  0  0  0  0  0  0
    2.8082   -7.0598    6.3406 C   0  0  0  0  0  0  0  0  0  0  0  0
    1.7182   -8.1622    4.3825 C   0  0  1  0  0  0  0  0  0  0  0  0
    0.2570   -8.4253    3.9289 C   0  0  1  0  0  0  0  0  0  0  0  0
   -0.8369   -8.3792    4.9950 C   0  0  0  0  0  0  0  0  0  0  0  0
   -0.0722   -7.9057    2.5105 C   0  0  1  0  0  0  0  0  0  0  0  0
   -1.2377   -7.1090    2.4688 O   0  0  0  0  0  0  0  0  0  0  0  0
    1.1165   -7.2331    1.7512 C   0  0  0  0  0  0  0  0  0  0  0  0
    2.6140   -7.5164    2.2029 C   0  0  2  0  0  0  0  0  0  0  0  0
    2.6530   -8.6717    3.2426 C   0  0  0  0  0  0  0  0  0  0  0  0
    4.0108   -9.1439    3.8239 C   0  0  0  0  0  0  0  0  0  0  0  0
    2.2481   -9.9949    2.5062 C   0  0  0  0  0  0  0  0  0  0  0  0
    3.4889   -6.2409    2.5792 C   0  0  1  0  0  0  0  0  0  0  0  0
    4.9976   -6.6643    2.3805 C   0  0  0  0  0  0  0  0  0  0  0  0
    3.2882   -5.1158    1.4846 C   0  0  1  0  0  0  0  0  0  0  0  0
    2.2311   -4.2385    1.7464 O   0  0  0  0  0  0  0  0  0  0  0  0
    3.2071   -5.8488    4.1011 C   0  0  1  0  0  0  0  0  0  0  0  0
    6.7186   -0.6896    2.0334 H   0  0  0  0  0  0  0  0  0  0  0  0
    5.0065   -0.2536    1.9907 H   0  0  0  0  0  0  0  0  0  0  0  0
    6.0448    0.0387    0.5978 H   0  0  0  0  0  0  0  0  0  0  0  0
    6.4064   -2.4204    0.3269 H   0  0  0  0  0  0  0  0  0  0  0  0
    3.5402   -1.4697    0.2431 H   0  0  0  0  0  0  0  0  0  0  0  0
    4.6549   -1.5117   -1.1171 H   0  0  0  0  0  0  0  0  0  0  0  0
    2.9242   -3.5392   -0.5484 H   0  0  0  0  0  0  0  0  0  0  0  0
    4.1735   -4.7714   -1.7899 H   0  0  0  0  0  0  0  0  0  0  0  0
    5.2786   -4.8562    0.5951 H   0  0  0  0  0  0  0  0  0  0  0  0
    5.7719   -2.1268    3.4786 H   0  0  0  0  0  0  0  0  0  0  0  0
    5.6541   -4.8688    4.1817 H   0  0  0  0  0  0  0  0  0  0  0  0
    6.7139   -3.1997    5.5387 H   0  0  0  0  0  0  0  0  0  0  0  0
    5.5521   -4.0697    6.4756 H   0  0  0  0  0  0  0  0  0  0  0  0
    5.1793   -2.4340    5.9101 H   0  0  0  0  0  0  0  0  0  0  0  0
    3.5281   -4.5111    5.6804 H   0  0  0  0  0  0  0  0  0  0  0  0
    2.6817   -2.5020    5.3522 H   0  0  0  0  0  0  0  0  0  0  0  0
    2.9179   -2.4533    3.6199 H   0  0  0  0  0  0  0  0  0  0  0  0
    0.6106   -2.8611    3.5580 H   0  0  0  0  0  0  0  0  0  0  0  0
    1.0434   -5.2759    7.4553 H   0  0  0  0  0  0  0  0  0  0  0  0
    0.1536   -6.8082    7.1900 H   0  0  0  0  0  0  0  0  0  0  0  0
   -0.5920   -5.2530    6.8096 H   0  0  0  0  0  0  0  0  0  0  0  0
    3.7318   -7.6259    6.2490 H   0  0  0  0  0  0  0  0  0  0  0  0
    2.1684   -7.6794    6.9744 H   0  0  0  0  0  0  0  0  0  0  0  0
    3.0560   -6.1749    6.9270 H   0  0  0  0  0  0  0  0  0  0  0  0
    1.8509   -8.8974    5.1806 H   0  0  0  0  0  0  0  0  0  0  0  0
    0.2345   -9.5056    3.7918 H   0  0  0  0  0  0  0  0  0  0  0  0
   -1.2079   -7.3932    5.2339 H   0  0  0  0  0  0  0  0  0  0  0  0
   -0.4920   -8.8495    5.9184 H   0  0  0  0  0  0  0  0  0  0  0  0
   -1.7119   -8.9394    4.6716 H   0  0  0  0  0  0  0  0  0  0  0  0
   -0.3799   -8.7713    1.9260 H   0  0  0  0  0  0  0  0  0  0  0  0
   -1.9536   -7.6583    2.7628 H   0  0  0  0  0  0  0  0  0  0  0  0
    1.0170   -7.5347    0.7094 H   0  0  0  0  0  0  0  0  0  0  0  0
    0.8919   -6.1750    1.7610 H   0  0  0  0  0  0  0  0  0  0  0  0
    3.0743   -7.9186    1.2974 H   0  0  0  0  0  0  0  0  0  0  0  0
    4.7345   -9.3739    3.0386 H   0  0  0  0  0  0  0  0  0  0  0  0
    3.8872  -10.0610    4.4045 H   0  0  0  0  0  0  0  0  0  0  0  0
    4.4699   -8.4467    4.5117 H   0  0  0  0  0  0  0  0  0  0  0  0
    3.0507  -10.3496    1.8550 H   0  0  0  0  0  0  0  0  0  0  0  0
    1.3979   -9.9092    1.8364 H   0  0  0  0  0  0  0  0  0  0  0  0
    2.0303  -10.8079    3.2053 H   0  0  0  0  0  0  0  0  0  0  0  0
    5.7020   -5.8412    2.3500 H   0  0  0  0  0  0  0  0  0  0  0  0
    5.1495   -7.2182    1.4549 H   0  0  0  0  0  0  0  0  0  0  0  0
    5.4428   -7.2515    3.1736 H   0  0  0  0  0  0  0  0  0  0  0  0
    2.9716   -5.6586    0.5935 H   0  0  0  0  0  0  0  0  0  0  0  0
    2.4810   -3.7087    2.4881 H   0  0  0  0  0  0  0  0  0  0  0  0
    4.0793   -6.3252    4.5320 H   0  0  0  0  0  0  0  0  0  0  0  0
  1  2  1  0
  1 35  1  0
  1 36  1  0
  1 37  1  0
  2  7  1  0
  2  3  1  0
  2 38  1  6
  3  4  1  0
  3 39  1  0
  3 40  1  0
  4  5  1  0
  4  6  1  0
  4 41  1  6
  5 42  1  0
  6 32  1  0
  6  7  1  0
  6 43  1  6
  7  8  2  3
  8  9  1  0
  8 44  1  0
  9 10  1  0
  9 11  1  0
  9 45  1  6
 10 46  1  0
 10 47  1  0
 10 48  1  0
 11 34  1  0
 11 12  1  0
 11 49  1  1
 12 13  1  0
 12 50  1  0
 12 51  1  0
 13 14  2  0
 13 52  1  0
 14 16  1  0
 14 15  1  0
 15 16  1  0
 16 17  1  1
 16 18  1  0
 17 53  1  0
 17 54  1  0
 17 55  1  0
 18 34  1  0
 18 19  1  1
 18 20  1  0
 19 56  1  0
 19 57  1  0
 19 58  1  0
 20 27  1  0
 20 21  1  0
 20 59  1  1
 21 22  1  0
 21 23  1  0
 21 60  1  6
 22 61  1  0
 22 62  1  0
 22 63  1  0
 23 24  1  0
 23 25  1  0
 23 64  1  6
 24 65  1  0
 25 26  1  0
 25 66  1  0
 25 67  1  0
 26 27  1  0
 26 30  1  0
 26 68  1  6
 27 28  1  0
 27 29  1  0
 28 69  1  0
 28 70  1  0
 28 71  1  0
 29 72  1  0
 29 73  1  0
 29 74  1  0
 30 31  1  1
 30 32  1  0
 30 34  1  0
 31 75  1  0
 31 76  1  0
 31 77  1  0
 32 33  1  0
 32 78  1  6
 33 79  1  0
 34 80  1  1
M  END
>  <i_m_ct_stereo_status>  (29) 
1

>  <s_m_source_file>  (29) 
/var/tmp/pbs.5076255.sched01/tmp7e7yg0hy/0s0dyhj_r.sdf

>  <i_m_source_file_index>  (29) 
13

>  <i_lp_mmshare_version>  (29) 
48012

>  <i_f3d_flags>  (29) 
0

>  <s_epik_input>  (29) 
W09IXVtDQEBIXTFbQ0gyXVtDQEBIXShbQ0gzXSkvQyg9W0NIXS9bQ0BIXTJbQ0gzXSlbQ0BIXTFbQ0BIXShbT0hdKVtDQF0zKFtDSDNdKVtDQEBIXShDNChbQ0gzXSlbQ0gzXSlbQ0gyXVtDQEhdKFtPSF0pW0NASF0oW0NIM10pW0NAQEhdNFtDQEBdNShbQ0gzXSlbQ0BASF0zW0NAQEhdMltDSDJdW0NIXT1DKE82KUM1NltDSDNd

>  <s_epik_cmdline>  (29) 
J2VwaWtfcHl0aG9uJywgJy1waHQnLCAnMi4wJywgJy1waCcsICc3LjAnLCAnLXRuJywgJzgnLCAnLW1hJywgJzIwMCcsICctaW1hZScsICc8aW5maWxlLm1hZT4nLCAnLW9tYWUnLCAnPG91dGZpbGUubWFlPic=

>  <r_lp_tautomer_probability>  (29) 
1

>  <r_epik_Ionization_Penalty>  (29) 
2.9039e-06

>  <r_epik_Ionization_Penalty_Charging>  (29) 
0

>  <r_epik_Ionization_Penalty_Neutral>  (29) 
2.9039e-06

>  <r_epik_State_Penalty>  (29) 
-0

>  <r_epik_Charging_Adjusted_Penalty>  (29) 
0

>  <i_epik_Tot_Q>  (29) 
0

>  <i_epik_Tot_abs_Q>  (29) 
0

>  <s_lp_Force_Field>  (29) 
OPLS3e

>  <r_lp_Energy>  (29) 
149.379

>  <b_lp_Chiralities_Consistent>  (29) 
1

>  <s_lp_Variant>  (29) 
7:0-3

>  <s_i_glide_gridfile>  (29) 
pfpi4k_grid

>  <i_i_glide_lignum>  (29) 
13

>  <i_i_glide_rotatable_bonds>  (29) 
3

>  <r_i_docking_score>  (29) 
-3.26442

>  <r_i_glide_ligand_efficiency>  (29) 
-0.0960123

>  <r_i_glide_ligand_efficiency_sa>  (29) 
-0.311043

>  <r_i_glide_ligand_efficiency_ln>  (29) 
-0.721202

>  <r_i_glide_gscore>  (29) 
-3.26442

>  <r_i_glide_lipo>  (29) 
-0.384483

>  <r_i_glide_hbond>  (29) 
-0.323221

>  <r_i_glide_metal>  (29) 
-0

>  <r_i_glide_rewards>  (29) 
-0.199883

>  <r_i_glide_evdw>  (29) 
-26.6906

>  <r_i_glide_ecoul>  (29) 
-6.81536

>  <r_i_glide_erotb>  (29) 
0

>  <r_i_glide_esite>  (29) 
0

>  <r_i_glide_emodel>  (29) 
-39.4545

>  <r_i_glide_energy>  (29) 
-33.5059

>  <r_i_glide_einternal>  (29) 
1.00454

>  <r_i_glide_intrahb_reward>  (29) 
-0

>  <i_i_glide_confnum>  (29) 
1

>  <i_i_glide_posenum>  (29) 
19

>  <r_i_glide_eff_state_penalty>  (29) 
0

>  <ligand_id>  (29) 
7

>  <original_smiles>  (29) 
CC1CC(O)C2C1=CC(C)C1CC=C3OC3(C)C3(C)C4C(C)C(O)CC(C4(C)C)C(C)(C2O)C13

>  <smiles>  (29) 
[H]OC1([H])C([H])([H])C([H])(C([H])([H])[H])C2=C([H])C([H])(C([H])([H])[H])C3([H])C([H])([H])C([H])=C4OC4(C([H])([H])[H])C4(C([H])([H])[H])C5([H])C([H])(C([H])([H])[H])C([H])(O[H])C([H])([H])C([H])(C5(C([H])([H])[H])C([H])([H])[H])C(C([H])([H])[H])(C([H])(O[H])C21[H])C34[H]

$$$$
7:2:1
     RDKit          3D

 80 85  0  0  1  0  0  0  0  0999 V2000
    4.6571   -0.5518    1.3202 C   0  0  0  0  0  0  0  0  0  0  0  0
    4.7784   -1.9975    0.8224 C   0  0  2  0  0  0  0  0  0  0  0  0
    3.7116   -2.3673   -0.1958 C   0  0  0  0  0  0  0  0  0  0  0  0
    3.8055   -3.8991   -0.2957 C   0  0  1  0  0  0  0  0  0  0  0  0
    4.6168   -4.2504   -1.4009 O   0  0  0  0  0  0  0  0  0  0  0  0
    4.4213   -4.4041    1.0437 C   0  0  1  0  0  0  0  0  0  0  0  0
    4.7001   -3.1230    1.8537 C   0  0  0  0  0  0  0  0  0  0  0  0
    4.8372   -2.9002    3.1788 C   0  0  0  0  0  0  0  0  0  0  0  0
    4.8748   -3.8197    4.4217 C   0  0  1  0  0  0  0  0  0  0  0  0
    5.2422   -2.9836    5.6681 C   0  0  0  0  0  0  0  0  0  0  0  0
    3.5771   -4.6337    4.7077 C   0  0  1  0  0  0  0  0  0  0  0  0
    2.2881   -3.7482    4.4807 C   0  0  0  0  0  0  0  0  0  0  0  0
    1.0337   -4.5349    4.2926 C   0  0  0  0  0  0  0  0  0  0  0  0
    0.9292   -5.7417    4.8271 C   0  0  0  0  0  0  0  0  0  0  0  0
    0.2554   -6.8572    4.5503 O   0  0  0  0  0  0  0  0  0  0  0  0
    1.4475   -6.8272    5.5417 C   0  0  2  0  0  0  0  0  0  0  0  0
    0.9019   -6.8913    6.9625 C   0  0  0  0  0  0  0  0  0  0  0  0
    2.9008   -7.2886    5.1880 C   0  0  1  0  0  0  0  0  0  0  0  0
    3.6298   -7.3364    6.5753 C   0  0  0  0  0  0  0  0  0  0  0  0
    2.9822   -8.8254    4.6844 C   0  0  1  0  0  0  0  0  0  0  0  0
    1.6816   -9.5606    4.2603 C   0  0  1  0  0  0  0  0  0  0  0  0
    0.6184   -9.8367    5.3386 C   0  0  0  0  0  0  0  0  0  0  0  0
    1.2342   -9.2447    2.8115 C   0  0  1  0  0  0  0  0  0  0  0  0
   -0.1165   -8.8385    2.7377 O   0  0  0  0  0  0  0  0  0  0  0  0
    2.1715   -8.2752    2.0118 C   0  0  0  0  0  0  0  0  0  0  0  0
    3.6752   -8.0393    2.4775 C   0  0  2  0  0  0  0  0  0  0  0  0
    4.0533   -9.0726    3.5751 C   0  0  0  0  0  0  0  0  0  0  0  0
    5.4804   -9.0678    4.1836 C   0  0  0  0  0  0  0  0  0  0  0  0
    4.0948  -10.4908    2.9105 C   0  0  0  0  0  0  0  0  0  0  0  0
    4.0989   -6.5352    2.7827 C   0  0  1  0  0  0  0  0  0  0  0  0
    5.6717   -6.4791    2.6098 C   0  0  0  0  0  0  0  0  0  0  0  0
    3.5672   -5.5778    1.6342 C   0  0  1  0  0  0  0  0  0  0  0  0
    2.2579   -5.1026    1.8071 O   0  0  0  0  0  0  0  0  0  0  0  0
    3.6823   -6.1781    4.2809 C   0  0  1  0  0  0  0  0  0  0  0  0
    5.4993   -0.2706    1.9463 H   0  0  0  0  0  0  0  0  0  0  0  0
    3.7373   -0.3916    1.8751 H   0  0  0  0  0  0  0  0  0  0  0  0
    4.6501    0.1397    0.4749 H   0  0  0  0  0  0  0  0  0  0  0  0
    5.7474   -2.1146    0.3331 H   0  0  0  0  0  0  0  0  0  0  0  0
    2.7297   -2.1083    0.2024 H   0  0  0  0  0  0  0  0  0  0  0  0
    3.8188   -1.8632   -1.1572 H   0  0  0  0  0  0  0  0  0  0  0  0
    2.8102   -4.3009   -0.4969 H   0  0  0  0  0  0  0  0  0  0  0  0
    4.1462   -4.9185   -1.8957 H   0  0  0  0  0  0  0  0  0  0  0  0
    5.4037   -4.7676    0.7440 H   0  0  0  0  0  0  0  0  0  0  0  0
    5.0190   -1.8718    3.4667 H   0  0  0  0  0  0  0  0  0  0  0  0
    5.7234   -4.4834    4.3155 H   0  0  0  0  0  0  0  0  0  0  0  0
    6.1928   -2.4710    5.5289 H   0  0  0  0  0  0  0  0  0  0  0  0
    5.3592   -3.6193    6.5472 H   0  0  0  0  0  0  0  0  0  0  0  0
    4.4901   -2.2271    5.8986 H   0  0  0  0  0  0  0  0  0  0  0  0
    3.5627   -4.7270    5.7918 H   0  0  0  0  0  0  0  0  0  0  0  0
    2.1423   -3.0936    5.3482 H   0  0  0  0  0  0  0  0  0  0  0  0
    2.3827   -3.0965    3.6129 H   0  0  0  0  0  0  0  0  0  0  0  0
    0.3104   -4.1329    3.5904 H   0  0  0  0  0  0  0  0  0  0  0  0
    1.3955   -6.1366    7.5702 H   0  0  0  0  0  0  0  0  0  0  0  0
    1.0213   -7.8748    7.4042 H   0  0  0  0  0  0  0  0  0  0  0  0
   -0.1694   -6.6499    6.9569 H   0  0  0  0  0  0  0  0  0  0  0  0
    4.6842   -7.5902    6.5167 H   0  0  0  0  0  0  0  0  0  0  0  0
    3.2118   -8.0912    7.2455 H   0  0  0  0  0  0  0  0  0  0  0  0
    3.5892   -6.3924    7.1172 H   0  0  0  0  0  0  0  0  0  0  0  0
    3.3262   -9.4355    5.5244 H   0  0  0  0  0  0  0  0  0  0  0  0
    2.0111  -10.5959    4.1709 H   0  0  0  0  0  0  0  0  0  0  0  0
   -0.0915   -9.0299    5.4986 H   0  0  0  0  0  0  0  0  0  0  0  0
    1.0814  -10.0782    6.2938 H   0  0  0  0  0  0  0  0  0  0  0  0
    0.0335  -10.7132    5.0658 H   0  0  0  0  0  0  0  0  0  0  0  0
    1.2185  -10.1882    2.2661 H   0  0  0  0  0  0  0  0  0  0  0  0
   -0.6456   -9.5190    3.1290 H   0  0  0  0  0  0  0  0  0  0  0  0
    2.1934   -8.6511    0.9916 H   0  0  0  0  0  0  0  0  0  0  0  0
    1.6147   -7.3505    1.9398 H   0  0  0  0  0  0  0  0  0  0  0  0
    4.2530   -8.3226    1.5937 H   0  0  0  0  0  0  0  0  0  0  0  0
    6.2561   -9.0992    3.4153 H   0  0  0  0  0  0  0  0  0  0  0  0
    5.6393   -9.9461    4.8131 H   0  0  0  0  0  0  0  0  0  0  0  0
    5.6888   -8.2292    4.8343 H   0  0  0  0  0  0  0  0  0  0  0  0
    4.9772  -10.6152    2.2776 H   0  0  0  0  0  0  0  0  0  0  0  0
    3.2723  -10.7103    2.2341 H   0  0  0  0  0  0  0  0  0  0  0  0
    4.1240  -11.2964    3.6489 H   0  0  0  0  0  0  0  0  0  0  0  0
    6.0910   -5.4825    2.5369 H   0  0  0  0  0  0  0  0  0  0  0  0
    6.0109   -7.0065    1.7178 H   0  0  0  0  0  0  0  0  0  0  0  0
    6.2645   -6.8580    3.4342 H   0  0  0  0  0  0  0  0  0  0  0  0
    3.4796   -6.2406    0.7717 H   0  0  0  0  0  0  0  0  0  0  0  0
    1.8087   -5.7404    2.3437 H   0  0  0  0  0  0  0  0  0  0  0  0
    4.6532   -6.3405    4.7381 H   0  0  0  0  0  0  0  0  0  0  0  0
  1  2  1  0
  1 35  1  0
  1 36  1  0
  1 37  1  0
  2  7  1  0
  2  3  1  0
  2 38  1  6
  3  4  1  0
  3 39  1  0
  3 40  1  0
  4  5  1  0
  4  6  1  0
  4 41  1  6
  5 42  1  0
  6 32  1  0
  6  7  1  0
  6 43  1  6
  7  8  2  3
  8  9  1  0
  8 44  1  0
  9 10  1  0
  9 11  1  0
  9 45  1  6
 10 46  1  0
 10 47  1  0
 10 48  1  0
 11 34  1  0
 11 12  1  0
 11 49  1  1
 12 13  1  0
 12 50  1  0
 12 51  1  0
 13 14  2  0
 13 52  1  0
 14 16  1  0
 14 15  1  0
 15 16  1  0
 16 17  1  1
 16 18  1  0
 17 53  1  0
 17 54  1  0
 17 55  1  0
 18 34  1  0
 18 19  1  1
 18 20  1  0
 19 56  1  0
 19 57  1  0
 19 58  1  0
 20 27  1  0
 20 21  1  0
 20 59  1  1
 21 22  1  0
 21 23  1  0
 21 60  1  6
 22 61  1  0
 22 62  1  0
 22 63  1  0
 23 24  1  0
 23 25  1  0
 23 64  1  6
 24 65  1  0
 25 26  1  0
 25 66  1  0
 25 67  1  0
 26 27  1  0
 26 30  1  0
 26 68  1  6
 27 28  1  0
 27 29  1  0
 28 69  1  0
 28 70  1  0
 28 71  1  0
 29 72  1  0
 29 73  1  0
 29 74  1  0
 30 31  1  1
 30 32  1  0
 30 34  1  0
 31 75  1  0
 31 76  1  0
 31 77  1  0
 32 33  1  0
 32 78  1  6
 33 79  1  0
 34 80  1  1
M  END
>  <i_m_ct_stereo_status>  (30) 
1

>  <s_m_source_file>  (30) 
/var/tmp/pbs.5076255.sched01/tmp7e7yg0hy/0s0dyhj_r.sdf

>  <i_m_source_file_index>  (30) 
13

>  <i_lp_mmshare_version>  (30) 
48012

>  <i_f3d_flags>  (30) 
0

>  <s_epik_input>  (30) 
W09IXVtDQEBIXTFbQ0gyXVtDQEBIXShbQ0gzXSkvQyg9W0NIXS9bQ0BIXTJbQ0gzXSlbQ0BIXTFbQ0BIXShbT0hdKVtDQF0zKFtDSDNdKVtDQEBIXShDNChbQ0gzXSlbQ0gzXSlbQ0gyXVtDQEhdKFtPSF0pW0NASF0oW0NIM10pW0NAQEhdNFtDQEBdNShbQ0gzXSlbQ0BASF0zW0NAQEhdMltDSDJdW0NIXT1DKE82KUM1NltDSDNd

>  <s_epik_cmdline>  (30) 
J2VwaWtfcHl0aG9uJywgJy1waHQnLCAnMi4wJywgJy1waCcsICc3LjAnLCAnLXRuJywgJzgnLCAnLW1hJywgJzIwMCcsICctaW1hZScsICc8aW5maWxlLm1hZT4nLCAnLW9tYWUnLCAnPG91dGZpbGUubWFlPic=

>  <r_lp_tautomer_probability>  (30) 
1

>  <r_epik_Ionization_Penalty>  (30) 
2.9039e-06

>  <r_epik_Ionization_Penalty_Charging>  (30) 
0

>  <r_epik_Ionization_Penalty_Neutral>  (30) 
2.9039e-06

>  <r_epik_State_Penalty>  (30) 
-0

>  <r_epik_Charging_Adjusted_Penalty>  (30) 
0

>  <i_epik_Tot_Q>  (30) 
0

>  <i_epik_Tot_abs_Q>  (30) 
0

>  <s_lp_Force_Field>  (30) 
OPLS3e

>  <r_lp_Energy>  (30) 
149.379

>  <b_lp_Chiralities_Consistent>  (30) 
1

>  <s_lp_Variant>  (30) 
7:0-3

>  <s_i_glide_gridfile>  (30) 
pfpi4k_grid

>  <i_i_glide_lignum>  (30) 
13

>  <i_i_glide_rotatable_bonds>  (30) 
3

>  <r_i_docking_score>  (30) 
-3.02549

>  <r_i_glide_ligand_efficiency>  (30) 
-0.0889849

>  <r_i_glide_ligand_efficiency_sa>  (30) 
-0.288276

>  <r_i_glide_ligand_efficiency_ln>  (30) 
-0.668415

>  <r_i_glide_gscore>  (30) 
-3.02549

>  <r_i_glide_lipo>  (30) 
-0.320648

>  <r_i_glide_hbond>  (30) 
-0.32

>  <r_i_glide_metal>  (30) 
-0

>  <r_i_glide_rewards>  (30) 
-0.199883

>  <r_i_glide_evdw>  (30) 
-28.2137

>  <r_i_glide_ecoul>  (30) 
-5.16178

>  <r_i_glide_erotb>  (30) 
0

>  <r_i_glide_esite>  (30) 
0

>  <r_i_glide_emodel>  (30) 
-38.0203

>  <r_i_glide_energy>  (30) 
-33.3755

>  <r_i_glide_einternal>  (30) 
2.21451

>  <r_i_glide_intrahb_reward>  (30) 
-0

>  <i_i_glide_confnum>  (30) 
1

>  <i_i_glide_posenum>  (30) 
24

>  <r_i_glide_eff_state_penalty>  (30) 
0

>  <ligand_id>  (30) 
7

>  <original_smiles>  (30) 
CC1CC(O)C2C1=CC(C)C1CC=C3OC3(C)C3(C)C4C(C)C(O)CC(C4(C)C)C(C)(C2O)C13

>  <smiles>  (30) 
[H]OC1([H])C([H])([H])C([H])(C([H])([H])[H])C2=C([H])C([H])(C([H])([H])[H])C3([H])C([H])([H])C([H])=C4OC4(C([H])([H])[H])C4(C([H])([H])[H])C5([H])C([H])(C([H])([H])[H])C([H])(O[H])C([H])([H])C([H])(C5(C([H])([H])[H])C([H])([H])[H])C(C([H])([H])[H])(C([H])(O[H])C21[H])C34[H]

$$$$
7:2:2
     RDKit          3D

 80 85  0  0  1  0  0  0  0  0999 V2000
    5.5600   -0.3020    1.5429 C   0  0  0  0  0  0  0  0  0  0  0  0
    5.3618   -1.6769    0.9152 C   0  0  2  0  0  0  0  0  0  0  0  0
    4.2562   -1.6888   -0.1253 C   0  0  0  0  0  0  0  0  0  0  0  0
    3.9838   -3.1795   -0.3585 C   0  0  1  0  0  0  0  0  0  0  0  0
    4.6927   -3.6186   -1.5045 O   0  0  0  0  0  0  0  0  0  0  0  0
    4.4533   -3.9292    0.9318 C   0  0  1  0  0  0  0  0  0  0  0  0
    5.0075   -2.8255    1.8519 C   0  0  0  0  0  0  0  0  0  0  0  0
    5.1808   -2.7470    3.1931 C   0  0  0  0  0  0  0  0  0  0  0  0
    4.9957   -3.7437    4.3574 C   0  0  1  0  0  0  0  0  0  0  0  0
    5.5323   -3.1361    5.6774 C   0  0  0  0  0  0  0  0  0  0  0  0
    3.5434   -4.2500    4.5841 C   0  0  1  0  0  0  0  0  0  0  0  0
    2.5005   -3.0647    4.4418 C   0  0  0  0  0  0  0  0  0  0  0  0
    1.0914   -3.5098    4.2098 C   0  0  0  0  0  0  0  0  0  0  0  0
    0.7108   -4.6981    4.6293 C   0  0  0  0  0  0  0  0  0  0  0  0
   -0.1853   -5.6274    4.2851 O   0  0  0  0  0  0  0  0  0  0  0  0
    0.9569   -5.9379    5.2610 C   0  0  2  0  0  0  0  0  0  0  0  0
    0.3884   -5.9902    6.6658 C   0  0  0  0  0  0  0  0  0  0  0  0
    2.2539   -6.6954    4.8490 C   0  0  1  0  0  0  0  0  0  0  0  0
    2.9433   -7.0361    6.2196 C   0  0  0  0  0  0  0  0  0  0  0  0
    1.9775   -8.1573    4.2152 C   0  0  1  0  0  0  0  0  0  0  0  0
    0.5458   -8.5131    3.7359 C   0  0  1  0  0  0  0  0  0  0  0  0
   -0.5763   -8.5960    4.7805 C   0  0  0  0  0  0  0  0  0  0  0  0
    0.2076   -7.9752    2.3258 C   0  0  1  0  0  0  0  0  0  0  0  0
   -1.0034   -7.2522    2.2874 O   0  0  0  0  0  0  0  0  0  0  0  0
    1.3498   -7.1967    1.6030 C   0  0  0  0  0  0  0  0  0  0  0  0
    2.8548   -7.3821    2.0692 C   0  0  2  0  0  0  0  0  0  0  0  0
    2.9609   -8.5624    3.0758 C   0  0  0  0  0  0  0  0  0  0  0  0
    4.3427   -8.9507    3.6700 C   0  0  0  0  0  0  0  0  0  0  0  0
    2.6659   -9.8848    2.2919 C   0  0  0  0  0  0  0  0  0  0  0  0
    3.6232   -6.0566    2.4986 C   0  0  1  0  0  0  0  0  0  0  0  0
    5.1648   -6.3590    2.3159 C   0  0  0  0  0  0  0  0  0  0  0  0
    3.3593   -4.9168    1.4356 C   0  0  1  0  0  0  0  0  0  0  0  0
    2.2215   -4.1443    1.6947 O   0  0  0  0  0  0  0  0  0  0  0  0
    3.2890   -5.7332    4.0263 C   0  0  1  0  0  0  0  0  0  0  0  0
    6.4342   -0.3223    2.1923 H   0  0  0  0  0  0  0  0  0  0  0  0
    4.7043    0.0358    2.1159 H   0  0  0  0  0  0  0  0  0  0  0  0
    5.7574    0.4406    0.7654 H   0  0  0  0  0  0  0  0  0  0  0  0
    6.2909   -1.9672    0.4187 H   0  0  0  0  0  0  0  0  0  0  0  0
    3.3644   -1.2241    0.3008 H   0  0  0  0  0  0  0  0  0  0  0  0
    4.5036   -1.1405   -1.0356 H   0  0  0  0  0  0  0  0  0  0  0  0
    2.9218   -3.3100   -0.5719 H   0  0  0  0  0  0  0  0  0  0  0  0
    4.3005   -4.4271   -1.7956 H   0  0  0  0  0  0  0  0  0  0  0  0
    5.3336   -4.4804    0.6000 H   0  0  0  0  0  0  0  0  0  0  0  0
    5.5937   -1.8198    3.5619 H   0  0  0  0  0  0  0  0  0  0  0  0
    5.6638   -4.5796    4.1825 H   0  0  0  0  0  0  0  0  0  0  0  0
    6.5905   -2.8810    5.6046 H   0  0  0  0  0  0  0  0  0  0  0  0
    5.4650   -3.8556    6.4938 H   0  0  0  0  0  0  0  0  0  0  0  0
    4.9878   -2.2364    5.9680 H   0  0  0  0  0  0  0  0  0  0  0  0
    3.4911   -4.4258    5.6529 H   0  0  0  0  0  0  0  0  0  0  0  0
    2.5017   -2.4683    5.3646 H   0  0  0  0  0  0  0  0  0  0  0  0
    2.7507   -2.3772    3.6295 H   0  0  0  0  0  0  0  0  0  0  0  0
    0.4985   -2.9337    3.5256 H   0  0  0  0  0  0  0  0  0  0  0  0
    1.0347   -5.4231    7.3395 H   0  0  0  0  0  0  0  0  0  0  0  0
    0.2625   -7.0096    7.0225 H   0  0  0  0  0  0  0  0  0  0  0  0
   -0.5909   -5.5033    6.6757 H   0  0  0  0  0  0  0  0  0  0  0  0
    3.9057   -7.5281    6.1291 H   0  0  0  0  0  0  0  0  0  0  0  0
    2.3407   -7.7226    6.8229 H   0  0  0  0  0  0  0  0  0  0  0  0
    3.1127   -6.1564    6.8370 H   0  0  0  0  0  0  0  0  0  0  0  0
    2.1487   -8.9069    4.9939 H   0  0  0  0  0  0  0  0  0  0  0  0
    0.6092   -9.5853    3.5581 H   0  0  0  0  0  0  0  0  0  0  0  0
   -1.0504   -7.6584    5.0347 H   0  0  0  0  0  0  0  0  0  0  0  0
   -0.2143   -9.0617    5.7045 H   0  0  0  0  0  0  0  0  0  0  0  0
   -1.3662   -9.2258    4.3908 H   0  0  0  0  0  0  0  0  0  0  0  0
   -0.0330   -8.8365    1.7066 H   0  0  0  0  0  0  0  0  0  0  0  0
   -1.6867   -7.8564    2.5283 H   0  0  0  0  0  0  0  0  0  0  0  0
    1.2742   -7.4653    0.5515 H   0  0  0  0  0  0  0  0  0  0  0  0
    1.0395   -6.1634    1.6437 H   0  0  0  0  0  0  0  0  0  0  0  0
    3.3578   -7.7189    1.1583 H   0  0  0  0  0  0  0  0  0  0  0  0
    5.0925   -9.1031    2.8897 H   0  0  0  0  0  0  0  0  0  0  0  0
    4.2760   -9.8927    4.2198 H   0  0  0  0  0  0  0  0  0  0  0  0
    4.7373   -8.2437    4.3836 H   0  0  0  0  0  0  0  0  0  0  0  0
    3.5088  -10.1607    1.6495 H   0  0  0  0  0  0  0  0  0  0  0  0
    1.8256   -9.8484    1.6086 H   0  0  0  0  0  0  0  0  0  0  0  0
    2.5024  -10.7327    2.9633 H   0  0  0  0  0  0  0  0  0  0  0  0
    5.8082   -5.4877    2.3234 H   0  0  0  0  0  0  0  0  0  0  0  0
    5.3725   -6.8738    1.3742 H   0  0  0  0  0  0  0  0  0  0  0  0
    5.6379   -6.9391    3.0996 H   0  0  0  0  0  0  0  0  0  0  0  0
    3.1074   -5.4489    0.5235 H   0  0  0  0  0  0  0  0  0  0  0  0
    2.2416   -3.3666    1.1658 H   0  0  0  0  0  0  0  0  0  0  0  0
    4.1868   -6.1601    4.4568 H   0  0  0  0  0  0  0  0  0  0  0  0
  1  2  1  0
  1 35  1  0
  1 36  1  0
  1 37  1  0
  2  7  1  0
  2  3  1  0
  2 38  1  6
  3  4  1  0
  3 39  1  0
  3 40  1  0
  4  5  1  0
  4  6  1  0
  4 41  1  6
  5 42  1  0
  6 32  1  0
  6  7  1  0
  6 43  1  6
  7  8  2  3
  8  9  1  0
  8 44  1  0
  9 10  1  0
  9 11  1  0
  9 45  1  6
 10 46  1  0
 10 47  1  0
 10 48  1  0
 11 34  1  0
 11 12  1  0
 11 49  1  1
 12 13  1  0
 12 50  1  0
 12 51  1  0
 13 14  2  0
 13 52  1  0
 14 16  1  0
 14 15  1  0
 15 16  1  0
 16 17  1  1
 16 18  1  0
 17 53  1  0
 17 54  1  0
 17 55  1  0
 18 34  1  0
 18 19  1  1
 18 20  1  0
 19 56  1  0
 19 57  1  0
 19 58  1  0
 20 27  1  0
 20 21  1  0
 20 59  1  1
 21 22  1  0
 21 23  1  0
 21 60  1  6
 22 61  1  0
 22 62  1  0
 22 63  1  0
 23 24  1  0
 23 25  1  0
 23 64  1  6
 24 65  1  0
 25 26  1  0
 25 66  1  0
 25 67  1  0
 26 27  1  0
 26 30  1  0
 26 68  1  6
 27 28  1  0
 27 29  1  0
 28 69  1  0
 28 70  1  0
 28 71  1  0
 29 72  1  0
 29 73  1  0
 29 74  1  0
 30 31  1  1
 30 32  1  0
 30 34  1  0
 31 75  1  0
 31 76  1  0
 31 77  1  0
 32 33  1  0
 32 78  1  6
 33 79  1  0
 34 80  1  1
M  END
>  <i_m_ct_stereo_status>  (31) 
1

>  <s_m_source_file>  (31) 
/var/tmp/pbs.5076255.sched01/tmp7e7yg0hy/0s0dyhj_r.sdf

>  <i_m_source_file_index>  (31) 
13

>  <i_lp_mmshare_version>  (31) 
48012

>  <i_f3d_flags>  (31) 
0

>  <s_epik_input>  (31) 
W09IXVtDQEBIXTFbQ0gyXVtDQEBIXShbQ0gzXSkvQyg9W0NIXS9bQ0BIXTJbQ0gzXSlbQ0BIXTFbQ0BIXShbT0hdKVtDQF0zKFtDSDNdKVtDQEBIXShDNChbQ0gzXSlbQ0gzXSlbQ0gyXVtDQEhdKFtPSF0pW0NASF0oW0NIM10pW0NAQEhdNFtDQEBdNShbQ0gzXSlbQ0BASF0zW0NAQEhdMltDSDJdW0NIXT1DKE82KUM1NltDSDNd

>  <s_epik_cmdline>  (31) 
J2VwaWtfcHl0aG9uJywgJy1waHQnLCAnMi4wJywgJy1waCcsICc3LjAnLCAnLXRuJywgJzgnLCAnLW1hJywgJzIwMCcsICctaW1hZScsICc8aW5maWxlLm1hZT4nLCAnLW9tYWUnLCAnPG91dGZpbGUubWFlPic=

>  <r_lp_tautomer_probability>  (31) 
1

>  <r_epik_Ionization_Penalty>  (31) 
2.9039e-06

>  <r_epik_Ionization_Penalty_Charging>  (31) 
0

>  <r_epik_Ionization_Penalty_Neutral>  (31) 
2.9039e-06

>  <r_epik_State_Penalty>  (31) 
-0

>  <r_epik_Charging_Adjusted_Penalty>  (31) 
0

>  <i_epik_Tot_Q>  (31) 
0

>  <i_epik_Tot_abs_Q>  (31) 
0

>  <s_lp_Force_Field>  (31) 
OPLS3e

>  <r_lp_Energy>  (31) 
149.379

>  <b_lp_Chiralities_Consistent>  (31) 
1

>  <s_lp_Variant>  (31) 
7:0-3

>  <s_i_glide_gridfile>  (31) 
pfpi4k_grid

>  <i_i_glide_lignum>  (31) 
13

>  <i_i_glide_rotatable_bonds>  (31) 
3

>  <r_i_docking_score>  (31) 
-3.00848

>  <r_i_glide_ligand_efficiency>  (31) 
-0.0884848

>  <r_i_glide_ligand_efficiency_sa>  (31) 
-0.286656

>  <r_i_glide_ligand_efficiency_ln>  (31) 
-0.664658

>  <r_i_glide_gscore>  (31) 
-3.00848

>  <r_i_glide_lipo>  (31) 
-0.380718

>  <r_i_glide_hbond>  (31) 
-0.121081

>  <r_i_glide_metal>  (31) 
-0

>  <r_i_glide_rewards>  (31) 
-0.199883

>  <r_i_glide_evdw>  (31) 
-26.5138

>  <r_i_glide_ecoul>  (31) 
-6.54073

>  <r_i_glide_erotb>  (31) 
0

>  <r_i_glide_esite>  (31) 
0

>  <r_i_glide_emodel>  (31) 
-38.1241

>  <r_i_glide_energy>  (31) 
-33.0546

>  <r_i_glide_einternal>  (31) 
1.57699

>  <r_i_glide_intrahb_reward>  (31) 
-0

>  <i_i_glide_confnum>  (31) 
2

>  <i_i_glide_posenum>  (31) 
11

>  <r_i_glide_eff_state_penalty>  (31) 
0

>  <ligand_id>  (31) 
7

>  <original_smiles>  (31) 
CC1CC(O)C2C1=CC(C)C1CC=C3OC3(C)C3(C)C4C(C)C(O)CC(C4(C)C)C(C)(C2O)C13

>  <smiles>  (31) 
[H]OC1([H])C([H])([H])C([H])(C([H])([H])[H])C2=C([H])C([H])(C([H])([H])[H])C3([H])C([H])([H])C([H])=C4OC4(C([H])([H])[H])C4(C([H])([H])[H])C5([H])C([H])(C([H])([H])[H])C([H])(O[H])C([H])([H])C([H])(C5(C([H])([H])[H])C([H])([H])[H])C(C([H])([H])[H])(C([H])(O[H])C21[H])C34[H]

$$$$
7:3:0
     RDKit          3D

 80 85  0  0  1  0  0  0  0  0999 V2000
    1.5872  -11.4271    3.8569 C   0  0  0  0  0  0  0  0  0  0  0  0
    0.6584  -10.2148    3.8511 C   0  0  2  0  0  0  0  0  0  0  0  0
    0.0084   -9.9096    2.5107 C   0  0  0  0  0  0  0  0  0  0  0  0
   -0.6016   -8.5130    2.7096 C   0  0  1  0  0  0  0  0  0  0  0  0
   -1.8730   -8.6567    3.3179 O   0  0  0  0  0  0  0  0  0  0  0  0
    0.3820   -7.7605    3.6525 C   0  0  1  0  0  0  0  0  0  0  0  0
    1.1954   -8.8630    4.3199 C   0  0  0  0  0  0  0  0  0  0  0  0
    2.0388   -8.6440    5.3330 C   0  0  0  0  0  0  0  0  0  0  0  0
    3.5611   -8.7032    5.2128 C   0  0  1  0  0  0  0  0  0  0  0  0
    4.1765  -10.0738    5.5620 C   0  0  0  0  0  0  0  0  0  0  0  0
    4.1163   -8.0431    3.9097 C   0  0  1  0  0  0  0  0  0  0  0  0
    3.9116   -8.9790    2.6591 C   0  0  0  0  0  0  0  0  0  0  0  0
    4.3510   -8.3596    1.3739 C   0  0  0  0  0  0  0  0  0  0  0  0
    5.1906   -7.3525    1.3915 C   0  0  0  0  0  0  0  0  0  0  0  0
    5.5489   -6.3394    0.6038 O   0  0  0  0  0  0  0  0  0  0  0  0
    5.9509   -6.3828    2.0855 C   0  0  2  0  0  0  0  0  0  0  0  0
    7.4310   -6.7379    2.1871 C   0  0  0  0  0  0  0  0  0  0  0  0
    5.2030   -5.6084    3.2374 C   0  0  1  0  0  0  0  0  0  0  0  0
    6.2160   -5.6007    4.4326 C   0  0  0  0  0  0  0  0  0  0  0  0
    5.0130   -4.0294    2.9085 C   0  0  1  0  0  0  0  0  0  0  0  0
    5.1806   -3.4779    1.4549 C   0  0  1  0  0  0  0  0  0  0  0  0
    6.5937   -3.5078    0.8241 C   0  0  0  0  0  0  0  0  0  0  0  0
    3.9293   -3.7190    0.5683 C   0  0  1  0  0  0  0  0  0  0  0  0
    4.2820   -4.2540   -0.6885 O   0  0  0  0  0  0  0  0  0  0  0  0
    2.8795   -4.6185    1.2780 C   0  0  0  0  0  0  0  0  0  0  0  0
    2.5928   -4.4223    2.8236 C   0  0  2  0  0  0  0  0  0  0  0  0
    3.6671   -3.4703    3.4642 C   0  0  0  0  0  0  0  0  0  0  0  0
    3.7914   -3.2938    5.0098 C   0  0  0  0  0  0  0  0  0  0  0  0
    3.2881   -1.9939    3.0995 C   0  0  0  0  0  0  0  0  0  0  0  0
    2.4086   -5.8032    3.5901 C   0  0  1  0  0  0  0  0  0  0  0  0
    1.7493   -5.3726    4.9645 C   0  0  0  0  0  0  0  0  0  0  0  0
    1.2563   -6.6750    2.8881 C   0  0  1  0  0  0  0  0  0  0  0  0
    1.6389   -7.2437    1.6612 O   0  0  0  0  0  0  0  0  0  0  0  0
    3.8945   -6.4481    3.7736 C   0  0  1  0  0  0  0  0  0  0  0  0
    1.9119  -11.6772    4.8637 H   0  0  0  0  0  0  0  0  0  0  0  0
    2.4541  -11.3141    3.2139 H   0  0  0  0  0  0  0  0  0  0  0  0
    1.0380  -12.2874    3.4826 H   0  0  0  0  0  0  0  0  0  0  0  0
   -0.1499  -10.4440    4.5432 H   0  0  0  0  0  0  0  0  0  0  0  0
    0.7835   -9.8691    1.7466 H   0  0  0  0  0  0  0  0  0  0  0  0
   -0.7195  -10.6547    2.1854 H   0  0  0  0  0  0  0  0  0  0  0  0
   -0.7573   -8.0031    1.7550 H   0  0  0  0  0  0  0  0  0  0  0  0
   -1.8180   -9.3493    3.9715 H   0  0  0  0  0  0  0  0  0  0  0  0
   -0.2534   -7.3002    4.4050 H   0  0  0  0  0  0  0  0  0  0  0  0
    1.9034   -7.6789    5.7811 H   0  0  0  0  0  0  0  0  0  0  0  0
    3.9129   -8.0826    6.0355 H   0  0  0  0  0  0  0  0  0  0  0  0
    3.7937  -10.4392    6.5167 H   0  0  0  0  0  0  0  0  0  0  0  0
    5.2598   -9.9912    5.6583 H   0  0  0  0  0  0  0  0  0  0  0  0
    3.9906  -10.8390    4.8134 H   0  0  0  0  0  0  0  0  0  0  0  0
    5.1903   -8.1318    4.0679 H   0  0  0  0  0  0  0  0  0  0  0  0
    4.4876   -9.9023    2.7832 H   0  0  0  0  0  0  0  0  0  0  0  0
    2.8815   -9.2838    2.5419 H   0  0  0  0  0  0  0  0  0  0  0  0
    3.8738   -8.7230    0.4602 H   0  0  0  0  0  0  0  0  0  0  0  0
    7.5900   -7.4530    2.9902 H   0  0  0  0  0  0  0  0  0  0  0  0
    8.0521   -5.8595    2.3291 H   0  0  0  0  0  0  0  0  0  0  0  0
    7.7557   -7.2307    1.2595 H   0  0  0  0  0  0  0  0  0  0  0  0
    5.8572   -5.0925    5.3219 H   0  0  0  0  0  0  0  0  0  0  0  0
    7.1406   -5.0817    4.1930 H   0  0  0  0  0  0  0  0  0  0  0  0
    6.5063   -6.5959    4.7676 H   0  0  0  0  0  0  0  0  0  0  0  0
    5.7902   -3.4848    3.4452 H   0  0  0  0  0  0  0  0  0  0  0  0
    5.1567   -2.3986    1.5887 H   0  0  0  0  0  0  0  0  0  0  0  0
    6.9156   -4.4716    0.4498 H   0  0  0  0  0  0  0  0  0  0  0  0
    7.3357   -3.1836    1.5505 H   0  0  0  0  0  0  0  0  0  0  0  0
    6.6580   -2.8111   -0.0113 H   0  0  0  0  0  0  0  0  0  0  0  0
    3.4739   -2.7640    0.3140 H   0  0  0  0  0  0  0  0  0  0  0  0
    3.5021   -4.4791   -1.1805 H   0  0  0  0  0  0  0  0  0  0  0  0
    1.9430   -4.5738    0.7245 H   0  0  0  0  0  0  0  0  0  0  0  0
    3.2466   -5.6215    1.1237 H   0  0  0  0  0  0  0  0  0  0  0  0
    1.6383   -3.8916    2.8664 H   0  0  0  0  0  0  0  0  0  0  0  0
    2.8929   -2.8756    5.4683 H   0  0  0  0  0  0  0  0  0  0  0  0
    4.5972   -2.5981    5.2533 H   0  0  0  0  0  0  0  0  0  0  0  0
    4.0264   -4.1971    5.5519 H   0  0  0  0  0  0  0  0  0  0  0  0
    2.4370   -1.6417    3.6894 H   0  0  0  0  0  0  0  0  0  0  0  0
    2.9527   -1.8454    2.0769 H   0  0  0  0  0  0  0  0  0  0  0  0
    4.1090   -1.2953    3.2805 H   0  0  0  0  0  0  0  0  0  0  0  0
    2.3939   -5.4660    5.8371 H   0  0  0  0  0  0  0  0  0  0  0  0
    0.8615   -5.9061    5.2675 H   0  0  0  0  0  0  0  0  0  0  0  0
    1.3717   -4.3495    4.9519 H   0  0  0  0  0  0  0  0  0  0  0  0
    0.5135   -5.9361    2.5805 H   0  0  0  0  0  0  0  0  0  0  0  0
    2.2589   -7.9407    1.8440 H   0  0  0  0  0  0  0  0  0  0  0  0
    4.0203   -6.2285    4.8250 H   0  0  0  0  0  0  0  0  0  0  0  0
  1  2  1  0
  1 35  1  0
  1 36  1  0
  1 37  1  0
  2  7  1  0
  2  3  1  0
  2 38  1  1
  3  4  1  0
  3 39  1  0
  3 40  1  0
  4  5  1  0
  4  6  1  0
  4 41  1  6
  5 42  1  0
  6 32  1  0
  6  7  1  0
  6 43  1  1
  7  8  2  3
  8  9  1  0
  8 44  1  0
  9 10  1  0
  9 11  1  0
  9 45  1  1
 10 46  1  0
 10 47  1  0
 10 48  1  0
 11 34  1  0
 11 12  1  0
 11 49  1  1
 12 13  1  0
 12 50  1  0
 12 51  1  0
 13 14  2  0
 13 52  1  0
 14 16  1  0
 14 15  1  0
 15 16  1  0
 16 17  1  6
 16 18  1  0
 17 53  1  0
 17 54  1  0
 17 55  1  0
 18 34  1  0
 18 19  1  1
 18 20  1  0
 19 56  1  0
 19 57  1  0
 19 58  1  0
 20 27  1  0
 20 21  1  0
 20 59  1  1
 21 22  1  0
 21 23  1  0
 21 60  1  1
 22 61  1  0
 22 62  1  0
 22 63  1  0
 23 24  1  0
 23 25  1  0
 23 64  1  6
 24 65  1  0
 25 26  1  0
 25 66  1  0
 25 67  1  0
 26 27  1  0
 26 30  1  0
 26 68  1  6
 27 28  1  0
 27 29  1  0
 28 69  1  0
 28 70  1  0
 28 71  1  0
 29 72  1  0
 29 73  1  0
 29 74  1  0
 30 31  1  1
 30 32  1  0
 30 34  1  0
 31 75  1  0
 31 76  1  0
 31 77  1  0
 32 33  1  0
 32 78  1  6
 33 79  1  0
 34 80  1  1
M  END
>  <i_m_ct_stereo_status>  (32) 
1

>  <s_m_source_file>  (32) 
/var/tmp/pbs.5076255.sched01/tmp7e7yg0hy/0s0dyhj_r.sdf

>  <i_m_source_file_index>  (32) 
14

>  <i_lp_mmshare_version>  (32) 
48012

>  <i_f3d_flags>  (32) 
0

>  <s_epik_input>  (32) 
W09IXVtDQEBIXTFbQ0gyXVtDQEBIXShbQ0gzXSkvQyg9W0NIXS9bQ0BIXTJbQ0gzXSlbQ0BIXTFbQ0BIXShbT0hdKVtDQF0zKFtDSDNdKVtDQEBIXShDNChbQ0gzXSlbQ0gzXSlbQ0gyXVtDQEhdKFtPSF0pW0NASF0oW0NIM10pW0NAQEhdNFtDQEBdNShbQ0gzXSlbQ0BASF0zW0NAQEhdMltDSDJdW0NIXT1DKE82KUM1NltDSDNd

>  <s_epik_cmdline>  (32) 
J2VwaWtfcHl0aG9uJywgJy1waHQnLCAnMi4wJywgJy1waCcsICc3LjAnLCAnLXRuJywgJzgnLCAnLW1hJywgJzIwMCcsICctaW1hZScsICc8aW5maWxlLm1hZT4nLCAnLW9tYWUnLCAnPG91dGZpbGUubWFlPic=

>  <r_lp_tautomer_probability>  (32) 
1

>  <r_epik_Ionization_Penalty>  (32) 
2.9039e-06

>  <r_epik_Ionization_Penalty_Charging>  (32) 
0

>  <r_epik_Ionization_Penalty_Neutral>  (32) 
2.9039e-06

>  <r_epik_State_Penalty>  (32) 
-0

>  <r_epik_Charging_Adjusted_Penalty>  (32) 
0

>  <i_epik_Tot_Q>  (32) 
0

>  <i_epik_Tot_abs_Q>  (32) 
0

>  <s_lp_Force_Field>  (32) 
OPLS3e

>  <r_lp_Energy>  (32) 
198.249

>  <b_lp_Chiralities_Consistent>  (32) 
1

>  <s_lp_Variant>  (32) 
7:0-4

>  <s_i_glide_gridfile>  (32) 
pfpi4k_grid

>  <i_i_glide_lignum>  (32) 
14

>  <i_i_glide_rotatable_bonds>  (32) 
3

>  <r_i_docking_score>  (32) 
-3.10652

>  <r_i_glide_ligand_efficiency>  (32) 
-0.0913682

>  <r_i_glide_ligand_efficiency_sa>  (32) 
-0.295997

>  <r_i_glide_ligand_efficiency_ln>  (32) 
-0.686317

>  <r_i_glide_gscore>  (32) 
-3.10652

>  <r_i_glide_lipo>  (32) 
-0.47014

>  <r_i_glide_hbond>  (32) 
-0.141007

>  <r_i_glide_metal>  (32) 
-0

>  <r_i_glide_rewards>  (32) 
-0.199883

>  <r_i_glide_evdw>  (32) 
-31.3088

>  <r_i_glide_ecoul>  (32) 
-4.86698

>  <r_i_glide_erotb>  (32) 
0

>  <r_i_glide_esite>  (32) 
0

>  <r_i_glide_emodel>  (32) 
-42.7961

>  <r_i_glide_energy>  (32) 
-36.1758

>  <r_i_glide_einternal>  (32) 
0.777791

>  <r_i_glide_intrahb_reward>  (32) 
-0

>  <i_i_glide_confnum>  (32) 
1

>  <i_i_glide_posenum>  (32) 
18

>  <r_i_glide_eff_state_penalty>  (32) 
0

>  <ligand_id>  (32) 
7

>  <original_smiles>  (32) 
CC1CC(O)C2C1=CC(C)C1CC=C3OC3(C)C3(C)C4C(C)C(O)CC(C4(C)C)C(C)(C2O)C13

>  <smiles>  (32) 
[H]OC1([H])C([H])([H])C([H])(C([H])([H])[H])C2=C([H])C([H])(C([H])([H])[H])C3([H])C([H])([H])C([H])=C4OC4(C([H])([H])[H])C4(C([H])([H])[H])C5([H])C([H])(C([H])([H])[H])C([H])(O[H])C([H])([H])C([H])(C5(C([H])([H])[H])C([H])([H])[H])C(C([H])([H])[H])(C([H])(O[H])C21[H])C34[H]

$$$$
7:3:1
     RDKit          3D

 80 85  0  0  1  0  0  0  0  0999 V2000
    1.5132  -11.0773    3.0778 C   0  0  0  0  0  0  0  0  0  0  0  0
    0.5511  -10.0380    3.6345 C   0  0  2  0  0  0  0  0  0  0  0  0
   -0.3580   -9.3781    2.5998 C   0  0  0  0  0  0  0  0  0  0  0  0
   -0.9624   -8.1899    3.3624 C   0  0  1  0  0  0  0  0  0  0  0  0
   -2.1088   -8.6517    4.0462 O   0  0  0  0  0  0  0  0  0  0  0  0
    0.1404   -7.7022    4.3430 C   0  0  1  0  0  0  0  0  0  0  0  0
    1.1056   -8.8743    4.4468 C   0  0  0  0  0  0  0  0  0  0  0  0
    2.1171   -8.9193    5.3232 C   0  0  0  0  0  0  0  0  0  0  0  0
    3.5924   -8.7788    4.9447 C   0  0  1  0  0  0  0  0  0  0  0  0
    4.3183  -10.1151    4.6880 C   0  0  0  0  0  0  0  0  0  0  0  0
    3.8669   -7.6638    3.8891 C   0  0  1  0  0  0  0  0  0  0  0  0
    3.4707   -8.1430    2.4454 C   0  0  0  0  0  0  0  0  0  0  0  0
    3.6257   -7.0763    1.4173 C   0  0  0  0  0  0  0  0  0  0  0  0
    4.4190   -6.0514    1.6380 C   0  0  0  0  0  0  0  0  0  0  0  0
    4.5693   -4.8092    1.1839 O   0  0  0  0  0  0  0  0  0  0  0  0
    5.2602   -5.3110    2.4799 C   0  0  2  0  0  0  0  0  0  0  0  0
    6.7347   -5.5330    2.1834 C   0  0  0  0  0  0  0  0  0  0  0  0
    4.7098   -5.0447    3.9295 C   0  0  1  0  0  0  0  0  0  0  0  0
    5.9222   -5.3469    4.8750 C   0  0  0  0  0  0  0  0  0  0  0  0
    4.3951   -3.4742    4.2071 C   0  0  1  0  0  0  0  0  0  0  0  0
    4.2562   -2.4535    3.0258 C   0  0  1  0  0  0  0  0  0  0  0  0
    5.5045   -2.1161    2.1821 C   0  0  0  0  0  0  0  0  0  0  0  0
    2.8720   -2.5052    2.3335 C   0  0  1  0  0  0  0  0  0  0  0  0
    2.9724   -2.5310    0.9214 O   0  0  0  0  0  0  0  0  0  0  0  0
    2.0276   -3.7012    2.8545 C   0  0  0  0  0  0  0  0  0  0  0  0
    2.0196   -4.0670    4.3931 C   0  0  2  0  0  0  0  0  0  0  0  0
    3.1567   -3.2801    5.1371 C   0  0  0  0  0  0  0  0  0  0  0  0
    3.5580   -3.6196    6.6063 C   0  0  0  0  0  0  0  0  0  0  0  0
    2.6492   -1.8145    5.3765 C   0  0  0  0  0  0  0  0  0  0  0  0
    2.0404   -5.6369    4.6432 C   0  0  1  0  0  0  0  0  0  0  0  0
    1.6283   -5.7650    6.1702 C   0  0  0  0  0  0  0  0  0  0  0  0
    0.8078   -6.3378    3.8754 C   0  0  1  0  0  0  0  0  0  0  0  0
    0.9742   -6.4157    2.4763 O   0  0  0  0  0  0  0  0  0  0  0  0
    3.5568   -6.1480    4.3471 C   0  0  1  0  0  0  0  0  0  0  0  0
    2.0350  -11.6105    3.8689 H   0  0  0  0  0  0  0  0  0  0  0  0
    2.2354  -10.6618    2.3805 H   0  0  0  0  0  0  0  0  0  0  0  0
    0.9456  -11.8288    2.5272 H   0  0  0  0  0  0  0  0  0  0  0  0
   -0.1079  -10.5731    4.3183 H   0  0  0  0  0  0  0  0  0  0  0  0
    0.2475   -8.9968    1.7760 H   0  0  0  0  0  0  0  0  0  0  0  0
   -1.1070  -10.0487    2.1804 H   0  0  0  0  0  0  0  0  0  0  0  0
   -1.3079   -7.4112    2.6855 H   0  0  0  0  0  0  0  0  0  0  0  0
   -1.9580   -9.5116    4.4329 H   0  0  0  0  0  0  0  0  0  0  0  0
   -0.3660   -7.5846    5.2963 H   0  0  0  0  0  0  0  0  0  0  0  0
    2.0312   -8.1813    6.0959 H   0  0  0  0  0  0  0  0  0  0  0  0
    4.0681   -8.4387    5.8645 H   0  0  0  0  0  0  0  0  0  0  0  0
    4.1416  -10.8172    5.5039 H   0  0  0  0  0  0  0  0  0  0  0  0
    5.3966   -9.9574    4.6260 H   0  0  0  0  0  0  0  0  0  0  0  0
    4.0270  -10.6003    3.7603 H   0  0  0  0  0  0  0  0  0  0  0  0
    4.9528   -7.6909    3.8249 H   0  0  0  0  0  0  0  0  0  0  0  0
    4.0953   -8.9898    2.1385 H   0  0  0  0  0  0  0  0  0  0  0  0
    2.4483   -8.4939    2.3934 H   0  0  0  0  0  0  0  0  0  0  0  0
    2.9778   -7.1265    0.5561 H   0  0  0  0  0  0  0  0  0  0  0  0
    7.0772   -6.4457    2.6713 H   0  0  0  0  0  0  0  0  0  0  0  0
    7.3369   -4.6819    2.4750 H   0  0  0  0  0  0  0  0  0  0  0  0
    6.8783   -5.6748    1.1030 H   0  0  0  0  0  0  0  0  0  0  0  0
    5.7150   -5.2014    5.9315 H   0  0  0  0  0  0  0  0  0  0  0  0
    6.7699   -4.6982    4.6914 H   0  0  0  0  0  0  0  0  0  0  0  0
    6.3052   -6.3613    4.7909 H   0  0  0  0  0  0  0  0  0  0  0  0
    5.2388   -3.0660    4.7664 H   0  0  0  0  0  0  0  0  0  0  0  0
    4.2152   -1.4912    3.5318 H   0  0  0  0  0  0  0  0  0  0  0  0
    5.8033   -2.8674    1.4614 H   0  0  0  0  0  0  0  0  0  0  0  0
    6.3479   -1.9557    2.8364 H   0  0  0  0  0  0  0  0  0  0  0  0
    5.3784   -1.1779    1.6444 H   0  0  0  0  0  0  0  0  0  0  0  0
    2.3449   -1.5727    2.5175 H   0  0  0  0  0  0  0  0  0  0  0  0
    2.2908   -1.9954    0.5364 H   0  0  0  0  0  0  0  0  0  0  0  0
    1.0100   -3.5601    2.5250 H   0  0  0  0  0  0  0  0  0  0  0  0
    2.3898   -4.5514    2.2962 H   0  0  0  0  0  0  0  0  0  0  0  0
    1.0682   -3.6863    4.7672 H   0  0  0  0  0  0  0  0  0  0  0  0
    2.7448   -3.4786    7.3206 H   0  0  0  0  0  0  0  0  0  0  0  0
    4.3665   -2.9694    6.9443 H   0  0  0  0  0  0  0  0  0  0  0  0
    3.9265   -4.6249    6.7510 H   0  0  0  0  0  0  0  0  0  0  0  0
    1.9097   -1.7700    6.1801 H   0  0  0  0  0  0  0  0  0  0  0  0
    2.1208   -1.3705    4.5375 H   0  0  0  0  0  0  0  0  0  0  0  0
    3.4570   -1.1326    5.6503 H   0  0  0  0  0  0  0  0  0  0  0  0
    2.4292   -6.0778    6.8402 H   0  0  0  0  0  0  0  0  0  0  0  0
    0.8370   -6.4587    6.4088 H   0  0  0  0  0  0  0  0  0  0  0  0
    1.2161   -4.8425    6.5791 H   0  0  0  0  0  0  0  0  0  0  0  0
   -0.0094   -5.6210    3.9734 H   0  0  0  0  0  0  0  0  0  0  0  0
    1.6834   -7.0225    2.3112 H   0  0  0  0  0  0  0  0  0  0  0  0
    3.8660   -6.2837    5.3752 H   0  0  0  0  0  0  0  0  0  0  0  0
  1  2  1  0
  1 35  1  0
  1 36  1  0
  1 37  1  0
  2  7  1  0
  2  3  1  0
  2 38  1  1
  3  4  1  0
  3 39  1  0
  3 40  1  0
  4  5  1  0
  4  6  1  0
  4 41  1  6
  5 42  1  0
  6 32  1  0
  6  7  1  0
  6 43  1  1
  7  8  2  3
  8  9  1  0
  8 44  1  0
  9 10  1  0
  9 11  1  0
  9 45  1  1
 10 46  1  0
 10 47  1  0
 10 48  1  0
 11 34  1  0
 11 12  1  0
 11 49  1  6
 12 13  1  0
 12 50  1  0
 12 51  1  0
 13 14  2  0
 13 52  1  0
 14 16  1  0
 14 15  1  0
 15 16  1  0
 16 17  1  1
 16 18  1  0
 17 53  1  0
 17 54  1  0
 17 55  1  0
 18 34  1  0
 18 19  1  1
 18 20  1  0
 19 56  1  0
 19 57  1  0
 19 58  1  0
 20 27  1  0
 20 21  1  0
 20 59  1  1
 21 22  1  0
 21 23  1  0
 21 60  1  1
 22 61  1  0
 22 62  1  0
 22 63  1  0
 23 24  1  0
 23 25  1  0
 23 64  1  6
 24 65  1  0
 25 26  1  0
 25 66  1  0
 25 67  1  0
 26 27  1  0
 26 30  1  0
 26 68  1  1
 27 28  1  0
 27 29  1  0
 28 69  1  0
 28 70  1  0
 28 71  1  0
 29 72  1  0
 29 73  1  0
 29 74  1  0
 30 31  1  1
 30 32  1  0
 30 34  1  0
 31 75  1  0
 31 76  1  0
 31 77  1  0
 32 33  1  0
 32 78  1  6
 33 79  1  0
 34 80  1  1
M  END
>  <i_m_ct_stereo_status>  (33) 
1

>  <s_m_source_file>  (33) 
/var/tmp/pbs.5076255.sched01/tmp7e7yg0hy/0s0dyhj_r.sdf

>  <i_m_source_file_index>  (33) 
14

>  <i_lp_mmshare_version>  (33) 
48012

>  <i_f3d_flags>  (33) 
0

>  <s_epik_input>  (33) 
W09IXVtDQEBIXTFbQ0gyXVtDQEBIXShbQ0gzXSkvQyg9W0NIXS9bQ0BIXTJbQ0gzXSlbQ0BIXTFbQ0BIXShbT0hdKVtDQF0zKFtDSDNdKVtDQEBIXShDNChbQ0gzXSlbQ0gzXSlbQ0gyXVtDQEhdKFtPSF0pW0NASF0oW0NIM10pW0NAQEhdNFtDQEBdNShbQ0gzXSlbQ0BASF0zW0NAQEhdMltDSDJdW0NIXT1DKE82KUM1NltDSDNd

>  <s_epik_cmdline>  (33) 
J2VwaWtfcHl0aG9uJywgJy1waHQnLCAnMi4wJywgJy1waCcsICc3LjAnLCAnLXRuJywgJzgnLCAnLW1hJywgJzIwMCcsICctaW1hZScsICc8aW5maWxlLm1hZT4nLCAnLW9tYWUnLCAnPG91dGZpbGUubWFlPic=

>  <r_lp_tautomer_probability>  (33) 
1

>  <r_epik_Ionization_Penalty>  (33) 
2.9039e-06

>  <r_epik_Ionization_Penalty_Charging>  (33) 
0

>  <r_epik_Ionization_Penalty_Neutral>  (33) 
2.9039e-06

>  <r_epik_State_Penalty>  (33) 
-0

>  <r_epik_Charging_Adjusted_Penalty>  (33) 
0

>  <i_epik_Tot_Q>  (33) 
0

>  <i_epik_Tot_abs_Q>  (33) 
0

>  <s_lp_Force_Field>  (33) 
OPLS3e

>  <r_lp_Energy>  (33) 
198.249

>  <b_lp_Chiralities_Consistent>  (33) 
1

>  <s_lp_Variant>  (33) 
7:0-4

>  <s_i_glide_gridfile>  (33) 
pfpi4k_grid

>  <i_i_glide_lignum>  (33) 
14

>  <i_i_glide_rotatable_bonds>  (33) 
3

>  <r_i_docking_score>  (33) 
-2.92249

>  <r_i_glide_ligand_efficiency>  (33) 
-0.0859557

>  <r_i_glide_ligand_efficiency_sa>  (33) 
-0.278463

>  <r_i_glide_ligand_efficiency_ln>  (33) 
-0.645661

>  <r_i_glide_gscore>  (33) 
-2.92249

>  <r_i_glide_lipo>  (33) 
-0.403279

>  <r_i_glide_hbond>  (33) 
-0.16

>  <r_i_glide_metal>  (33) 
-0

>  <r_i_glide_rewards>  (33) 
-0.199883

>  <r_i_glide_evdw>  (33) 
-22.8393

>  <r_i_glide_ecoul>  (33) 
-6.78247

>  <r_i_glide_erotb>  (33) 
0

>  <r_i_glide_esite>  (33) 
0

>  <r_i_glide_emodel>  (33) 
-35.1334

>  <r_i_glide_energy>  (33) 
-29.6217

>  <r_i_glide_einternal>  (33) 
1.35305

>  <r_i_glide_intrahb_reward>  (33) 
-0

>  <i_i_glide_confnum>  (33) 
1

>  <i_i_glide_posenum>  (33) 
13

>  <r_i_glide_eff_state_penalty>  (33) 
0

>  <ligand_id>  (33) 
7

>  <original_smiles>  (33) 
CC1CC(O)C2C1=CC(C)C1CC=C3OC3(C)C3(C)C4C(C)C(O)CC(C4(C)C)C(C)(C2O)C13

>  <smiles>  (33) 
[H]OC1([H])C([H])([H])C([H])(C([H])([H])[H])C2=C([H])C([H])(C([H])([H])[H])C3([H])C([H])([H])C([H])=C4OC4(C([H])([H])[H])C4(C([H])([H])[H])C5([H])C([H])(C([H])([H])[H])C([H])(O[H])C([H])([H])C([H])(C5(C([H])([H])[H])C([H])([H])[H])C(C([H])([H])[H])(C([H])(O[H])C21[H])C34[H]

$$$$
7:3:2
     RDKit          3D

 80 85  0  0  1  0  0  0  0  0999 V2000
    3.3154   -0.7020    1.2248 C   0  0  0  0  0  0  0  0  0  0  0  0
    4.1822   -1.6279    0.3673 C   0  0  2  0  0  0  0  0  0  0  0  0
    3.4417   -2.3727   -0.7411 C   0  0  0  0  0  0  0  0  0  0  0  0
    4.4597   -3.4309   -1.2073 C   0  0  1  0  0  0  0  0  0  0  0  0
    5.3362   -2.8377   -2.1513 O   0  0  0  0  0  0  0  0  0  0  0  0
    5.2395   -3.8583    0.0684 C   0  0  1  0  0  0  0  0  0  0  0  0
    5.0005   -2.7170    1.0488 C   0  0  0  0  0  0  0  0  0  0  0  0
    5.6464   -2.6096    2.2160 C   0  0  0  0  0  0  0  0  0  0  0  0
    5.0100   -2.8546    3.5869 C   0  0  1  0  0  0  0  0  0  0  0  0
    4.4690   -1.5861    4.2773 C   0  0  0  0  0  0  0  0  0  0  0  0
    4.0748   -4.0989    3.6360 C   0  0  1  0  0  0  0  0  0  0  0  0
    2.6870   -3.7776    2.9731 C   0  0  0  0  0  0  0  0  0  0  0  0
    1.7760   -4.9603    2.9078 C   0  0  0  0  0  0  0  0  0  0  0  0
    1.9829   -5.9858    3.7132 C   0  0  0  0  0  0  0  0  0  0  0  0
    1.6602   -7.2796    3.7637 O   0  0  0  0  0  0  0  0  0  0  0  0
    2.7421   -6.6548    4.6892 C   0  0  2  0  0  0  0  0  0  0  0  0
    2.1568   -6.5355    6.0902 C   0  0  0  0  0  0  0  0  0  0  0  0
    4.2871   -6.7292    4.4266 C   0  0  1  0  0  0  0  0  0  0  0  0
    4.9300   -6.3910    5.8176 C   0  0  0  0  0  0  0  0  0  0  0  0
    4.8149   -8.2392    4.1452 C   0  0  1  0  0  0  0  0  0  0  0  0
    3.8181   -9.3840    3.7690 C   0  0  1  0  0  0  0  0  0  0  0  0
    2.8148   -9.8607    4.8483 C   0  0  0  0  0  0  0  0  0  0  0  0
    3.4027   -9.3529    2.2742 C   0  0  1  0  0  0  0  0  0  0  0  0
    2.0074   -9.4706    2.1019 O   0  0  0  0  0  0  0  0  0  0  0  0
    3.9201   -8.0787    1.5500 C   0  0  0  0  0  0  0  0  0  0  0  0
    5.3728   -7.5315    1.8611 C   0  0  2  0  0  0  0  0  0  0  0  0
    5.9763   -8.2719    3.1087 C   0  0  0  0  0  0  0  0  0  0  0  0
    7.2888   -7.7789    3.7968 C   0  0  0  0  0  0  0  0  0  0  0  0
    6.4845   -9.6781    2.6368 C   0  0  0  0  0  0  0  0  0  0  0  0
    5.4198   -5.9452    1.9572 C   0  0  1  0  0  0  0  0  0  0  0  0
    6.9716   -5.6277    1.8544 C   0  0  0  0  0  0  0  0  0  0  0  0
    4.8213   -5.2931    0.6090 C   0  0  1  0  0  0  0  0  0  0  0  0
    3.4161   -5.3600    0.5266 O   0  0  0  0  0  0  0  0  0  0  0  0
    4.7791   -5.5364    3.3984 C   0  0  1  0  0  0  0  0  0  0  0  0
    3.9210   -0.1062    1.9010 H   0  0  0  0  0  0  0  0  0  0  0  0
    2.5571   -1.2321    1.7911 H   0  0  0  0  0  0  0  0  0  0  0  0
    2.7772   -0.0008    0.5863 H   0  0  0  0  0  0  0  0  0  0  0  0
    4.9134   -0.9931   -0.1352 H   0  0  0  0  0  0  0  0  0  0  0  0
    2.5681   -2.8711   -0.3199 H   0  0  0  0  0  0  0  0  0  0  0  0
    3.0914   -1.7245   -1.5427 H   0  0  0  0  0  0  0  0  0  0  0  0
    3.9487   -4.2538   -1.7048 H   0  0  0  0  0  0  0  0  0  0  0  0
    5.8733   -3.5210   -2.5113 H   0  0  0  0  0  0  0  0  0  0  0  0
    6.2844   -3.8429   -0.2289 H   0  0  0  0  0  0  0  0  0  0  0  0
    6.4989   -3.2575    2.2610 H   0  0  0  0  0  0  0  0  0  0  0  0
    5.8335   -3.1117    4.2425 H   0  0  0  0  0  0  0  0  0  0  0  0
    5.2196   -0.7946    4.2762 H   0  0  0  0  0  0  0  0  0  0  0  0
    4.2284   -1.7973    5.3197 H   0  0  0  0  0  0  0  0  0  0  0  0
    3.5635   -1.1956    3.8227 H   0  0  0  0  0  0  0  0  0  0  0  0
    3.8097   -4.1249    4.6914 H   0  0  0  0  0  0  0  0  0  0  0  0
    2.1736   -2.9963    3.5426 H   0  0  0  0  0  0  0  0  0  0  0  0
    2.7959   -3.3922    1.9695 H   0  0  0  0  0  0  0  0  0  0  0  0
    1.0272   -4.9755    2.1275 H   0  0  0  0  0  0  0  0  0  0  0  0
    2.4369   -5.5764    6.5222 H   0  0  0  0  0  0  0  0  0  0  0  0
    2.4712   -7.3540    6.7313 H   0  0  0  0  0  0  0  0  0  0  0  0
    1.0607   -6.5531    6.0376 H   0  0  0  0  0  0  0  0  0  0  0  0
    6.0167   -6.3924    5.8175 H   0  0  0  0  0  0  0  0  0  0  0  0
    4.6631   -7.1133    6.5917 H   0  0  0  0  0  0  0  0  0  0  0  0
    4.6504   -5.4089    6.1986 H   0  0  0  0  0  0  0  0  0  0  0  0
    5.2474   -8.6165    5.0732 H   0  0  0  0  0  0  0  0  0  0  0  0
    4.4331  -10.2818    3.8077 H   0  0  0  0  0  0  0  0  0  0  0  0
    1.9533   -9.2212    4.9990 H   0  0  0  0  0  0  0  0  0  0  0  0
    3.3144   -9.9560    5.8129 H   0  0  0  0  0  0  0  0  0  0  0  0
    2.4283  -10.8529    4.6118 H   0  0  0  0  0  0  0  0  0  0  0  0
    3.7826  -10.2362    1.7681 H   0  0  0  0  0  0  0  0  0  0  0  0
    1.7435  -10.3361    2.3622 H   0  0  0  0  0  0  0  0  0  0  0  0
    3.8152   -8.2153    0.4741 H   0  0  0  0  0  0  0  0  0  0  0  0
    3.2005   -7.3186    1.8096 H   0  0  0  0  0  0  0  0  0  0  0  0
    5.9670   -7.8286    0.9991 H   0  0  0  0  0  0  0  0  0  0  0  0
    8.1581   -7.8041    3.1369 H   0  0  0  0  0  0  0  0  0  0  0  0
    7.5417   -8.4188    4.6435 H   0  0  0  0  0  0  0  0  0  0  0  0
    7.2355   -6.7805    4.2065 H   0  0  0  0  0  0  0  0  0  0  0  0
    7.4151   -9.5913    2.0747 H   0  0  0  0  0  0  0  0  0  0  0  0
    5.8253  -10.1977    1.9442 H   0  0  0  0  0  0  0  0  0  0  0  0
    6.6798  -10.3548    3.4718 H   0  0  0  0  0  0  0  0  0  0  0  0
    7.4309   -5.2780    2.7772 H   0  0  0  0  0  0  0  0  0  0  0  0
    7.2731   -4.8781    1.1411 H   0  0  0  0  0  0  0  0  0  0  0  0
    7.5611   -6.4792    1.5125 H   0  0  0  0  0  0  0  0  0  0  0  0
    5.1455   -5.9635   -0.1902 H   0  0  0  0  0  0  0  0  0  0  0  0
    3.0627   -4.8089    1.2022 H   0  0  0  0  0  0  0  0  0  0  0  0
    5.7031   -5.2936    3.9095 H   0  0  0  0  0  0  0  0  0  0  0  0
  1  2  1  0
  1 35  1  0
  1 36  1  0
  1 37  1  0
  2  7  1  0
  2  3  1  0
  2 38  1  6
  3  4  1  0
  3 39  1  0
  3 40  1  0
  4  5  1  0
  4  6  1  0
  4 41  1  6
  5 42  1  0
  6 32  1  0
  6  7  1  0
  6 43  1  6
  7  8  2  3
  8  9  1  0
  8 44  1  0
  9 10  1  0
  9 11  1  0
  9 45  1  1
 10 46  1  0
 10 47  1  0
 10 48  1  0
 11 34  1  0
 11 12  1  0
 11 49  1  1
 12 13  1  0
 12 50  1  0
 12 51  1  0
 13 14  2  0
 13 52  1  0
 14 16  1  0
 14 15  1  0
 15 16  1  0
 16 17  1  1
 16 18  1  0
 17 53  1  0
 17 54  1  0
 17 55  1  0
 18 34  1  0
 18 19  1  1
 18 20  1  0
 19 56  1  0
 19 57  1  0
 19 58  1  0
 20 27  1  0
 20 21  1  0
 20 59  1  1
 21 22  1  0
 21 23  1  0
 21 60  1  6
 22 61  1  0
 22 62  1  0
 22 63  1  0
 23 24  1  0
 23 25  1  0
 23 64  1  6
 24 65  1  0
 25 26  1  0
 25 66  1  0
 25 67  1  0
 26 27  1  0
 26 30  1  0
 26 68  1  6
 27 28  1  0
 27 29  1  0
 28 69  1  0
 28 70  1  0
 28 71  1  0
 29 72  1  0
 29 73  1  0
 29 74  1  0
 30 31  1  1
 30 32  1  0
 30 34  1  0
 31 75  1  0
 31 76  1  0
 31 77  1  0
 32 33  1  0
 32 78  1  6
 33 79  1  0
 34 80  1  1
M  END
>  <i_m_ct_stereo_status>  (34) 
1

>  <s_m_source_file>  (34) 
/var/tmp/pbs.5076255.sched01/tmp7e7yg0hy/0s0dyhj_r.sdf

>  <i_m_source_file_index>  (34) 
14

>  <i_lp_mmshare_version>  (34) 
48012

>  <i_f3d_flags>  (34) 
0

>  <s_epik_input>  (34) 
W09IXVtDQEBIXTFbQ0gyXVtDQEBIXShbQ0gzXSkvQyg9W0NIXS9bQ0BIXTJbQ0gzXSlbQ0BIXTFbQ0BIXShbT0hdKVtDQF0zKFtDSDNdKVtDQEBIXShDNChbQ0gzXSlbQ0gzXSlbQ0gyXVtDQEhdKFtPSF0pW0NASF0oW0NIM10pW0NAQEhdNFtDQEBdNShbQ0gzXSlbQ0BASF0zW0NAQEhdMltDSDJdW0NIXT1DKE82KUM1NltDSDNd

>  <s_epik_cmdline>  (34) 
J2VwaWtfcHl0aG9uJywgJy1waHQnLCAnMi4wJywgJy1waCcsICc3LjAnLCAnLXRuJywgJzgnLCAnLW1hJywgJzIwMCcsICctaW1hZScsICc8aW5maWxlLm1hZT4nLCAnLW9tYWUnLCAnPG91dGZpbGUubWFlPic=

>  <r_lp_tautomer_probability>  (34) 
1

>  <r_epik_Ionization_Penalty>  (34) 
2.9039e-06

>  <r_epik_Ionization_Penalty_Charging>  (34) 
0

>  <r_epik_Ionization_Penalty_Neutral>  (34) 
2.9039e-06

>  <r_epik_State_Penalty>  (34) 
-0

>  <r_epik_Charging_Adjusted_Penalty>  (34) 
0

>  <i_epik_Tot_Q>  (34) 
0

>  <i_epik_Tot_abs_Q>  (34) 
0

>  <s_lp_Force_Field>  (34) 
OPLS3e

>  <r_lp_Energy>  (34) 
198.249

>  <b_lp_Chiralities_Consistent>  (34) 
1

>  <s_lp_Variant>  (34) 
7:0-4

>  <s_i_glide_gridfile>  (34) 
pfpi4k_grid

>  <i_i_glide_lignum>  (34) 
14

>  <i_i_glide_rotatable_bonds>  (34) 
3

>  <r_i_docking_score>  (34) 
-2.16166

>  <r_i_glide_ligand_efficiency>  (34) 
-0.0635783

>  <r_i_glide_ligand_efficiency_sa>  (34) 
-0.205969

>  <r_i_glide_ligand_efficiency_ln>  (34) 
-0.477572

>  <r_i_glide_gscore>  (34) 
-2.16166

>  <r_i_glide_lipo>  (34) 
-0.424355

>  <r_i_glide_hbond>  (34) 
0

>  <r_i_glide_metal>  (34) 
-0

>  <r_i_glide_rewards>  (34) 
-0.199883

>  <r_i_glide_evdw>  (34) 
-29.1865

>  <r_i_glide_ecoul>  (34) 
-0.52068

>  <r_i_glide_erotb>  (34) 
0

>  <r_i_glide_esite>  (34) 
0

>  <r_i_glide_emodel>  (34) 
-34.0409

>  <r_i_glide_energy>  (34) 
-29.7071

>  <r_i_glide_einternal>  (34) 
0.739145

>  <r_i_glide_intrahb_reward>  (34) 
-0

>  <i_i_glide_confnum>  (34) 
1

>  <i_i_glide_posenum>  (34) 
17

>  <r_i_glide_eff_state_penalty>  (34) 
0

>  <ligand_id>  (34) 
7

>  <original_smiles>  (34) 
CC1CC(O)C2C1=CC(C)C1CC=C3OC3(C)C3(C)C4C(C)C(O)CC(C4(C)C)C(C)(C2O)C13

>  <smiles>  (34) 
[H]OC1([H])C([H])([H])C([H])(C([H])([H])[H])C2=C([H])C([H])(C([H])([H])[H])C3([H])C([H])([H])C([H])=C4OC4(C([H])([H])[H])C4(C([H])([H])[H])C5([H])C([H])(C([H])([H])[H])C([H])(O[H])C([H])([H])C([H])(C5(C([H])([H])[H])C([H])([H])[H])C(C([H])([H])[H])(C([H])(O[H])C21[H])C34[H]

$$$$
8:0:0
     RDKit          3D

 87 92  0  0  1  0  0  0  0  0999 V2000
    5.6188   -5.7419    0.9810 C   0  0  0  0  0  0  0  0  0  0  0  0
    4.6153   -4.8424    0.9747 C   0  0  0  0  0  0  0  0  0  0  0  0
    4.1047   -4.2876   -0.3540 C   0  0  0  0  0  0  0  0  0  0  0  0
    4.1608   -2.7434   -0.3848 C   0  0  0  0  0  0  0  0  0  0  0  0
    3.4570   -2.0663    0.8176 C   0  0  0  0  0  0  0  0  0  0  0  0
    3.0111   -3.0973    1.8701 C   0  0  2  0  0  0  0  0  0  0  0  0
    2.4501   -2.6162    3.2108 C   0  0  1  0  0  0  0  0  0  0  0  0
    1.1331   -1.8021    3.1008 C   0  0  0  0  0  0  0  0  0  0  0  0
    0.8016   -0.9278    4.3334 C   0  0  0  0  0  0  0  0  0  0  0  0
   -0.1838    0.2065    4.0718 C   0  0  0  0  0  0  0  0  0  0  0  0
   -0.2732    1.0494    3.0435 C   0  0  0  0  0  0  0  0  0  0  0  0
   -1.3810    2.0350    3.2669 C   0  0  0  0  0  0  0  0  0  0  0  0
   -1.8812    1.6513    4.5403 O   0  0  0  0  0  0  0  0  0  0  0  0
   -1.2307    0.5760    5.0343 C   0  0  0  0  0  0  0  0  0  0  0  0
   -1.4878    0.0156    6.0988 O   0  0  0  0  0  0  0  0  0  0  0  0
    2.3836   -3.9464    3.9586 C   0  0  0  0  0  0  0  0  0  0  0  0
    1.4453   -4.3007    4.8467 C   0  0  0  0  0  0  0  0  0  0  0  0
    1.3960   -5.6881    5.4295 C   0  0  0  0  0  0  0  0  0  0  0  0
    1.7374   -6.8232    4.4011 C   0  0  2  0  0  0  0  0  0  0  0  0
    1.9722   -8.2856    5.0435 C   0  0  1  0  0  0  0  0  0  0  0  0
    2.1939   -8.1415    6.5776 C   0  0  0  0  0  0  0  0  0  0  0  0
    0.6725   -9.1256    4.8412 C   0  0  0  0  0  0  0  0  0  0  0  0
    0.7740  -10.5912    5.3000 C   0  0  0  0  0  0  0  0  0  0  0  0
    1.9250  -11.3535    4.6350 C   0  0  1  0  0  0  0  0  0  0  0  0
    1.5495  -11.5914    3.2933 O   0  0  0  0  0  0  0  0  0  0  0  0
    3.2951  -10.6267    4.7622 C   0  0  0  0  0  0  0  0  0  0  0  0
    3.8309  -10.8194    6.2108 C   0  0  0  0  0  0  0  0  0  0  0  0
    4.3542  -11.3539    3.8824 C   0  0  0  0  0  0  0  0  0  0  0  0
    3.1604   -9.0870    4.3832 C   0  0  1  0  0  0  0  0  0  0  0  0
    3.1293   -8.8472    2.8628 C   0  0  0  0  0  0  0  0  0  0  0  0
    3.5061   -7.4147    2.5548 C   0  0  0  0  0  0  0  0  0  0  0  0
    2.5641   -6.3223    3.1117 C   0  0  1  0  0  0  0  0  0  0  0  0
    1.5055   -6.0962    1.9890 C   0  0  0  0  0  0  0  0  0  0  0  0
    3.3961   -4.9708    3.4189 C   0  0  2  0  0  0  0  0  0  0  0  0
    4.4263   -5.2940    4.5521 C   0  0  0  0  0  0  0  0  0  0  0  0
    4.1102   -4.1282    2.2450 C   0  0  1  0  0  0  0  0  0  0  0  0
    5.3636   -3.3422    2.7676 C   0  0  0  0  0  0  0  0  0  0  0  0
    6.0772   -6.0702    1.9004 H   0  0  0  0  0  0  0  0  0  0  0  0
    6.0062   -6.1538    0.0631 H   0  0  0  0  0  0  0  0  0  0  0  0
    4.6942   -4.6877   -1.1801 H   0  0  0  0  0  0  0  0  0  0  0  0
    3.0838   -4.6302   -0.5234 H   0  0  0  0  0  0  0  0  0  0  0  0
    5.2062   -2.4295   -0.3990 H   0  0  0  0  0  0  0  0  0  0  0  0
    3.7302   -2.3748   -1.3174 H   0  0  0  0  0  0  0  0  0  0  0  0
    4.0983   -1.3013    1.2553 H   0  0  0  0  0  0  0  0  0  0  0  0
    2.5843   -1.5326    0.4516 H   0  0  0  0  0  0  0  0  0  0  0  0
    2.1917   -3.6281    1.3933 H   0  0  0  0  0  0  0  0  0  0  0  0
    3.1878   -1.9818    3.6916 H   0  0  0  0  0  0  0  0  0  0  0  0
    1.2275   -1.1449    2.2371 H   0  0  0  0  0  0  0  0  0  0  0  0
    0.2947   -2.4604    2.8803 H   0  0  0  0  0  0  0  0  0  0  0  0
    0.3847   -1.5572    5.1161 H   0  0  0  0  0  0  0  0  0  0  0  0
    1.7106   -0.4903    4.7435 H   0  0  0  0  0  0  0  0  0  0  0  0
    0.3560    1.0746    2.1667 H   0  0  0  0  0  0  0  0  0  0  0  0
   -2.1439    1.9499    2.4940 H   0  0  0  0  0  0  0  0  0  0  0  0
   -1.0059    3.0578    3.2849 H   0  0  0  0  0  0  0  0  0  0  0  0
    0.7043   -3.6097    5.2050 H   0  0  0  0  0  0  0  0  0  0  0  0
    2.0905   -5.6411    6.2674 H   0  0  0  0  0  0  0  0  0  0  0  0
    0.4018   -5.8430    5.8464 H   0  0  0  0  0  0  0  0  0  0  0  0
    0.7366   -6.9390    3.9887 H   0  0  0  0  0  0  0  0  0  0  0  0
    2.2243   -9.0814    7.1103 H   0  0  0  0  0  0  0  0  0  0  0  0
    1.3728   -7.6201    7.0684 H   0  0  0  0  0  0  0  0  0  0  0  0
    3.1210   -7.6190    6.8122 H   0  0  0  0  0  0  0  0  0  0  0  0
   -0.1609   -8.6564    5.3666 H   0  0  0  0  0  0  0  0  0  0  0  0
    0.3892   -9.1282    3.7885 H   0  0  0  0  0  0  0  0  0  0  0  0
    0.8670  -10.6334    6.3817 H   0  0  0  0  0  0  0  0  0  0  0  0
   -0.1519  -11.1151    5.0780 H   0  0  0  0  0  0  0  0  0  0  0  0
    2.0024  -12.3349    5.1048 H   0  0  0  0  0  0  0  0  0  0  0  0
    1.8600  -12.4564    3.0490 H   0  0  0  0  0  0  0  0  0  0  0  0
    4.4201   -9.9658    6.5533 H   0  0  0  0  0  0  0  0  0  0  0  0
    4.4698  -11.6983    6.3091 H   0  0  0  0  0  0  0  0  0  0  0  0
    3.0295  -10.9971    6.9289 H   0  0  0  0  0  0  0  0  0  0  0  0
    5.3075  -10.8224    3.8964 H   0  0  0  0  0  0  0  0  0  0  0  0
    4.0477  -11.4655    2.8419 H   0  0  0  0  0  0  0  0  0  0  0  0
    4.5350  -12.3716    4.2321 H   0  0  0  0  0  0  0  0  0  0  0  0
    4.0841   -8.6205    4.7292 H   0  0  0  0  0  0  0  0  0  0  0  0
    3.8721   -9.4363    2.3363 H   0  0  0  0  0  0  0  0  0  0  0  0
    2.1745   -9.1143    2.4139 H   0  0  0  0  0  0  0  0  0  0  0  0
    4.5219   -7.2826    2.9104 H   0  0  0  0  0  0  0  0  0  0  0  0
    3.5589   -7.3414    1.4696 H   0  0  0  0  0  0  0  0  0  0  0  0
    1.9471   -5.8091    1.0409 H   0  0  0  0  0  0  0  0  0  0  0  0
    0.7744   -5.3390    2.2623 H   0  0  0  0  0  0  0  0  0  0  0  0
    0.9435   -7.0096    1.7858 H   0  0  0  0  0  0  0  0  0  0  0  0
    5.3512   -5.7239    4.1648 H   0  0  0  0  0  0  0  0  0  0  0  0
    4.0533   -6.0170    5.2746 H   0  0  0  0  0  0  0  0  0  0  0  0
    4.6917   -4.4040    5.1248 H   0  0  0  0  0  0  0  0  0  0  0  0
    5.1736   -2.7417    3.6546 H   0  0  0  0  0  0  0  0  0  0  0  0
    5.7656   -2.6652    2.0147 H   0  0  0  0  0  0  0  0  0  0  0  0
    6.1878   -4.0098    3.0132 H   0  0  0  0  0  0  0  0  0  0  0  0
  1  2  2  0
  1 38  1  0
  1 39  1  0
  2 36  1  0
  2  3  1  0
  3  4  1  0
  3 40  1  0
  3 41  1  0
  4  5  1  0
  4 42  1  0
  4 43  1  0
  5  6  1  0
  5 44  1  0
  5 45  1  0
  6 36  1  0
  6  7  1  0
  6 46  1  6
  7  8  1  0
  7 16  1  0
  7 47  1  1
  8  9  1  0
  8 48  1  0
  8 49  1  0
  9 50  1  0
  9 51  1  0
  9 10  1  0
 10 11  2  0
 10 14  1  0
 11 52  1  0
 11 12  1  0
 12 13  1  0
 12 53  1  0
 12 54  1  0
 13 14  1  0
 14 15  2  0
 16 34  1  0
 16 17  2  0
 17 18  1  0
 17 55  1  0
 18 19  1  0
 18 56  1  0
 18 57  1  0
 19 32  1  0
 19 20  1  0
 19 58  1  6
 20 29  1  0
 20 21  1  1
 20 22  1  0
 21 59  1  0
 21 60  1  0
 21 61  1  0
 22 23  1  0
 22 62  1  0
 22 63  1  0
 23 24  1  0
 23 64  1  0
 23 65  1  0
 24 25  1  0
 24 26  1  0
 24 66  1  1
 25 67  1  0
 26 27  1  0
 26 28  1  0
 26 29  1  0
 27 68  1  0
 27 69  1  0
 27 70  1  0
 28 71  1  0
 28 72  1  0
 28 73  1  0
 29 30  1  0
 29 74  1  1
 30 31  1  0
 30 75  1  0
 30 76  1  0
 31 32  1  0
 31 77  1  0
 31 78  1  0
 32 33  1  6
 32 34  1  0
 33 79  1  0
 33 80  1  0
 33 81  1  0
 34 35  1  1
 34 36  1  0
 35 82  1  0
 35 83  1  0
 35 84  1  0
 36 37  1  1
 37 85  1  0
 37 86  1  0
 37 87  1  0
M  END
>  <i_m_ct_stereo_status>  (35) 
1

>  <s_m_source_file>  (35) 
/var/tmp/pbs.5076255.sched01/tmp7e7yg0hy/0s0dyhj_r.sdf

>  <i_m_source_file_index>  (35) 
15

>  <i_lp_mmshare_version>  (35) 
48012

>  <i_f3d_flags>  (35) 
0

>  <s_epik_input>  (35) 
W09IXWMxb1tjSF1bY0hdYzFbQ0gyXVtDSDJdW0NASF0oW0NAQEhdMltDQF0zKFtDSDNdKUMoPVtDSDJdKVtDSDJdW0NIMl1bQ0gyXTIpQyg9W0NIXVtDSDJdNClbQ0BAXTMoW0NIM10pW0NAXShbQ0gzXSkoW0NASF00W0NAQF01NltDSDNdKVtDSDJdW0NIMl1bQ0BASF02QyhbQ0gzXSkoW0NIM10pW0NASF0oW09IXSlbQ0gyXVtDSDJdNQ==

>  <s_epik_cmdline>  (35) 
J2VwaWtfcHl0aG9uJywgJy1waHQnLCAnMi4wJywgJy1waCcsICc3LjAnLCAnLXRuJywgJzgnLCAnLW1hJywgJzIwMCcsICctaW1hZScsICc8aW5maWxlLm1hZT4nLCAnLW9tYWUnLCAnPG91dGZpbGUubWFlPic=

>  <r_lp_tautomer_probability>  (35) 
1

>  <r_epik_Ionization_Penalty>  (35) 
2.94424e-06

>  <r_epik_Ionization_Penalty_Charging>  (35) 
0

>  <r_epik_Ionization_Penalty_Neutral>  (35) 
2.94424e-06

>  <r_epik_State_Penalty>  (35) 
-0

>  <r_epik_Charging_Adjusted_Penalty>  (35) 
0

>  <i_epik_Tot_Q>  (35) 
0

>  <i_epik_Tot_abs_Q>  (35) 
0

>  <s_epik_Chemistry_Notes>  (35) 
This compound has an ester and may undergo hydrolysis at high or low pH.

>  <s_lp_Force_Field>  (35) 
OPLS3e

>  <r_lp_Energy>  (35) 
102.773

>  <b_lp_Chiralities_Consistent>  (35) 
1

>  <s_lp_Variant>  (35) 
8:0-1

>  <s_i_glide_gridfile>  (35) 
pfpi4k_grid

>  <i_i_glide_lignum>  (35) 
15

>  <i_i_glide_rotatable_bonds>  (35) 
4

>  <r_i_docking_score>  (35) 
-2.54817

>  <r_i_glide_ligand_efficiency>  (35) 
-0.0688693

>  <r_i_glide_ligand_efficiency_sa>  (35) 
-0.229488

>  <r_i_glide_ligand_efficiency_ln>  (35) 
-0.552637

>  <r_i_glide_gscore>  (35) 
-2.54817

>  <r_i_glide_lipo>  (35) 
-0.169866

>  <r_i_glide_hbond>  (35) 
-0.32509

>  <r_i_glide_metal>  (35) 
-0

>  <r_i_glide_rewards>  (35) 
0

>  <r_i_glide_evdw>  (35) 
-26.2427

>  <r_i_glide_ecoul>  (35) 
-6.33113

>  <r_i_glide_erotb>  (35) 
0.239039

>  <r_i_glide_esite>  (35) 
-0.0304427

>  <r_i_glide_emodel>  (35) 
-36.4456

>  <r_i_glide_energy>  (35) 
-32.5738

>  <r_i_glide_einternal>  (35) 
2.82105

>  <r_i_glide_intrahb_reward>  (35) 
-0

>  <i_i_glide_confnum>  (35) 
1

>  <i_i_glide_posenum>  (35) 
11

>  <r_i_glide_eff_state_penalty>  (35) 
0

>  <ligand_id>  (35) 
8

>  <original_smiles>  (35) 
C=C1CCCC2C(CCc3ccoc3O)C3=CCC4C5(C)CCC(O)C(C)(C)C5CCC4(C)C3(C)C12C

>  <smiles>  (35) 
[H]OC1([H])C([H])([H])C([H])([H])C2(C([H])([H])[H])C([H])(C([H])([H])C([H])([H])C3(C([H])([H])[H])C2([H])C([H])([H])C([H])=C2C([H])(C([H])([H])C([H])([H])C4=C([H])C([H])([H])OC4=O)C4([H])C([H])([H])C([H])([H])C([H])([H])C(=C([H])[H])C4(C([H])([H])[H])C23C([H])([H])[H])C1(C([H])([H])[H])C([H])([H])[H]

$$$$
8:0:1
     RDKit          3D

 87 92  0  0  1  0  0  0  0  0999 V2000
    2.6841   -2.7786    6.9592 C   0  0  0  0  0  0  0  0  0  0  0  0
    2.6059   -3.1871    5.6774 C   0  0  0  0  0  0  0  0  0  0  0  0
    2.0035   -4.5543    5.3569 C   0  0  0  0  0  0  0  0  0  0  0  0
    2.9791   -5.4265    4.5356 C   0  0  0  0  0  0  0  0  0  0  0  0
    3.5044   -4.7368    3.2517 C   0  0  0  0  0  0  0  0  0  0  0  0
    3.0864   -3.2554    3.1887 C   0  0  2  0  0  0  0  0  0  0  0  0
    3.6564   -2.3536    2.0913 C   0  0  1  0  0  0  0  0  0  0  0  0
    3.2557   -2.7626    0.6494 C   0  0  0  0  0  0  0  0  0  0  0  0
    4.1952   -2.2262   -0.4548 C   0  0  0  0  0  0  0  0  0  0  0  0
    3.8377   -2.7011   -1.8581 C   0  0  0  0  0  0  0  0  0  0  0  0
    2.6472   -2.8527   -2.4368 C   0  0  0  0  0  0  0  0  0  0  0  0
    2.8035   -3.3340   -3.8465 C   0  0  0  0  0  0  0  0  0  0  0  0
    4.2140   -3.4338   -3.9821 O   0  0  0  0  0  0  0  0  0  0  0  0
    4.8556   -3.0753   -2.8453 C   0  0  0  0  0  0  0  0  0  0  0  0
    6.0724   -3.0539   -2.6870 O   0  0  0  0  0  0  0  0  0  0  0  0
    3.1477   -0.9966    2.5767 C   0  0  0  0  0  0  0  0  0  0  0  0
    2.7464    0.0137    1.7938 C   0  0  0  0  0  0  0  0  0  0  0  0
    2.1304    1.2618    2.3708 C   0  0  0  0  0  0  0  0  0  0  0  0
    1.1630    0.9929    3.5776 C   0  0  2  0  0  0  0  0  0  0  0  0
    0.7053    2.3061    4.3993 C   0  0  1  0  0  0  0  0  0  0  0  0
    1.6512    3.4891    4.0388 C   0  0  0  0  0  0  0  0  0  0  0  0
   -0.7293    2.7060    3.9302 C   0  0  0  0  0  0  0  0  0  0  0  0
   -1.3647    3.8796    4.7038 C   0  0  0  0  0  0  0  0  0  0  0  0
   -1.4175    3.6322    6.2213 C   0  0  1  0  0  0  0  0  0  0  0  0
   -2.4240    2.6728    6.4774 O   0  0  0  0  0  0  0  0  0  0  0  0
   -0.0403    3.2330    6.8255 C   0  0  0  0  0  0  0  0  0  0  0  0
    0.8542    4.5047    6.9228 C   0  0  0  0  0  0  0  0  0  0  0  0
   -0.2296    2.8078    8.3127 C   0  0  0  0  0  0  0  0  0  0  0  0
    0.6528    2.0909    5.9609 C   0  0  1  0  0  0  0  0  0  0  0  0
    0.0721    0.6946    6.2459 C   0  0  0  0  0  0  0  0  0  0  0  0
    1.0525   -0.3737    5.8162 C   0  0  0  0  0  0  0  0  0  0  0  0
    1.3967   -0.4248    4.3098 C   0  0  1  0  0  0  0  0  0  0  0  0
    0.3474   -1.3981    3.6944 C   0  0  0  0  0  0  0  0  0  0  0  0
    2.9019   -0.9737    4.0959 C   0  0  2  0  0  0  0  0  0  0  0  0
    3.8799    0.0625    4.7418 C   0  0  0  0  0  0  0  0  0  0  0  0
    3.3234   -2.4728    4.5122 C   0  0  1  0  0  0  0  0  0  0  0  0
    4.8465   -2.5690    4.8790 C   0  0  0  0  0  0  0  0  0  0  0  0
    3.2010   -1.8716    7.2300 H   0  0  0  0  0  0  0  0  0  0  0  0
    2.2462   -3.3554    7.7607 H   0  0  0  0  0  0  0  0  0  0  0  0
    1.7468   -5.0761    6.2798 H   0  0  0  0  0  0  0  0  0  0  0  0
    1.0681   -4.4223    4.8130 H   0  0  0  0  0  0  0  0  0  0  0  0
    3.8307   -5.6921    5.1659 H   0  0  0  0  0  0  0  0  0  0  0  0
    2.5039   -6.3735    4.2759 H   0  0  0  0  0  0  0  0  0  0  0  0
    4.5871   -4.8440    3.1825 H   0  0  0  0  0  0  0  0  0  0  0  0
    3.0999   -5.2603    2.3860 H   0  0  0  0  0  0  0  0  0  0  0  0
    2.0175   -3.2914    2.9926 H   0  0  0  0  0  0  0  0  0  0  0  0
    4.7402   -2.3622    2.1509 H   0  0  0  0  0  0  0  0  0  0  0  0
    3.2971   -3.8485    0.5756 H   0  0  0  0  0  0  0  0  0  0  0  0
    2.2143   -2.4991    0.4569 H   0  0  0  0  0  0  0  0  0  0  0  0
    4.2275   -1.1389   -0.4658 H   0  0  0  0  0  0  0  0  0  0  0  0
    5.2084   -2.5544   -0.2200 H   0  0  0  0  0  0  0  0  0  0  0  0
    1.6873   -2.6593   -1.9903 H   0  0  0  0  0  0  0  0  0  0  0  0
    2.3894   -2.6168   -4.5522 H   0  0  0  0  0  0  0  0  0  0  0  0
    2.3104   -4.2928   -3.9906 H   0  0  0  0  0  0  0  0  0  0  0  0
    2.8566   -0.0150    0.7231 H   0  0  0  0  0  0  0  0  0  0  0  0
    2.9897    1.8795    2.6308 H   0  0  0  0  0  0  0  0  0  0  0  0
    1.5983    1.7770    1.5718 H   0  0  0  0  0  0  0  0  0  0  0  0
    0.2678    0.7952    2.9898 H   0  0  0  0  0  0  0  0  0  0  0  0
    1.3413    4.4445    4.4362 H   0  0  0  0  0  0  0  0  0  0  0  0
    1.6808    3.6812    2.9656 H   0  0  0  0  0  0  0  0  0  0  0  0
    2.6707    3.3201    4.3849 H   0  0  0  0  0  0  0  0  0  0  0  0
   -0.7129    2.9556    2.8666 H   0  0  0  0  0  0  0  0  0  0  0  0
   -1.4016    1.8523    4.0176 H   0  0  0  0  0  0  0  0  0  0  0  0
   -0.8208    4.7980    4.4929 H   0  0  0  0  0  0  0  0  0  0  0  0
   -2.3734    4.0519    4.3287 H   0  0  0  0  0  0  0  0  0  0  0  0
   -1.7521    4.5424    6.7183 H   0  0  0  0  0  0  0  0  0  0  0  0
   -2.5273    2.6050    7.4154 H   0  0  0  0  0  0  0  0  0  0  0  0
    1.9141    4.2752    6.7927 H   0  0  0  0  0  0  0  0  0  0  0  0
    0.7642    5.0094    7.8862 H   0  0  0  0  0  0  0  0  0  0  0  0
    0.5790    5.2708    6.1960 H   0  0  0  0  0  0  0  0  0  0  0  0
    0.7105    2.4550    8.7406 H   0  0  0  0  0  0  0  0  0  0  0  0
   -0.9724    2.0227    8.4503 H   0  0  0  0  0  0  0  0  0  0  0  0
   -0.5799    3.6390    8.9274 H   0  0  0  0  0  0  0  0  0  0  0  0
    1.6858    2.0495    6.3074 H   0  0  0  0  0  0  0  0  0  0  0  0
   -0.0663    0.5152    7.3056 H   0  0  0  0  0  0  0  0  0  0  0  0
   -0.9038    0.5454    5.7898 H   0  0  0  0  0  0  0  0  0  0  0  0
    1.9415   -0.2333    6.4215 H   0  0  0  0  0  0  0  0  0  0  0  0
    0.6257   -1.3241    6.1319 H   0  0  0  0  0  0  0  0  0  0  0  0
    0.3538   -2.3821    4.1503 H   0  0  0  0  0  0  0  0  0  0  0  0
    0.4937   -1.5318    2.6239 H   0  0  0  0  0  0  0  0  0  0  0  0
   -0.6674   -1.0200    3.8279 H   0  0  0  0  0  0  0  0  0  0  0  0
    4.0159   -0.1046    5.8112 H   0  0  0  0  0  0  0  0  0  0  0  0
    3.5327    1.0901    4.6498 H   0  0  0  0  0  0  0  0  0  0  0  0
    4.8650    0.0336    4.2735 H   0  0  0  0  0  0  0  0  0  0  0  0
    5.5036   -2.1435    4.1252 H   0  0  0  0  0  0  0  0  0  0  0  0
    5.1654   -3.6003    5.0256 H   0  0  0  0  0  0  0  0  0  0  0  0
    5.0867   -2.0638    5.8146 H   0  0  0  0  0  0  0  0  0  0  0  0
  1  2  2  0
  1 38  1  0
  1 39  1  0
  2 36  1  0
  2  3  1  0
  3  4  1  0
  3 40  1  0
  3 41  1  0
  4  5  1  0
  4 42  1  0
  4 43  1  0
  5  6  1  0
  5 44  1  0
  5 45  1  0
  6 36  1  0
  6  7  1  0
  6 46  1  6
  7  8  1  0
  7 16  1  0
  7 47  1  6
  8  9  1  0
  8 48  1  0
  8 49  1  0
  9 50  1  0
  9 51  1  0
  9 10  1  0
 10 11  2  0
 10 14  1  0
 11 52  1  0
 11 12  1  0
 12 13  1  0
 12 53  1  0
 12 54  1  0
 13 14  1  0
 14 15  2  0
 16 34  1  0
 16 17  2  0
 17 18  1  0
 17 55  1  0
 18 19  1  0
 18 56  1  0
 18 57  1  0
 19 32  1  0
 19 20  1  0
 19 58  1  6
 20 29  1  0
 20 21  1  1
 20 22  1  0
 21 59  1  0
 21 60  1  0
 21 61  1  0
 22 23  1  0
 22 62  1  0
 22 63  1  0
 23 24  1  0
 23 64  1  0
 23 65  1  0
 24 25  1  0
 24 26  1  0
 24 66  1  1
 25 67  1  0
 26 27  1  0
 26 28  1  0
 26 29  1  0
 27 68  1  0
 27 69  1  0
 27 70  1  0
 28 71  1  0
 28 72  1  0
 28 73  1  0
 29 30  1  0
 29 74  1  1
 30 31  1  0
 30 75  1  0
 30 76  1  0
 31 32  1  0
 31 77  1  0
 31 78  1  0
 32 33  1  6
 32 34  1  0
 33 79  1  0
 33 80  1  0
 33 81  1  0
 34 35  1  1
 34 36  1  0
 35 82  1  0
 35 83  1  0
 35 84  1  0
 36 37  1  1
 37 85  1  0
 37 86  1  0
 37 87  1  0
M  END
>  <i_m_ct_stereo_status>  (36) 
1

>  <s_m_source_file>  (36) 
/var/tmp/pbs.5076255.sched01/tmp7e7yg0hy/0s0dyhj_r.sdf

>  <i_m_source_file_index>  (36) 
15

>  <i_lp_mmshare_version>  (36) 
48012

>  <i_f3d_flags>  (36) 
0

>  <s_epik_input>  (36) 
W09IXWMxb1tjSF1bY0hdYzFbQ0gyXVtDSDJdW0NASF0oW0NAQEhdMltDQF0zKFtDSDNdKUMoPVtDSDJdKVtDSDJdW0NIMl1bQ0gyXTIpQyg9W0NIXVtDSDJdNClbQ0BAXTMoW0NIM10pW0NAXShbQ0gzXSkoW0NASF00W0NAQF01NltDSDNdKVtDSDJdW0NIMl1bQ0BASF02QyhbQ0gzXSkoW0NIM10pW0NASF0oW09IXSlbQ0gyXVtDSDJdNQ==

>  <s_epik_cmdline>  (36) 
J2VwaWtfcHl0aG9uJywgJy1waHQnLCAnMi4wJywgJy1waCcsICc3LjAnLCAnLXRuJywgJzgnLCAnLW1hJywgJzIwMCcsICctaW1hZScsICc8aW5maWxlLm1hZT4nLCAnLW9tYWUnLCAnPG91dGZpbGUubWFlPic=

>  <r_lp_tautomer_probability>  (36) 
1

>  <r_epik_Ionization_Penalty>  (36) 
2.94424e-06

>  <r_epik_Ionization_Penalty_Charging>  (36) 
0

>  <r_epik_Ionization_Penalty_Neutral>  (36) 
2.94424e-06

>  <r_epik_State_Penalty>  (36) 
-0

>  <r_epik_Charging_Adjusted_Penalty>  (36) 
0

>  <i_epik_Tot_Q>  (36) 
0

>  <i_epik_Tot_abs_Q>  (36) 
0

>  <s_epik_Chemistry_Notes>  (36) 
This compound has an ester and may undergo hydrolysis at high or low pH.

>  <s_lp_Force_Field>  (36) 
OPLS3e

>  <r_lp_Energy>  (36) 
102.773

>  <b_lp_Chiralities_Consistent>  (36) 
1

>  <s_lp_Variant>  (36) 
8:0-1

>  <s_i_glide_gridfile>  (36) 
pfpi4k_grid

>  <i_i_glide_lignum>  (36) 
15

>  <i_i_glide_rotatable_bonds>  (36) 
4

>  <r_i_docking_score>  (36) 
-2.11612

>  <r_i_glide_ligand_efficiency>  (36) 
-0.0571923

>  <r_i_glide_ligand_efficiency_sa>  (36) 
-0.190577

>  <r_i_glide_ligand_efficiency_ln>  (36) 
-0.458936

>  <r_i_glide_gscore>  (36) 
-2.11612

>  <r_i_glide_lipo>  (36) 
-0.22871

>  <r_i_glide_hbond>  (36) 
-0.030797

>  <r_i_glide_metal>  (36) 
-0

>  <r_i_glide_rewards>  (36) 
-0.202896

>  <r_i_glide_evdw>  (36) 
-30.8509

>  <r_i_glide_ecoul>  (36) 
-2.33471

>  <r_i_glide_erotb>  (36) 
0.239039

>  <r_i_glide_esite>  (36) 
0

>  <r_i_glide_emodel>  (36) 
-37.0303

>  <r_i_glide_energy>  (36) 
-33.1856

>  <r_i_glide_einternal>  (36) 
1.43356

>  <r_i_glide_intrahb_reward>  (36) 
-0

>  <i_i_glide_confnum>  (36) 
4

>  <i_i_glide_posenum>  (36) 
18

>  <r_i_glide_eff_state_penalty>  (36) 
0

>  <ligand_id>  (36) 
8

>  <original_smiles>  (36) 
C=C1CCCC2C(CCc3ccoc3O)C3=CCC4C5(C)CCC(O)C(C)(C)C5CCC4(C)C3(C)C12C

>  <smiles>  (36) 
[H]OC1([H])C([H])([H])C([H])([H])C2(C([H])([H])[H])C([H])(C([H])([H])C([H])([H])C3(C([H])([H])[H])C2([H])C([H])([H])C([H])=C2C([H])(C([H])([H])C([H])([H])C4=C([H])C([H])([H])OC4=O)C4([H])C([H])([H])C([H])([H])C([H])([H])C(=C([H])[H])C4(C([H])([H])[H])C23C([H])([H])[H])C1(C([H])([H])[H])C([H])([H])[H]

$$$$
8:0:2
     RDKit          3D

 87 92  0  0  1  0  0  0  0  0999 V2000
    5.8376   -5.5770    0.5920 C   0  0  0  0  0  0  0  0  0  0  0  0
    4.8348   -4.6808    0.5571 C   0  0  0  0  0  0  0  0  0  0  0  0
    4.2805   -4.2192   -0.7880 C   0  0  0  0  0  0  0  0  0  0  0  0
    4.3317   -2.6828   -0.9294 C   0  0  0  0  0  0  0  0  0  0  0  0
    3.6631   -1.9269    0.2468 C   0  0  0  0  0  0  0  0  0  0  0  0
    3.2578   -2.8831    1.3854 C   0  0  2  0  0  0  0  0  0  0  0  0
    2.7483   -2.3116    2.7113 C   0  0  1  0  0  0  0  0  0  0  0  0
    1.4338   -1.4989    2.5896 C   0  0  0  0  0  0  0  0  0  0  0  0
    1.0672   -0.6346    3.8229 C   0  0  0  0  0  0  0  0  0  0  0  0
   -0.0153    0.4099    3.5914 C   0  0  0  0  0  0  0  0  0  0  0  0
   -0.2675    1.1722    2.5285 C   0  0  0  0  0  0  0  0  0  0  0  0
   -1.4281    2.0803    2.8025 C   0  0  0  0  0  0  0  0  0  0  0  0
   -1.7871    1.7351    4.1349 O   0  0  0  0  0  0  0  0  0  0  0  0
   -1.0065    0.7476    4.6241 C   0  0  0  0  0  0  0  0  0  0  0  0
   -1.1293    0.2254    5.7322 O   0  0  0  0  0  0  0  0  0  0  0  0
    2.7066   -3.5915    3.5493 C   0  0  0  0  0  0  0  0  0  0  0  0
    1.8037   -3.8934    4.4917 C   0  0  0  0  0  0  0  0  0  0  0  0
    1.7858   -5.2347    5.1680 C   0  0  0  0  0  0  0  0  0  0  0  0
    2.0869   -6.4329    4.2067 C   0  0  2  0  0  0  0  0  0  0  0  0
    2.3438   -7.8462    4.9421 C   0  0  1  0  0  0  0  0  0  0  0  0
    2.6204   -7.5938    6.4534 C   0  0  0  0  0  0  0  0  0  0  0  0
    1.0387   -8.6966    4.8490 C   0  0  0  0  0  0  0  0  0  0  0  0
    1.1548  -10.1298    5.4060 C   0  0  0  0  0  0  0  0  0  0  0  0
    2.2852  -10.9353    4.7490 C   0  0  1  0  0  0  0  0  0  0  0  0
    1.8757  -11.2558    3.4353 O   0  0  0  0  0  0  0  0  0  0  0  0
    3.6567  -10.1985    4.7774 C   0  0  0  0  0  0  0  0  0  0  0  0
    4.2435  -10.2901    6.2158 C   0  0  0  0  0  0  0  0  0  0  0  0
    4.6875  -10.9817    3.9126 C   0  0  0  0  0  0  0  0  0  0  0  0
    3.5081   -8.6899    4.2956 C   0  0  1  0  0  0  0  0  0  0  0  0
    3.4254   -8.5549    2.7641 C   0  0  0  0  0  0  0  0  0  0  0  0
    3.7901   -7.1474    2.3439 C   0  0  0  0  0  0  0  0  0  0  0  0
    2.8673   -6.0189    2.8585 C   0  0  1  0  0  0  0  0  0  0  0  0
    1.7668   -5.8661    1.7633 C   0  0  0  0  0  0  0  0  0  0  0  0
    3.7047   -4.6472    3.0440 C   0  0  2  0  0  0  0  0  0  0  0  0
    4.7778   -4.8917    4.1563 C   0  0  0  0  0  0  0  0  0  0  0  0
    4.3710   -3.8848    1.7909 C   0  0  1  0  0  0  0  0  0  0  0  0
    5.6425   -3.0646    2.2064 C   0  0  0  0  0  0  0  0  0  0  0  0
    6.3309   -5.8476    1.5123 H   0  0  0  0  0  0  0  0  0  0  0  0
    6.1876   -6.0407   -0.3141 H   0  0  0  0  0  0  0  0  0  0  0  0
    4.8398   -4.6775   -1.6048 H   0  0  0  0  0  0  0  0  0  0  0  0
    3.2541   -4.5690   -0.8869 H   0  0  0  0  0  0  0  0  0  0  0  0
    5.3756   -2.3724   -1.0004 H   0  0  0  0  0  0  0  0  0  0  0  0
    3.8699   -2.3831   -1.8721 H   0  0  0  0  0  0  0  0  0  0  0  0
    4.3149   -1.1291    0.6057 H   0  0  0  0  0  0  0  0  0  0  0  0
    2.7702   -1.4306   -0.1256 H   0  0  0  0  0  0  0  0  0  0  0  0
    2.4196   -3.4426    0.9746 H   0  0  0  0  0  0  0  0  0  0  0  0
    3.4990   -1.6468    3.1244 H   0  0  0  0  0  0  0  0  0  0  0  0
    1.5408   -0.8327    1.7317 H   0  0  0  0  0  0  0  0  0  0  0  0
    0.6153   -2.1690    2.3359 H   0  0  0  0  0  0  0  0  0  0  0  0
    0.7013   -1.2659    4.6249 H   0  0  0  0  0  0  0  0  0  0  0  0
    1.9524   -0.1271    4.2023 H   0  0  0  0  0  0  0  0  0  0  0  0
    0.2705    1.1839    1.5922 H   0  0  0  0  0  0  0  0  0  0  0  0
   -2.2436    1.8919    2.1036 H   0  0  0  0  0  0  0  0  0  0  0  0
   -1.1307    3.1267    2.7371 H   0  0  0  0  0  0  0  0  0  0  0  0
    1.0624   -3.2032    4.8389 H   0  0  0  0  0  0  0  0  0  0  0  0
    2.5082   -5.1292    5.9760 H   0  0  0  0  0  0  0  0  0  0  0  0
    0.8068   -5.3579    5.6257 H   0  0  0  0  0  0  0  0  0  0  0  0
    1.0721   -6.5740    3.8394 H   0  0  0  0  0  0  0  0  0  0  0  0
    2.6706   -8.4928    7.0500 H   0  0  0  0  0  0  0  0  0  0  0  0
    1.8161   -7.0388    6.9352 H   0  0  0  0  0  0  0  0  0  0  0  0
    3.5538   -7.0556    6.6170 H   0  0  0  0  0  0  0  0  0  0  0  0
    0.2253   -8.1841    5.3650 H   0  0  0  0  0  0  0  0  0  0  0  0
    0.7216   -8.7710    3.8086 H   0  0  0  0  0  0  0  0  0  0  0  0
    1.2934  -10.1063    6.4837 H   0  0  0  0  0  0  0  0  0  0  0  0
    0.2138  -10.6548    5.2606 H   0  0  0  0  0  0  0  0  0  0  0  0
    2.3920  -11.8857    5.2772 H   0  0  0  0  0  0  0  0  0  0  0  0
    1.3418  -12.0381    3.4764 H   0  0  0  0  0  0  0  0  0  0  0  0
    4.8402   -9.4142    6.4786 H   0  0  0  0  0  0  0  0  0  0  0  0
    4.8886  -11.1593    6.3495 H   0  0  0  0  0  0  0  0  0  0  0  0
    3.4703  -10.4208    6.9739 H   0  0  0  0  0  0  0  0  0  0  0  0
    5.6394  -10.4510    3.8537 H   0  0  0  0  0  0  0  0  0  0  0  0
    4.3434  -11.1658    2.8946 H   0  0  0  0  0  0  0  0  0  0  0  0
    4.8824  -11.9732    4.3226 H   0  0  0  0  0  0  0  0  0  0  0  0
    4.4416   -8.1997    4.5760 H   0  0  0  0  0  0  0  0  0  0  0  0
    4.1515   -9.1780    2.2541 H   0  0  0  0  0  0  0  0  0  0  0  0
    2.4553   -8.8492    2.3687 H   0  0  0  0  0  0  0  0  0  0  0  0
    4.8175   -6.9884    2.6544 H   0  0  0  0  0  0  0  0  0  0  0  0
    3.8020   -7.1467    1.2552 H   0  0  0  0  0  0  0  0  0  0  0  0
    2.1713   -5.6423    0.7817 H   0  0  0  0  0  0  0  0  0  0  0  0
    1.0472   -5.0916    2.0198 H   0  0  0  0  0  0  0  0  0  0  0  0
    1.1986   -6.7898    1.6406 H   0  0  0  0  0  0  0  0  0  0  0  0
    5.6904   -5.3467    3.7687 H   0  0  0  0  0  0  0  0  0  0  0  0
    4.4312   -5.5619    4.9389 H   0  0  0  0  0  0  0  0  0  0  0  0
    5.0593   -3.9649    4.6570 H   0  0  0  0  0  0  0  0  0  0  0  0
    5.4888   -2.4114    3.0617 H   0  0  0  0  0  0  0  0  0  0  0  0
    6.0104   -2.4346    1.3956 H   0  0  0  0  0  0  0  0  0  0  0  0
    6.4762   -3.7151    2.4629 H   0  0  0  0  0  0  0  0  0  0  0  0
  1  2  2  0
  1 38  1  0
  1 39  1  0
  2 36  1  0
  2  3  1  0
  3  4  1  0
  3 40  1  0
  3 41  1  0
  4  5  1  0
  4 42  1  0
  4 43  1  0
  5  6  1  0
  5 44  1  0
  5 45  1  0
  6 36  1  0
  6  7  1  0
  6 46  1  6
  7  8  1  0
  7 16  1  0
  7 47  1  1
  8  9  1  0
  8 48  1  0
  8 49  1  0
  9 50  1  0
  9 51  1  0
  9 10  1  0
 10 11  2  0
 10 14  1  0
 11 52  1  0
 11 12  1  0
 12 13  1  0
 12 53  1  0
 12 54  1  0
 13 14  1  0
 14 15  2  0
 16 34  1  0
 16 17  2  0
 17 18  1  0
 17 55  1  0
 18 19  1  0
 18 56  1  0
 18 57  1  0
 19 32  1  0
 19 20  1  0
 19 58  1  6
 20 29  1  0
 20 21  1  1
 20 22  1  0
 21 59  1  0
 21 60  1  0
 21 61  1  0
 22 23  1  0
 22 62  1  0
 22 63  1  0
 23 24  1  0
 23 64  1  0
 23 65  1  0
 24 25  1  0
 24 26  1  0
 24 66  1  1
 25 67  1  0
 26 27  1  0
 26 28  1  0
 26 29  1  0
 27 68  1  0
 27 69  1  0
 27 70  1  0
 28 71  1  0
 28 72  1  0
 28 73  1  0
 29 30  1  0
 29 74  1  1
 30 31  1  0
 30 75  1  0
 30 76  1  0
 31 32  1  0
 31 77  1  0
 31 78  1  0
 32 33  1  6
 32 34  1  0
 33 79  1  0
 33 80  1  0
 33 81  1  0
 34 35  1  1
 34 36  1  0
 35 82  1  0
 35 83  1  0
 35 84  1  0
 36 37  1  1
 37 85  1  0
 37 86  1  0
 37 87  1  0
M  END
>  <i_m_ct_stereo_status>  (37) 
1

>  <s_m_source_file>  (37) 
/var/tmp/pbs.5076255.sched01/tmp7e7yg0hy/0s0dyhj_r.sdf

>  <i_m_source_file_index>  (37) 
15

>  <i_lp_mmshare_version>  (37) 
48012

>  <i_f3d_flags>  (37) 
0

>  <s_epik_input>  (37) 
W09IXWMxb1tjSF1bY0hdYzFbQ0gyXVtDSDJdW0NASF0oW0NAQEhdMltDQF0zKFtDSDNdKUMoPVtDSDJdKVtDSDJdW0NIMl1bQ0gyXTIpQyg9W0NIXVtDSDJdNClbQ0BAXTMoW0NIM10pW0NAXShbQ0gzXSkoW0NASF00W0NAQF01NltDSDNdKVtDSDJdW0NIMl1bQ0BASF02QyhbQ0gzXSkoW0NIM10pW0NASF0oW09IXSlbQ0gyXVtDSDJdNQ==

>  <s_epik_cmdline>  (37) 
J2VwaWtfcHl0aG9uJywgJy1waHQnLCAnMi4wJywgJy1waCcsICc3LjAnLCAnLXRuJywgJzgnLCAnLW1hJywgJzIwMCcsICctaW1hZScsICc8aW5maWxlLm1hZT4nLCAnLW9tYWUnLCAnPG91dGZpbGUubWFlPic=

>  <r_lp_tautomer_probability>  (37) 
1

>  <r_epik_Ionization_Penalty>  (37) 
2.94424e-06

>  <r_epik_Ionization_Penalty_Charging>  (37) 
0

>  <r_epik_Ionization_Penalty_Neutral>  (37) 
2.94424e-06

>  <r_epik_State_Penalty>  (37) 
-0

>  <r_epik_Charging_Adjusted_Penalty>  (37) 
0

>  <i_epik_Tot_Q>  (37) 
0

>  <i_epik_Tot_abs_Q>  (37) 
0

>  <s_epik_Chemistry_Notes>  (37) 
This compound has an ester and may undergo hydrolysis at high or low pH.

>  <s_lp_Force_Field>  (37) 
OPLS3e

>  <r_lp_Energy>  (37) 
102.773

>  <b_lp_Chiralities_Consistent>  (37) 
1

>  <s_lp_Variant>  (37) 
8:0-1

>  <s_i_glide_gridfile>  (37) 
pfpi4k_grid

>  <i_i_glide_lignum>  (37) 
15

>  <i_i_glide_rotatable_bonds>  (37) 
4

>  <r_i_docking_score>  (37) 
-1.88824

>  <r_i_glide_ligand_efficiency>  (37) 
-0.0510335

>  <r_i_glide_ligand_efficiency_sa>  (37) 
-0.170055

>  <r_i_glide_ligand_efficiency_ln>  (37) 
-0.409515

>  <r_i_glide_gscore>  (37) 
-1.88824

>  <r_i_glide_lipo>  (37) 
-0.214547

>  <r_i_glide_hbond>  (37) 
0

>  <r_i_glide_metal>  (37) 
-0

>  <r_i_glide_rewards>  (37) 
0

>  <r_i_glide_evdw>  (37) 
-26.5866

>  <r_i_glide_ecoul>  (37) 
-3.73592

>  <r_i_glide_erotb>  (37) 
0.239039

>  <r_i_glide_esite>  (37) 
-0.0230149

>  <r_i_glide_emodel>  (37) 
-33.0503

>  <r_i_glide_energy>  (37) 
-30.3225

>  <r_i_glide_einternal>  (37) 
1.86625

>  <r_i_glide_intrahb_reward>  (37) 
-0

>  <i_i_glide_confnum>  (37) 
1

>  <i_i_glide_posenum>  (37) 
17

>  <r_i_glide_eff_state_penalty>  (37) 
0

>  <ligand_id>  (37) 
8

>  <original_smiles>  (37) 
C=C1CCCC2C(CCc3ccoc3O)C3=CCC4C5(C)CCC(O)C(C)(C)C5CCC4(C)C3(C)C12C

>  <smiles>  (37) 
[H]OC1([H])C([H])([H])C([H])([H])C2(C([H])([H])[H])C([H])(C([H])([H])C([H])([H])C3(C([H])([H])[H])C2([H])C([H])([H])C([H])=C2C([H])(C([H])([H])C([H])([H])C4=C([H])C([H])([H])OC4=O)C4([H])C([H])([H])C([H])([H])C([H])([H])C(=C([H])[H])C4(C([H])([H])[H])C23C([H])([H])[H])C1(C([H])([H])[H])C([H])([H])[H]

$$$$
10:1:0
     RDKit          3D

 49 53  0  0  1  0  0  0  0  0999 V2000
    2.6599   -5.5628    1.7206 C   0  0  0  0  0  0  0  0  0  0  0  0
    3.0629   -4.5756    0.5976 C   0  0  0  0  0  0  0  0  0  0  0  0
    2.0560   -4.9911   -0.5117 C   0  0  0  0  0  0  0  0  0  0  0  0
    2.8476   -3.0400    0.9503 C   0  0  2  0  0  0  0  0  0  0  0  0
    3.3994   -2.4443   -0.4282 C   0  0  0  0  0  0  0  0  0  0  0  0
    4.7441   -3.2456   -0.7324 C   0  0  1  0  0  0  0  0  0  0  0  0
    4.8013   -3.4603   -2.1312 O   0  0  0  0  0  0  0  0  0  0  0  0
    6.1155   -2.4783   -0.3436 C   0  0  1  0  0  0  0  0  0  0  0  0
    6.6270   -1.2790    0.5469 C   0  0  0  0  0  0  0  0  0  0  0  0
    6.2118   -1.5472    1.9436 N   0  0  2  0  0  0  0  0  0  0  0  0
    5.3510   -0.5425    2.7091 C   0  0  0  0  0  0  0  0  0  0  0  0
    3.7848   -0.9586    2.8648 C   0  0  0  0  0  0  0  0  0  0  0  0
    3.4854   -2.4251    2.3453 C   0  0  1  0  0  0  0  0  0  0  0  0
    4.7136   -3.1473    3.0210 C   0  0  1  0  0  0  0  0  0  0  0  0
    4.6215   -4.4540    3.8297 C   0  0  0  0  0  0  0  0  0  0  0  0
    5.7324   -4.6256    4.6882 O   0  0  0  0  0  0  0  0  0  0  0  0
    5.8488   -3.0359    1.9994 C   0  0  2  0  0  0  0  0  0  0  0  0
    6.7534   -4.2102    1.6044 C   0  0  0  0  0  0  0  0  0  0  0  0
    5.8171   -5.2122    0.7854 C   0  0  0  0  0  0  0  0  0  0  0  0
    4.5285   -4.7016   -0.0689 C   0  0  1  0  0  0  0  0  0  0  0  0
    5.3765   -2.7321    0.8027 O   0  0  0  0  0  0  0  0  0  0  0  0
    2.4851   -5.0556    2.6636 H   0  0  0  0  0  0  0  0  0  0  0  0
    3.3650   -6.3832    1.8342 H   0  0  0  0  0  0  0  0  0  0  0  0
    1.7062   -6.0609    1.5380 H   0  0  0  0  0  0  0  0  0  0  0  0
    2.2145   -4.5374   -1.4759 H   0  0  0  0  0  0  0  0  0  0  0  0
    1.0252   -4.7651   -0.3221 H   0  0  0  0  0  0  0  0  0  0  0  0
    2.0563   -6.0638   -0.6522 H   0  0  0  0  0  0  0  0  0  0  0  0
    1.7928   -2.7991    1.0039 H   0  0  0  0  0  0  0  0  0  0  0  0
    2.6717   -2.5694   -1.2204 H   0  0  0  0  0  0  0  0  0  0  0  0
    3.5572   -1.3589   -0.4347 H   0  0  0  0  0  0  0  0  0  0  0  0
    4.1072   -4.0686   -2.3663 H   0  0  0  0  0  0  0  0  0  0  0  0
    5.9098   -1.7529   -1.1369 H   0  0  0  0  0  0  0  0  0  0  0  0
    7.7094   -1.2198    0.5211 H   0  0  0  0  0  0  0  0  0  0  0  0
    6.2605   -0.3035    0.2180 H   0  0  0  0  0  0  0  0  0  0  0  0
    5.7741   -0.4137    3.7001 H   0  0  0  0  0  0  0  0  0  0  0  0
    5.3841    0.4371    2.2455 H   0  0  0  0  0  0  0  0  0  0  0  0
    3.5367   -0.9422    3.9403 H   0  0  0  0  0  0  0  0  0  0  0  0
    3.1143   -0.1793    2.4577 H   0  0  0  0  0  0  0  0  0  0  0  0
    3.7124   -1.7066    1.5889 H   0  0  0  0  0  0  0  0  0  0  0  0
    5.0470   -2.5695    3.8904 H   0  0  0  0  0  0  0  0  0  0  0  0
    3.7479   -4.4260    4.4714 H   0  0  0  0  0  0  0  0  0  0  0  0
    4.5943   -5.3602    3.2452 H   0  0  0  0  0  0  0  0  0  0  0  0
    5.6294   -5.4548    5.1430 H   0  0  0  0  0  0  0  0  0  0  0  0
    7.6263   -3.8660    1.0208 H   0  0  0  0  0  0  0  0  0  0  0  0
    7.1656   -4.6949    2.4782 H   0  0  0  0  0  0  0  0  0  0  0  0
    6.4766   -5.7171    0.0826 H   0  0  0  0  0  0  0  0  0  0  0  0
    5.5064   -6.0241    1.4414 H   0  0  0  0  0  0  0  0  0  0  0  0
    4.4499   -5.4556   -0.8558 H   0  0  0  0  0  0  0  0  0  0  0  0
    5.3541   -1.3730    1.4229 H   0  0  0  0  0  0  0  0  0  0  0  0
  1  2  1  0
  1 22  1  0
  1 23  1  0
  1 24  1  0
  2 20  1  0
  2  3  1  0
  2  4  1  0
  3 25  1  0
  3 26  1  0
  3 27  1  0
  4 13  1  0
  4  5  1  0
  4 28  1  1
  5  6  1  0
  5 29  1  0
  5 30  1  0
  6 20  1  0
  6  7  1  6
  6  8  1  0
  7 31  1  0
  8 21  1  0
  8  9  1  0
  8 32  1  1
  9 10  1  0
  9 33  1  0
  9 34  1  0
 10 17  1  0
 10 11  1  0
 10 49  1  1
 11 12  1  0
 11 35  1  0
 11 36  1  0
 12 13  1  0
 12 37  1  0
 12 38  1  0
 13 14  1  0
 13 39  1  1
 14 15  1  0
 14 17  1  0
 14 40  1  1
 15 16  1  0
 15 41  1  0
 15 42  1  0
 16 43  1  0
 17 18  1  6
 17 21  1  0
 18 19  1  0
 18 44  1  0
 18 45  1  0
 19 20  1  0
 19 46  1  0
 19 47  1  0
 20 48  1  6
M  CHG  1  10   1
M  END
>  <i_m_ct_stereo_status>  (38) 
1

>  <s_m_source_file>  (38) 
/var/tmp/pbs.5076255.sched01/tmp7e7yg0hy/0s0dyhj_r.sdf

>  <i_m_source_file_index>  (38) 
18

>  <i_lp_mmshare_version>  (38) 
48012

>  <i_f3d_flags>  (38) 
0

>  <s_epik_input>  (38) 
W09IXVtDSDJdW0NAQEhdMVtDQEhdKFtDSDJdW0NIMl0yKVtDQEBIXShbQ0gyXTMpQyhbQ0gzXSkoW0NIM10pW0NASF0oW0NIMl1bQ0gyXTQpW0NAXTMoW09IXSlbQ0BASF0oTzUpW0NIMl1OMltDQF0xNDU=

>  <s_epik_cmdline>  (38) 
J2VwaWtfcHl0aG9uJywgJy1waHQnLCAnMi4wJywgJy1waCcsICc3LjAnLCAnLXRuJywgJzgnLCAnLW1hJywgJzIwMCcsICctaW1hZScsICc8aW5maWxlLm1hZT4nLCAnLW9tYWUnLCAnPG91dGZpbGUubWFlPic=

>  <r_epik_Ionization_Penalty>  (38) 
0.0400224

>  <r_epik_Ionization_Penalty_Charging>  (38) 
0.0400223

>  <r_epik_Ionization_Penalty_Neutral>  (38) 
1.11247e-07

>  <r_epik_State_Penalty>  (38) 
0.0336618

>  <r_epik_Charging_Adjusted_Penalty>  (38) 
0.0736841

>  <i_epik_Tot_Q>  (38) 
1

>  <i_epik_Tot_abs_Q>  (38) 
1

>  <s_lp_Force_Field>  (38) 
OPLS3e

>  <r_lp_Energy>  (38) 
321.71

>  <b_lp_Chiralities_Consistent>  (38) 
1

>  <s_lp_Variant>  (38) 
10:0-2

>  <s_i_glide_gridfile>  (38) 
pfpi4k_grid

>  <i_i_glide_lignum>  (38) 
18

>  <i_i_glide_rotatable_bonds>  (38) 
3

>  <r_i_docking_score>  (38) 
-2.56404

>  <r_i_glide_ligand_efficiency>  (38) 
-0.122097

>  <r_i_glide_ligand_efficiency_sa>  (38) 
-0.336857

>  <r_i_glide_ligand_efficiency_ln>  (38) 
-0.633955

>  <r_i_glide_gscore>  (38) 
-2.56404

>  <r_i_glide_lipo>  (38) 
-0.374618

>  <r_i_glide_hbond>  (38) 
0

>  <r_i_glide_metal>  (38) 
-0

>  <r_i_glide_rewards>  (38) 
-1.45864

>  <r_i_glide_evdw>  (38) 
-10.5334

>  <r_i_glide_ecoul>  (38) 
-2.76734

>  <r_i_glide_erotb>  (38) 
0.210993

>  <r_i_glide_esite>  (38) 
0

>  <r_i_glide_emodel>  (38) 
-14.046

>  <r_i_glide_energy>  (38) 
-13.3008

>  <r_i_glide_einternal>  (38) 
0.893199

>  <r_i_glide_intrahb_reward>  (38) 
-0

>  <i_i_glide_confnum>  (38) 
3

>  <i_i_glide_posenum>  (38) 
23

>  <r_i_glide_eff_state_penalty>  (38) 
0

>  <ligand_id>  (38) 
10

>  <original_smiles>  (38) 
CC1(C)C2CC3(O)C4CN5CCC2C(CO)C5(CCC13)O4

>  <smiles>  (38) 
[H]OC([H])([H])C1([H])C2([H])C([H])([H])C([H])([H])[N+]3([H])C([H])([H])C4([H])OC13C([H])([H])C([H])([H])C1([H])C4(O[H])C([H])([H])C2([H])C1(C([H])([H])[H])C([H])([H])[H]

$$$$
10:2:0
     RDKit          3D

 48 52  0  0  1  0  0  0  0  0999 V2000
    7.5472   -3.8213    0.0155 C   0  0  0  0  0  0  0  0  0  0  0  0
    6.1954   -3.3586   -0.6072 C   0  0  0  0  0  0  0  0  0  0  0  0
    6.6471   -2.9700   -2.0543 C   0  0  0  0  0  0  0  0  0  0  0  0
    5.0724   -4.4625   -0.6289 C   0  0  2  0  0  0  0  0  0  0  0  0
    3.8961   -3.4511   -1.0825 C   0  0  0  0  0  0  0  0  0  0  0  0
    3.8972   -2.1754   -0.1341 C   0  0  1  0  0  0  0  0  0  0  0  0
    3.4747   -1.0949   -0.9505 O   0  0  0  0  0  0  0  0  0  0  0  0
    2.8886   -2.1311    1.2380 C   0  0  2  0  0  0  0  0  0  0  0  0
    2.8974   -2.6753    2.8319 C   0  0  0  0  0  0  0  0  0  0  0  0
    3.1309   -4.1810    2.8430 N   0  0  0  0  0  0  0  0  0  0  0  0
    4.2398   -5.1147    3.3578 C   0  0  0  0  0  0  0  0  0  0  0  0
    5.1588   -5.9151    2.1663 C   0  0  0  0  0  0  0  0  0  0  0  0
    4.7981   -5.6448    0.5665 C   0  0  1  0  0  0  0  0  0  0  0  0
    3.3927   -5.4401    0.8192 C   0  0  1  0  0  0  0  0  0  0  0  0
    2.4866   -6.5624    1.4408 C   0  0  0  0  0  0  0  0  0  0  0  0
    1.0933   -6.3159    1.2677 O   0  0  0  0  0  0  0  0  0  0  0  0
    3.5605   -4.0735    1.6214 C   0  0  2  0  0  0  0  0  0  0  0  0
    5.1356   -3.2356    1.9632 C   0  0  0  0  0  0  0  0  0  0  0  0
    5.5803   -1.8971    1.4149 C   0  0  0  0  0  0  0  0  0  0  0  0
    5.4460   -2.0594   -0.0208 C   0  0  1  0  0  0  0  0  0  0  0  0
    2.5512   -3.3857    0.9989 O   0  0  0  0  0  0  0  0  0  0  0  0
    8.2132   -4.2485   -0.7349 H   0  0  0  0  0  0  0  0  0  0  0  0
    7.4502   -4.6240    0.7410 H   0  0  0  0  0  0  0  0  0  0  0  0
    8.0961   -2.9978    0.4733 H   0  0  0  0  0  0  0  0  0  0  0  0
    5.9221   -2.3701   -2.6141 H   0  0  0  0  0  0  0  0  0  0  0  0
    6.8701   -3.8410   -2.6612 H   0  0  0  0  0  0  0  0  0  0  0  0
    7.5504   -2.3635   -2.0366 H   0  0  0  0  0  0  0  0  0  0  0  0
    5.2678   -5.0711   -1.5083 H   0  0  0  0  0  0  0  0  0  0  0  0
    4.1196   -3.1344   -2.1040 H   0  0  0  0  0  0  0  0  0  0  0  0
    2.9059   -3.8348   -1.3046 H   0  0  0  0  0  0  0  0  0  0  0  0
    2.5235   -1.0568   -0.9365 H   0  0  0  0  0  0  0  0  0  0  0  0
    2.0269   -1.4860    1.0620 H   0  0  0  0  0  0  0  0  0  0  0  0
    3.4695   -2.0748    3.5259 H   0  0  0  0  0  0  0  0  0  0  0  0
    1.8671   -2.5678    3.1769 H   0  0  0  0  0  0  0  0  0  0  0  0
    4.8861   -4.6634    4.1115 H   0  0  0  0  0  0  0  0  0  0  0  0
    3.7459   -5.9009    3.9406 H   0  0  0  0  0  0  0  0  0  0  0  0
    6.2307   -5.7965    2.3488 H   0  0  0  0  0  0  0  0  0  0  0  0
    5.0452   -6.9878    2.3468 H   0  0  0  0  0  0  0  0  0  0  0  0
    4.9308   -6.6035    0.0507 H   0  0  0  0  0  0  0  0  0  0  0  0
    2.8679   -5.3643   -0.1182 H   0  0  0  0  0  0  0  0  0  0  0  0
    2.7099   -7.4784    0.8793 H   0  0  0  0  0  0  0  0  0  0  0  0
    2.6432   -6.8773    2.4578 H   0  0  0  0  0  0  0  0  0  0  0  0
    0.6468   -7.1107    1.5060 H   0  0  0  0  0  0  0  0  0  0  0  0
    5.2525   -2.9785    3.0130 H   0  0  0  0  0  0  0  0  0  0  0  0
    6.0197   -3.8239    1.9104 H   0  0  0  0  0  0  0  0  0  0  0  0
    5.0481   -1.0332    1.8100 H   0  0  0  0  0  0  0  0  0  0  0  0
    6.6337   -1.7233    1.6797 H   0  0  0  0  0  0  0  0  0  0  0  0
    5.8193   -1.1503   -0.4979 H   0  0  0  0  0  0  0  0  0  0  0  0
  1  2  1  0
  1 22  1  0
  1 23  1  0
  1 24  1  0
  2 20  1  0
  2  3  1  0
  2  4  1  0
  3 25  1  0
  3 26  1  0
  3 27  1  0
  4 13  1  0
  4  5  1  0
  4 28  1  6
  5  6  1  0
  5 29  1  0
  5 30  1  0
  6 20  1  0
  6  7  1  6
  6  8  1  0
  7 31  1  0
  8 21  1  0
  8  9  1  0
  8 32  1  1
  9 10  1  0
  9 33  1  0
  9 34  1  0
 17 10  1  1
 10 11  1  0
 11 12  1  0
 11 35  1  0
 11 36  1  0
 12 13  1  0
 12 37  1  0
 12 38  1  0
 13 14  1  0
 13 39  1  6
 14 15  1  0
 14 17  1  0
 14 40  1  6
 15 16  1  0
 15 41  1  0
 15 42  1  0
 16 43  1  0
 17 18  1  0
 17 21  1  0
 18 19  1  0
 18 44  1  0
 18 45  1  0
 19 20  1  0
 19 46  1  0
 19 47  1  0
 20 48  1  6
M  END
>  <i_m_ct_stereo_status>  (39) 
1

>  <s_m_source_file>  (39) 
/var/tmp/pbs.5076255.sched01/tmp7e7yg0hy/0s0dyhj_r.sdf

>  <i_m_source_file_index>  (39) 
19

>  <i_lp_mmshare_version>  (39) 
48012

>  <i_f3d_flags>  (39) 
0

>  <s_epik_input>  (39) 
W09IXVtDSDJdW0NAQEhdMVtDQEhdKFtDSDJdW0NIMl0yKVtDQEBIXShbQ0gyXTMpQyhbQ0gzXSkoW0NIM10pW0NASF0oW0NIMl1bQ0gyXTQpW0NAXTMoW09IXSlbQ0BASF0oTzUpW0NIMl1OMltDQF0xNDU=

>  <s_epik_cmdline>  (39) 
J2VwaWtfcHl0aG9uJywgJy1waHQnLCAnMi4wJywgJy1waCcsICc3LjAnLCAnLXRuJywgJzgnLCAnLW1hJywgJzIwMCcsICctaW1hZScsICc8aW5maWxlLm1hZT4nLCAnLW9tYWUnLCAnPG91dGZpbGUubWFlPic=

>  <r_epik_Ionization_Penalty>  (39) 
1.61658

>  <r_epik_Ionization_Penalty_Charging>  (39) 
0

>  <r_epik_Ionization_Penalty_Neutral>  (39) 
1.61658

>  <r_epik_State_Penalty>  (39) 
1.71598

>  <r_epik_Charging_Adjusted_Penalty>  (39) 
1.71598

>  <i_epik_Tot_Q>  (39) 
0

>  <i_epik_Tot_abs_Q>  (39) 
0

>  <s_lp_Force_Field>  (39) 
OPLS3e

>  <r_lp_Energy>  (39) 
346.225

>  <b_lp_Chiralities_Consistent>  (39) 
1

>  <s_lp_Variant>  (39) 
10:0-3

>  <s_i_glide_gridfile>  (39) 
pfpi4k_grid

>  <i_i_glide_lignum>  (39) 
19

>  <i_i_glide_rotatable_bonds>  (39) 
3

>  <r_i_docking_score>  (39) 
-3.44401

>  <r_i_glide_ligand_efficiency>  (39) 
-0.164

>  <r_i_glide_ligand_efficiency_sa>  (39) 
-0.452464

>  <r_i_glide_ligand_efficiency_ln>  (39) 
-0.851524

>  <r_i_glide_gscore>  (39) 
-3.44401

>  <r_i_glide_lipo>  (39) 
-0.564072

>  <r_i_glide_hbond>  (39) 
0

>  <r_i_glide_metal>  (39) 
-0

>  <r_i_glide_rewards>  (39) 
-1.41597

>  <r_i_glide_evdw>  (39) 
-16.3791

>  <r_i_glide_ecoul>  (39) 
-5.71515

>  <r_i_glide_erotb>  (39) 
0.21226

>  <r_i_glide_esite>  (39) 
0

>  <r_i_glide_emodel>  (39) 
-27.2553

>  <r_i_glide_energy>  (39) 
-22.0942

>  <r_i_glide_einternal>  (39) 
1.18025

>  <r_i_glide_intrahb_reward>  (39) 
-0

>  <i_i_glide_confnum>  (39) 
6

>  <i_i_glide_posenum>  (39) 
12

>  <r_i_glide_eff_state_penalty>  (39) 
0

>  <ligand_id>  (39) 
10

>  <original_smiles>  (39) 
CC1(C)C2CC3(O)C4CN5CCC2C(CO)C5(CCC13)O4

>  <smiles>  (39) 
[H]OC([H])([H])C1([H])C23OC4([H])C([H])([H])N2C([H])([H])C([H])([H])C1([H])C1([H])C([H])([H])C4(O[H])C([H])(C([H])([H])C3([H])[H])C1(C([H])([H])[H])C([H])([H])[H]

$$$$
10:2:1
     RDKit          3D

 48 52  0  0  1  0  0  0  0  0999 V2000
    6.6040   -3.6230    0.1222 C   0  0  0  0  0  0  0  0  0  0  0  0
    5.2155   -2.9341   -0.0584 C   0  0  0  0  0  0  0  0  0  0  0  0
    5.4656   -2.0791   -1.3416 C   0  0  0  0  0  0  0  0  0  0  0  0
    4.0229   -3.9394   -0.2511 C   0  0  2  0  0  0  0  0  0  0  0  0
    2.8792   -2.8007   -0.1211 C   0  0  0  0  0  0  0  0  0  0  0  0
    3.1230   -1.9257    1.1831 C   0  0  1  0  0  0  0  0  0  0  0  0
    2.6590   -0.6186    0.8792 O   0  0  0  0  0  0  0  0  0  0  0  0
    2.3555   -2.3347    2.6533 C   0  0  2  0  0  0  0  0  0  0  0  0
    2.5667   -3.4082    3.9324 C   0  0  0  0  0  0  0  0  0  0  0  0
    2.6855   -4.8357    3.4074 N   0  0  0  0  0  0  0  0  0  0  0  0
    3.7691   -5.9194    3.3479 C   0  0  0  0  0  0  0  0  0  0  0  0
    4.4225   -6.2723    1.8203 C   0  0  0  0  0  0  0  0  0  0  0  0
    3.8286   -5.4536    0.4928 C   0  0  1  0  0  0  0  0  0  0  0  0
    2.5044   -5.3101    1.0621 C   0  0  1  0  0  0  0  0  0  0  0  0
    1.6268   -6.5744    1.4083 C   0  0  0  0  0  0  0  0  0  0  0  0
    0.2706   -6.2597    1.6769 O   0  0  0  0  0  0  0  0  0  0  0  0
    2.9118   -4.3125    2.2238 C   0  0  2  0  0  0  0  0  0  0  0  0
    4.5886   -3.6906    2.5472 C   0  0  0  0  0  0  0  0  0  0  0  0
    5.0557   -2.2548    2.4153 C   0  0  0  0  0  0  0  0  0  0  0  0
    4.6783   -1.9003    1.0552 C   0  0  1  0  0  0  0  0  0  0  0  0
    1.8858   -3.4208    2.0838 O   0  0  0  0  0  0  0  0  0  0  0  0
    7.0955   -3.7878   -0.8365 H   0  0  0  0  0  0  0  0  0  0  0  0
    6.5559   -4.6221    0.5433 H   0  0  0  0  0  0  0  0  0  0  0  0
    7.2896   -3.0234    0.7209 H   0  0  0  0  0  0  0  0  0  0  0  0
    4.7221   -1.3052   -1.5355 H   0  0  0  0  0  0  0  0  0  0  0  0
    5.5325   -2.7008   -2.2372 H   0  0  0  0  0  0  0  0  0  0  0  0
    6.4061   -1.5348   -1.2624 H   0  0  0  0  0  0  0  0  0  0  0  0
    4.0372   -4.2169   -1.3056 H   0  0  0  0  0  0  0  0  0  0  0  0
    2.9675   -2.1574   -0.9925 H   0  0  0  0  0  0  0  0  0  0  0  0
    1.8363   -3.0577   -0.2842 H   0  0  0  0  0  0  0  0  0  0  0  0
    1.9094   -0.6905    0.2785 H   0  0  0  0  0  0  0  0  0  0  0  0
    1.5213   -1.6644    2.8385 H   0  0  0  0  0  0  0  0  0  0  0  0
    3.2894   -3.1003    4.6856 H   0  0  0  0  0  0  0  0  0  0  0  0
    1.6159   -3.4081    4.4649 H   0  0  0  0  0  0  0  0  0  0  0  0
    4.5562   -5.7791    4.0989 H   0  0  0  0  0  0  0  0  0  0  0  0
    3.3014   -6.8395    3.7097 H   0  0  0  0  0  0  0  0  0  0  0  0
    5.5136   -6.2463    1.8423 H   0  0  0  0  0  0  0  0  0  0  0  0
    4.2537   -7.3364    1.6404 H   0  0  0  0  0  0  0  0  0  0  0  0
    3.8090   -6.1732   -0.3208 H   0  0  0  0  0  0  0  0  0  0  0  0
    1.8422   -4.9054    0.3093 H   0  0  0  0  0  0  0  0  0  0  0  0
    1.5918   -7.1815    0.5236 H   0  0  0  0  0  0  0  0  0  0  0  0
    1.9674   -7.2596    2.1771 H   0  0  0  0  0  0  0  0  0  0  0  0
   -0.1461   -7.0717    1.9308 H   0  0  0  0  0  0  0  0  0  0  0  0
    4.8854   -3.8196    3.5879 H   0  0  0  0  0  0  0  0  0  0  0  0
    5.4018   -4.2411    2.1448 H   0  0  0  0  0  0  0  0  0  0  0  0
    4.6657   -1.5706    3.1725 H   0  0  0  0  0  0  0  0  0  0  0  0
    6.1421   -2.2178    2.5240 H   0  0  0  0  0  0  0  0  0  0  0  0
    5.0531   -0.8925    0.8587 H   0  0  0  0  0  0  0  0  0  0  0  0
  1  2  1  0
  1 22  1  0
  1 23  1  0
  1 24  1  0
  2 20  1  0
  2  3  1  0
  2  4  1  0
  3 25  1  0
  3 26  1  0
  3 27  1  0
  4 13  1  0
  4  5  1  0
  4 28  1  6
  5  6  1  0
  5 29  1  0
  5 30  1  0
  6 20  1  0
  6  7  1  6
  6  8  1  0
  7 31  1  0
  8 21  1  0
  8  9  1  0
  8 32  1  1
  9 10  1  0
  9 33  1  0
  9 34  1  0
 17 10  1  1
 10 11  1  0
 11 12  1  0
 11 35  1  0
 11 36  1  0
 12 13  1  0
 12 37  1  0
 12 38  1  0
 13 14  1  0
 13 39  1  6
 14 15  1  0
 14 17  1  0
 14 40  1  6
 15 16  1  0
 15 41  1  0
 15 42  1  0
 16 43  1  0
 17 18  1  0
 17 21  1  0
 18 19  1  0
 18 44  1  0
 18 45  1  0
 19 20  1  0
 19 46  1  0
 19 47  1  0
 20 48  1  6
M  END
>  <i_m_ct_stereo_status>  (40) 
1

>  <s_m_source_file>  (40) 
/var/tmp/pbs.5076255.sched01/tmp7e7yg0hy/0s0dyhj_r.sdf

>  <i_m_source_file_index>  (40) 
19

>  <i_lp_mmshare_version>  (40) 
48012

>  <i_f3d_flags>  (40) 
0

>  <s_epik_input>  (40) 
W09IXVtDSDJdW0NAQEhdMVtDQEhdKFtDSDJdW0NIMl0yKVtDQEBIXShbQ0gyXTMpQyhbQ0gzXSkoW0NIM10pW0NASF0oW0NIMl1bQ0gyXTQpW0NAXTMoW09IXSlbQ0BASF0oTzUpW0NIMl1OMltDQF0xNDU=

>  <s_epik_cmdline>  (40) 
J2VwaWtfcHl0aG9uJywgJy1waHQnLCAnMi4wJywgJy1waCcsICc3LjAnLCAnLXRuJywgJzgnLCAnLW1hJywgJzIwMCcsICctaW1hZScsICc8aW5maWxlLm1hZT4nLCAnLW9tYWUnLCAnPG91dGZpbGUubWFlPic=

>  <r_epik_Ionization_Penalty>  (40) 
1.61658

>  <r_epik_Ionization_Penalty_Charging>  (40) 
0

>  <r_epik_Ionization_Penalty_Neutral>  (40) 
1.61658

>  <r_epik_State_Penalty>  (40) 
1.71598

>  <r_epik_Charging_Adjusted_Penalty>  (40) 
1.71598

>  <i_epik_Tot_Q>  (40) 
0

>  <i_epik_Tot_abs_Q>  (40) 
0

>  <s_lp_Force_Field>  (40) 
OPLS3e

>  <r_lp_Energy>  (40) 
346.225

>  <b_lp_Chiralities_Consistent>  (40) 
1

>  <s_lp_Variant>  (40) 
10:0-3

>  <s_i_glide_gridfile>  (40) 
pfpi4k_grid

>  <i_i_glide_lignum>  (40) 
19

>  <i_i_glide_rotatable_bonds>  (40) 
3

>  <r_i_docking_score>  (40) 
-3.11378

>  <r_i_glide_ligand_efficiency>  (40) 
-0.148275

>  <r_i_glide_ligand_efficiency_sa>  (40) 
-0.409081

>  <r_i_glide_ligand_efficiency_ln>  (40) 
-0.769877

>  <r_i_glide_gscore>  (40) 
-3.11378

>  <r_i_glide_lipo>  (40) 
-0.28934

>  <r_i_glide_hbond>  (40) 
0

>  <r_i_glide_metal>  (40) 
-0

>  <r_i_glide_rewards>  (40) 
-1.40863

>  <r_i_glide_evdw>  (40) 
-11.4543

>  <r_i_glide_ecoul>  (40) 
-7.01593

>  <r_i_glide_erotb>  (40) 
0.21226

>  <r_i_glide_esite>  (40) 
-0.00296874

>  <r_i_glide_emodel>  (40) 
-22.9582

>  <r_i_glide_energy>  (40) 
-18.4703

>  <r_i_glide_einternal>  (40) 
1.47618

>  <r_i_glide_intrahb_reward>  (40) 
-0

>  <i_i_glide_confnum>  (40) 
3

>  <i_i_glide_posenum>  (40) 
4

>  <r_i_glide_eff_state_penalty>  (40) 
0

>  <ligand_id>  (40) 
10

>  <original_smiles>  (40) 
CC1(C)C2CC3(O)C4CN5CCC2C(CO)C5(CCC13)O4

>  <smiles>  (40) 
[H]OC([H])([H])C1([H])C23OC4([H])C([H])([H])N2C([H])([H])C([H])([H])C1([H])C1([H])C([H])([H])C4(O[H])C([H])(C([H])([H])C3([H])[H])C1(C([H])([H])[H])C([H])([H])[H]

$$$$
10:2:2
     RDKit          3D

 48 52  0  0  1  0  0  0  0  0999 V2000
    6.7116   -2.8959   -0.8872 C   0  0  0  0  0  0  0  0  0  0  0  0
    5.2289   -2.4436   -0.6938 C   0  0  0  0  0  0  0  0  0  0  0  0
    4.9850   -1.6408   -2.0104 C   0  0  0  0  0  0  0  0  0  0  0  0
    4.2124   -3.6366   -0.5434 C   0  0  2  0  0  0  0  0  0  0  0  0
    2.9718   -2.6885   -0.1291 C   0  0  0  0  0  0  0  0  0  0  0  0
    3.3901   -1.7140    1.0507 C   0  0  1  0  0  0  0  0  0  0  0  0
    2.6435   -0.5168    0.9001 O   0  0  0  0  0  0  0  0  0  0  0  0
    3.1092   -2.1722    2.6724 C   0  0  2  0  0  0  0  0  0  0  0  0
    3.8337   -3.1026    3.8651 C   0  0  0  0  0  0  0  0  0  0  0  0
    4.0399   -4.5244    3.3413 N   0  0  0  0  0  0  0  0  0  0  0  0
    5.2410   -5.4125    3.0291 C   0  0  0  0  0  0  0  0  0  0  0  0
    5.5313   -5.7503    1.3855 C   0  0  0  0  0  0  0  0  0  0  0  0
    4.4916   -5.1191    0.2423 C   0  0  1  0  0  0  0  0  0  0  0  0
    3.3552   -5.1629    1.1373 C   0  0  1  0  0  0  0  0  0  0  0  0
    2.8185   -6.5179    1.7208 C   0  0  0  0  0  0  0  0  0  0  0  0
    1.5993   -6.3313    2.4098 O   0  0  0  0  0  0  0  0  0  0  0  0
    3.8579   -4.0409    2.1313 C   0  0  2  0  0  0  0  0  0  0  0  0
    5.4338   -3.1366    1.9841 C   0  0  0  0  0  0  0  0  0  0  0  0
    5.6054   -1.6563    1.7207 C   0  0  0  0  0  0  0  0  0  0  0  0
    4.8317   -1.4443    0.5073 C   0  0  1  0  0  0  0  0  0  0  0  0
    2.6853   -3.3485    2.2525 O   0  0  0  0  0  0  0  0  0  0  0  0
    6.9518   -3.0441   -1.9404 H   0  0  0  0  0  0  0  0  0  0  0  0
    6.9425   -3.8627   -0.4512 H   0  0  0  0  0  0  0  0  0  0  0  0
    7.4232   -2.1661   -0.5006 H   0  0  0  0  0  0  0  0  0  0  0  0
    4.0978   -1.0093   -2.0081 H   0  0  0  0  0  0  0  0  0  0  0  0
    4.9164   -2.2981   -2.8766 H   0  0  0  0  0  0  0  0  0  0  0  0
    5.8028   -0.9467   -2.1968 H   0  0  0  0  0  0  0  0  0  0  0  0
    3.9940   -3.9734   -1.5621 H   0  0  0  0  0  0  0  0  0  0  0  0
    2.7173   -2.0953   -1.0084 H   0  0  0  0  0  0  0  0  0  0  0  0
    1.9843   -3.1213   -0.0026 H   0  0  0  0  0  0  0  0  0  0  0  0
    1.9226   -0.6561    0.2557 H   0  0  0  0  0  0  0  0  0  0  0  0
    2.2674   -1.6062    3.0792 H   0  0  0  0  0  0  0  0  0  0  0  0
    4.6801   -2.6360    4.3844 H   0  0  0  0  0  0  0  0  0  0  0  0
    3.0862   -3.2134    4.6466 H   0  0  0  0  0  0  0  0  0  0  0  0
    6.1693   -5.0978    3.5281 H   0  0  0  0  0  0  0  0  0  0  0  0
    5.0555   -6.3697    3.5144 H   0  0  0  0  0  0  0  0  0  0  0  0
    6.5685   -5.5569    1.1096 H   0  0  0  0  0  0  0  0  0  0  0  0
    5.4986   -6.8377    1.2732 H   0  0  0  0  0  0  0  0  0  0  0  0
    4.3721   -5.8796   -0.5228 H   0  0  0  0  0  0  0  0  0  0  0  0
    2.4543   -4.9061    0.5913 H   0  0  0  0  0  0  0  0  0  0  0  0
    2.6089   -7.1588    0.8766 H   0  0  0  0  0  0  0  0  0  0  0  0
    3.4775   -7.1238    2.3393 H   0  0  0  0  0  0  0  0  0  0  0  0
    1.8120   -5.9473    3.2521 H   0  0  0  0  0  0  0  0  0  0  0  0
    6.0075   -3.1519    2.9042 H   0  0  0  0  0  0  0  0  0  0  0  0
    6.1957   -3.5775    1.3949 H   0  0  0  0  0  0  0  0  0  0  0  0
    5.3152   -1.0006    2.5447 H   0  0  0  0  0  0  0  0  0  0  0  0
    6.6610   -1.4371    1.5420 H   0  0  0  0  0  0  0  0  0  0  0  0
    4.9640   -0.3999    0.1999 H   0  0  0  0  0  0  0  0  0  0  0  0
  1  2  1  0
  1 22  1  0
  1 23  1  0
  1 24  1  0
  2 20  1  0
  2  3  1  0
  2  4  1  0
  3 25  1  0
  3 26  1  0
  3 27  1  0
  4 13  1  0
  4  5  1  0
  4 28  1  6
  5  6  1  0
  5 29  1  0
  5 30  1  0
  6 20  1  0
  6  7  1  6
  6  8  1  0
  7 31  1  0
  8 21  1  0
  8  9  1  0
  8 32  1  1
  9 10  1  0
  9 33  1  0
  9 34  1  0
 17 10  1  1
 10 11  1  0
 11 12  1  0
 11 35  1  0
 11 36  1  0
 12 13  1  0
 12 37  1  0
 12 38  1  0
 13 14  1  0
 13 39  1  6
 14 15  1  0
 14 17  1  0
 14 40  1  6
 15 16  1  0
 15 41  1  0
 15 42  1  0
 16 43  1  0
 17 18  1  0
 17 21  1  0
 18 19  1  0
 18 44  1  0
 18 45  1  0
 19 20  1  0
 19 46  1  0
 19 47  1  0
 20 48  1  6
M  END
>  <i_m_ct_stereo_status>  (41) 
1

>  <s_m_source_file>  (41) 
/var/tmp/pbs.5076255.sched01/tmp7e7yg0hy/0s0dyhj_r.sdf

>  <i_m_source_file_index>  (41) 
19

>  <i_lp_mmshare_version>  (41) 
48012

>  <i_f3d_flags>  (41) 
0

>  <s_epik_input>  (41) 
W09IXVtDSDJdW0NAQEhdMVtDQEhdKFtDSDJdW0NIMl0yKVtDQEBIXShbQ0gyXTMpQyhbQ0gzXSkoW0NIM10pW0NASF0oW0NIMl1bQ0gyXTQpW0NAXTMoW09IXSlbQ0BASF0oTzUpW0NIMl1OMltDQF0xNDU=

>  <s_epik_cmdline>  (41) 
J2VwaWtfcHl0aG9uJywgJy1waHQnLCAnMi4wJywgJy1waCcsICc3LjAnLCAnLXRuJywgJzgnLCAnLW1hJywgJzIwMCcsICctaW1hZScsICc8aW5maWxlLm1hZT4nLCAnLW9tYWUnLCAnPG91dGZpbGUubWFlPic=

>  <r_epik_Ionization_Penalty>  (41) 
1.61658

>  <r_epik_Ionization_Penalty_Charging>  (41) 
0

>  <r_epik_Ionization_Penalty_Neutral>  (41) 
1.61658

>  <r_epik_State_Penalty>  (41) 
1.71598

>  <r_epik_Charging_Adjusted_Penalty>  (41) 
1.71598

>  <i_epik_Tot_Q>  (41) 
0

>  <i_epik_Tot_abs_Q>  (41) 
0

>  <s_lp_Force_Field>  (41) 
OPLS3e

>  <r_lp_Energy>  (41) 
346.225

>  <b_lp_Chiralities_Consistent>  (41) 
1

>  <s_lp_Variant>  (41) 
10:0-3

>  <s_i_glide_gridfile>  (41) 
pfpi4k_grid

>  <i_i_glide_lignum>  (41) 
19

>  <i_i_glide_rotatable_bonds>  (41) 
3

>  <r_i_docking_score>  (41) 
-3.00962

>  <r_i_glide_ligand_efficiency>  (41) 
-0.143315

>  <r_i_glide_ligand_efficiency_sa>  (41) 
-0.395395

>  <r_i_glide_ligand_efficiency_ln>  (41) 
-0.744122

>  <r_i_glide_gscore>  (41) 
-3.00962

>  <r_i_glide_lipo>  (41) 
-0.31959

>  <r_i_glide_hbond>  (41) 
0

>  <r_i_glide_metal>  (41) 
-0

>  <r_i_glide_rewards>  (41) 
-1.41297

>  <r_i_glide_evdw>  (41) 
-14.654

>  <r_i_glide_ecoul>  (41) 
-5.04412

>  <r_i_glide_erotb>  (41) 
0.21226

>  <r_i_glide_esite>  (41) 
0

>  <r_i_glide_emodel>  (41) 
-24.1705

>  <r_i_glide_energy>  (41) 
-19.6981

>  <r_i_glide_einternal>  (41) 
1.42705

>  <r_i_glide_intrahb_reward>  (41) 
-0

>  <i_i_glide_confnum>  (41) 
3

>  <i_i_glide_posenum>  (41) 
1

>  <r_i_glide_eff_state_penalty>  (41) 
0

>  <ligand_id>  (41) 
10

>  <original_smiles>  (41) 
CC1(C)C2CC3(O)C4CN5CCC2C(CO)C5(CCC13)O4

>  <smiles>  (41) 
[H]OC([H])([H])C1([H])C23OC4([H])C([H])([H])N2C([H])([H])C([H])([H])C1([H])C1([H])C([H])([H])C4(O[H])C([H])(C([H])([H])C3([H])[H])C1(C([H])([H])[H])C([H])([H])[H]

$$$$
12:0:0
     RDKit          3D

 61 65  0  0  1  0  0  0  0  0999 V2000
    2.0943   -4.7530    3.4474 C   0  0  0  0  0  0  0  0  0  0  0  0
    2.6736   -4.7563    2.2418 C   0  0  0  0  0  0  0  0  0  0  0  0
    2.8574   -3.4118    1.5243 C   0  0  2  0  0  0  0  0  0  0  0  0
    2.6610   -3.3290   -0.0321 C   0  0  0  0  0  0  0  0  0  0  0  0
    3.7774   -2.7267   -0.9141 C   0  0  1  0  0  0  0  0  0  0  0  0
    4.3290   -1.4076   -0.3609 C   0  0  0  0  0  0  0  0  0  0  0  0
    5.6553   -1.7496    0.3271 C   0  0  1  0  0  0  0  0  0  0  0  0
    6.0828   -2.5227   -0.8740 C   0  0  0  0  0  0  0  0  0  0  0  0
    7.0986   -2.2817   -1.5316 O   0  0  0  0  0  0  0  0  0  0  0  0
    5.0398   -3.5977   -1.1367 C   0  0  2  0  0  0  0  0  0  0  0  0
    5.1747   -4.2897   -2.5180 C   0  0  0  0  0  0  0  0  0  0  0  0
    4.2690   -3.8638   -3.5158 O   0  0  0  0  0  0  0  0  0  0  0  0
    5.1090   -4.6063   -0.0966 O   0  0  0  0  0  0  0  0  0  0  0  0
    5.9800   -4.4096    1.0271 C   0  0  2  0  0  0  0  0  0  0  0  0
    5.6007   -5.2677    2.2616 C   0  0  0  0  0  0  0  0  0  0  0  0
    4.6110   -6.4420    2.0130 C   0  0  0  0  0  0  0  0  0  0  0  0
    3.1743   -6.0429    1.5599 C   0  0  1  0  0  0  0  0  0  0  0  0
    2.1499   -7.2061    1.5766 C   0  0  2  0  0  0  0  0  0  0  0  0
    0.9171   -6.8533    1.0021 O   0  0  0  0  0  0  0  0  0  0  0  0
    1.8825   -7.8680    2.9125 C   0  0  0  0  0  0  0  0  0  0  0  0
    2.1915   -9.0862    3.4174 C   0  0  0  0  0  0  0  0  0  0  0  0
    1.8489   -9.3867    4.8735 C   0  0  0  0  0  0  0  0  0  0  0  0
    2.8497  -10.2315    2.6554 C   0  0  2  0  0  0  0  0  0  0  0  0
    4.1061  -10.8131    3.3276 C   0  0  0  0  0  0  0  0  0  0  0  0
    3.2978   -9.8496    1.3810 O   0  0  0  0  0  0  0  0  0  0  0  0
    6.1881   -2.9047    1.3110 C   0  0  2  0  0  0  0  0  0  0  0  0
    5.1804   -2.0239    1.7822 C   0  0  1  0  0  0  0  0  0  0  0  0
    5.7262   -1.0321    2.6439 O   0  0  0  0  0  0  0  0  0  0  0  0
    3.7764   -2.4081    2.2889 C   0  0  0  0  0  0  0  0  0  0  0  0
    2.0529   -5.6069    4.0440 H   0  0  0  0  0  0  0  0  0  0  0  0
    1.6964   -3.8467    3.8443 H   0  0  0  0  0  0  0  0  0  0  0  0
    1.8842   -2.9842    1.7900 H   0  0  0  0  0  0  0  0  0  0  0  0
    2.3153   -4.2641   -0.4694 H   0  0  0  0  0  0  0  0  0  0  0  0
    1.8198   -2.6569   -0.2012 H   0  0  0  0  0  0  0  0  0  0  0  0
    3.2998   -2.4721   -1.8526 H   0  0  0  0  0  0  0  0  0  0  0  0
    4.5032   -0.7085   -1.1855 H   0  0  0  0  0  0  0  0  0  0  0  0
    3.6111   -0.8819    0.2721 H   0  0  0  0  0  0  0  0  0  0  0  0
    6.1757   -4.2002   -2.9244 H   0  0  0  0  0  0  0  0  0  0  0  0
    5.0193   -5.3487   -2.3830 H   0  0  0  0  0  0  0  0  0  0  0  0
    3.4402   -4.2986   -3.3269 H   0  0  0  0  0  0  0  0  0  0  0  0
    6.9512   -4.7693    0.6883 H   0  0  0  0  0  0  0  0  0  0  0  0
    6.5277   -5.6856    2.6620 H   0  0  0  0  0  0  0  0  0  0  0  0
    5.2212   -4.6613    3.0846 H   0  0  0  0  0  0  0  0  0  0  0  0
    5.0663   -7.1386    1.3073 H   0  0  0  0  0  0  0  0  0  0  0  0
    4.5403   -7.0019    2.9389 H   0  0  0  0  0  0  0  0  0  0  0  0
    3.2877   -5.8597    0.4828 H   0  0  0  0  0  0  0  0  0  0  0  0
    2.5602   -7.8704    0.8769 H   0  0  0  0  0  0  0  0  0  0  0  0
    0.4754   -7.6778    0.8207 H   0  0  0  0  0  0  0  0  0  0  0  0
    1.3055   -7.3109    3.6048 H   0  0  0  0  0  0  0  0  0  0  0  0
    1.1153  -10.1939    4.9629 H   0  0  0  0  0  0  0  0  0  0  0  0
    1.4178   -8.5151    5.3668 H   0  0  0  0  0  0  0  0  0  0  0  0
    2.7276   -9.6441    5.4806 H   0  0  0  0  0  0  0  0  0  0  0  0
    2.1201  -11.0408    2.5878 H   0  0  0  0  0  0  0  0  0  0  0  0
    3.9227  -11.1712    4.3499 H   0  0  0  0  0  0  0  0  0  0  0  0
    4.9052  -10.0595    3.3695 H   0  0  0  0  0  0  0  0  0  0  0  0
    4.4983  -11.6801    2.7580 H   0  0  0  0  0  0  0  0  0  0  0  0
    3.5583  -10.6544    0.9111 H   0  0  0  0  0  0  0  0  0  0  0  0
    7.1837   -2.7097    1.6800 H   0  0  0  0  0  0  0  0  0  0  0  0
    5.7332   -1.3837    3.5252 H   0  0  0  0  0  0  0  0  0  0  0  0
    3.2161   -1.4765    2.4053 H   0  0  0  0  0  0  0  0  0  0  0  0
    3.9040   -2.7732    3.3019 H   0  0  0  0  0  0  0  0  0  0  0  0
  1  2  2  0
  1 30  1  0
  1 31  1  0
  2 17  1  0
  2  3  1  0
  3 29  1  0
  3  4  1  0
  3 32  1  1
  4  5  1  0
  4 33  1  0
  4 34  1  0
  5 10  1  0
  5  6  1  0
  5 35  1  6
  7  6  1  6
  6 36  1  0
  6 37  1  0
  7 26  1  0
  7 27  1  0
  7  8  1  0
  8  9  2  0
  8 10  1  0
 10 11  1  6
 10 13  1  0
 11 12  1  0
 11 38  1  0
 11 39  1  0
 12 40  1  0
 13 14  1  0
 14 15  1  0
 14 26  1  0
 14 41  1  6
 15 16  1  0
 15 42  1  0
 15 43  1  0
 16 17  1  0
 16 44  1  0
 16 45  1  0
 17 18  1  0
 17 46  1  6
 18 19  1  0
 18 20  1  0
 18 47  1  6
 19 48  1  0
 20 21  2  3
 20 49  1  0
 21 22  1  0
 21 23  1  0
 22 50  1  0
 22 51  1  0
 22 52  1  0
 23 24  1  0
 23 25  1  0
 23 53  1  6
 24 54  1  0
 24 55  1  0
 24 56  1  0
 25 57  1  0
 26 27  1  0
 26 58  1  1
 27 28  1  1
 27 29  1  0
 28 59  1  0
 29 60  1  0
 29 61  1  0
M  END
>  <i_m_ct_stereo_status>  (42) 
1

>  <s_m_source_file>  (42) 
/var/tmp/pbs.5076255.sched01/tmp7e7yg0hy/0s0dyhj_r.sdf

>  <i_m_source_file_index>  (42) 
22

>  <i_lp_mmshare_version>  (42) 
48012

>  <i_f3d_flags>  (42) 
0

>  <s_epik_input>  (42) 
W0NIM11bQ0BIXShbT0hdKUMoXFtDSDNdKT1bQ0hdXFtDQEBIXShbT0hdKVtDQEhdKFtDSDJdW0NIMl0xKUMoPVtDSDJdKVtDQEBIXShbQ0gyXVtDQF0yM1tPSF0pW0NIMl1bQ0BASF0oW0NIMl00KVtDQF0oQzU9TykoW0NIMl1bT0hdKU9bQ0BIXTFbQ0BIXTNDMjQ1

>  <s_epik_cmdline>  (42) 
J2VwaWtfcHl0aG9uJywgJy1waHQnLCAnMi4wJywgJy1waCcsICc3LjAnLCAnLXRuJywgJzgnLCAnLW1hJywgJzIwMCcsICctaW1hZScsICc8aW5maWxlLm1hZT4nLCAnLW9tYWUnLCAnPG91dGZpbGUubWFlPic=

>  <r_lp_tautomer_probability>  (42) 
1

>  <r_epik_Ionization_Penalty>  (42) 
2.39605e-07

>  <r_epik_Ionization_Penalty_Charging>  (42) 
0

>  <r_epik_Ionization_Penalty_Neutral>  (42) 
2.39605e-07

>  <r_epik_State_Penalty>  (42) 
-0

>  <r_epik_Charging_Adjusted_Penalty>  (42) 
0

>  <i_epik_Tot_Q>  (42) 
0

>  <i_epik_Tot_abs_Q>  (42) 
0

>  <s_lp_Force_Field>  (42) 
OPLS3e

>  <r_lp_Energy>  (42) 
102.203

>  <b_lp_Chiralities_Consistent>  (42) 
1

>  <s_lp_Variant>  (42) 
12:0-1

>  <s_i_glide_gridfile>  (42) 
pfpi4k_grid

>  <i_i_glide_lignum>  (42) 
22

>  <i_i_glide_rotatable_bonds>  (42) 
8

>  <r_i_docking_score>  (42) 
-4.09756

>  <r_i_glide_ligand_efficiency>  (42) 
-0.141295

>  <r_i_glide_ligand_efficiency_sa>  (42) 
-0.434103

>  <r_i_glide_ligand_efficiency_ln>  (42) 
-0.938237

>  <r_i_glide_gscore>  (42) 
-4.09756

>  <r_i_glide_lipo>  (42) 
-0.430646

>  <r_i_glide_hbond>  (42) 
-0.51777

>  <r_i_glide_metal>  (42) 
-0

>  <r_i_glide_rewards>  (42) 
-0.65116

>  <r_i_glide_evdw>  (42) 
-20.9007

>  <r_i_glide_ecoul>  (42) 
-12.7617

>  <r_i_glide_erotb>  (42) 
0.480234

>  <r_i_glide_esite>  (42) 
-0.0189233

>  <r_i_glide_emodel>  (42) 
-36.018

>  <r_i_glide_energy>  (42) 
-33.6624

>  <r_i_glide_einternal>  (42) 
10.7566

>  <r_i_glide_intrahb_reward>  (42) 
-0

>  <i_i_glide_confnum>  (42) 
2

>  <i_i_glide_posenum>  (42) 
1

>  <r_i_glide_eff_state_penalty>  (42) 
0

>  <ligand_id>  (42) 
12

>  <original_smiles>  (42) 
C=C1C2CC3CC45C(=O)C3(CO)OC(CCC1C(O)C=C(C)C(C)O)C4C5(O)C2

>  <smiles>  (42) 
[H]OC([H])([H])C12OC3([H])C([H])([H])C([H])([H])C([H])(C([H])(O[H])C([H])=C(C([H])([H])[H])C([H])(O[H])C([H])([H])[H])C(=C([H])[H])C4([H])C([H])([H])C1([H])C([H])([H])C1(C2=O)C3([H])C1(O[H])C4([H])[H]

$$$$
12:0:1
     RDKit          3D

 61 65  0  0  1  0  0  0  0  0999 V2000
    4.7676   -7.4365    0.7303 C   0  0  0  0  0  0  0  0  0  0  0  0
    3.6474   -7.3785    1.4886 C   0  0  0  0  0  0  0  0  0  0  0  0
    3.0538   -8.7113    1.9993 C   0  0  2  0  0  0  0  0  0  0  0  0
    1.5034   -8.9113    2.0038 C   0  0  0  0  0  0  0  0  0  0  0  0
    0.7898   -9.3573    3.2930 C   0  0  1  0  0  0  0  0  0  0  0  0
    1.4701  -10.5563    3.9603 C   0  0  0  0  0  0  0  0  0  0  0  0
    2.2776   -9.9963    5.1372 C   0  0  1  0  0  0  0  0  0  0  0  0
    1.0851   -9.2014    5.5833 C   0  0  0  0  0  0  0  0  0  0  0  0
    0.5195   -9.2958    6.6762 O   0  0  0  0  0  0  0  0  0  0  0  0
    0.6586   -8.3138    4.4256 C   0  0  2  0  0  0  0  0  0  0  0  0
   -0.7177   -7.6349    4.6028 C   0  0  0  0  0  0  0  0  0  0  0  0
   -1.7999   -8.4531    4.2146 O   0  0  0  0  0  0  0  0  0  0  0  0
    1.6349   -7.2782    4.2194 O   0  0  0  0  0  0  0  0  0  0  0  0
    2.8615   -7.2899    4.9569 C   0  0  2  0  0  0  0  0  0  0  0  0
    3.9834   -6.4331    4.3020 C   0  0  0  0  0  0  0  0  0  0  0  0
    3.5493   -5.4350    3.2005 C   0  0  0  0  0  0  0  0  0  0  0  0
    2.9422   -6.0501    1.9068 C   0  0  1  0  0  0  0  0  0  0  0  0
    2.7705   -4.9806    0.7722 C   0  0  2  0  0  0  0  0  0  0  0  0
    1.9492   -5.5004   -0.2621 O   0  0  0  0  0  0  0  0  0  0  0  0
    4.0975   -4.4643    0.2103 C   0  0  0  0  0  0  0  0  0  0  0  0
    4.3314   -3.5841   -0.7838 C   0  0  0  0  0  0  0  0  0  0  0  0
    5.7635   -3.3711   -1.2548 C   0  0  0  0  0  0  0  0  0  0  0  0
    3.2544   -2.7578   -1.4766 C   0  0  2  0  0  0  0  0  0  0  0  0
    3.2978   -2.8212   -3.0137 C   0  0  0  0  0  0  0  0  0  0  0  0
    3.4308   -1.4247   -1.0655 O   0  0  0  0  0  0  0  0  0  0  0  0
    3.2542   -8.7372    5.3617 C   0  0  2  0  0  0  0  0  0  0  0  0
    3.6577   -9.7462    4.4497 C   0  0  1  0  0  0  0  0  0  0  0  0
    4.6418  -10.5751    5.0464 O   0  0  0  0  0  0  0  0  0  0  0  0
    3.9848   -9.5394    2.9576 C   0  0  0  0  0  0  0  0  0  0  0  0
    5.2755   -6.5867    0.3459 H   0  0  0  0  0  0  0  0  0  0  0  0
    5.1922   -8.4163    0.5072 H   0  0  0  0  0  0  0  0  0  0  0  0
    3.2527   -9.2772    1.0886 H   0  0  0  0  0  0  0  0  0  0  0  0
    0.9809   -8.0711    1.5487 H   0  0  0  0  0  0  0  0  0  0  0  0
    1.3269   -9.7228    1.3018 H   0  0  0  0  0  0  0  0  0  0  0  0
   -0.1880   -9.6943    2.9650 H   0  0  0  0  0  0  0  0  0  0  0  0
    0.7119  -11.2582    4.3211 H   0  0  0  0  0  0  0  0  0  0  0  0
    2.0474  -11.1521    3.2568 H   0  0  0  0  0  0  0  0  0  0  0  0
   -0.8731   -7.3031    5.6317 H   0  0  0  0  0  0  0  0  0  0  0  0
   -0.7673   -6.7346    3.9920 H   0  0  0  0  0  0  0  0  0  0  0  0
   -1.7587   -9.2950    4.6689 H   0  0  0  0  0  0  0  0  0  0  0  0
    2.6026   -6.7832    5.8915 H   0  0  0  0  0  0  0  0  0  0  0  0
    4.4473   -5.8607    5.1037 H   0  0  0  0  0  0  0  0  0  0  0  0
    4.7999   -7.0479    3.9291 H   0  0  0  0  0  0  0  0  0  0  0  0
    2.8616   -4.7021    3.6278 H   0  0  0  0  0  0  0  0  0  0  0  0
    4.4290   -4.8548    2.9283 H   0  0  0  0  0  0  0  0  0  0  0  0
    1.9050   -6.2730    2.1652 H   0  0  0  0  0  0  0  0  0  0  0  0
    2.2131   -4.1219    1.1600 H   0  0  0  0  0  0  0  0  0  0  0  0
    2.5113   -5.7240   -1.0049 H   0  0  0  0  0  0  0  0  0  0  0  0
    4.9743   -4.8249    0.6928 H   0  0  0  0  0  0  0  0  0  0  0  0
    5.8777   -3.5891   -2.3193 H   0  0  0  0  0  0  0  0  0  0  0  0
    6.4599   -4.0299   -0.7374 H   0  0  0  0  0  0  0  0  0  0  0  0
    6.0719   -2.3477   -1.0661 H   0  0  0  0  0  0  0  0  0  0  0  0
    2.2703   -3.0884   -1.1429 H   0  0  0  0  0  0  0  0  0  0  0  0
    3.1955   -3.8511   -3.3618 H   0  0  0  0  0  0  0  0  0  0  0  0
    4.2330   -2.4160   -3.4015 H   0  0  0  0  0  0  0  0  0  0  0  0
    2.4789   -2.2355   -3.4344 H   0  0  0  0  0  0  0  0  0  0  0  0
    2.5225   -1.0690   -0.9358 H   0  0  0  0  0  0  0  0  0  0  0  0
    3.7543   -8.7395    6.3283 H   0  0  0  0  0  0  0  0  0  0  0  0
    4.3772  -11.4805    4.9621 H   0  0  0  0  0  0  0  0  0  0  0  0
    4.0968  -10.5396    2.5293 H   0  0  0  0  0  0  0  0  0  0  0  0
    4.9880   -9.1158    2.9144 H   0  0  0  0  0  0  0  0  0  0  0  0
  1  2  2  0
  1 30  1  0
  1 31  1  0
  2 17  1  0
  2  3  1  0
  3 29  1  0
  3  4  1  0
  3 32  1  6
  4  5  1  0
  4 33  1  0
  4 34  1  0
  5 10  1  0
  5  6  1  0
  5 35  1  6
  7  6  1  6
  6 36  1  0
  6 37  1  0
  7 26  1  0
  7 27  1  0
  7  8  1  0
  8  9  2  0
  8 10  1  0
 10 11  1  1
 10 13  1  0
 11 12  1  0
 11 38  1  0
 11 39  1  0
 12 40  1  0
 13 14  1  0
 14 15  1  0
 14 26  1  0
 14 41  1  1
 15 16  1  0
 15 42  1  0
 15 43  1  0
 16 17  1  0
 16 44  1  0
 16 45  1  0
 17 18  1  0
 17 46  1  1
 18 19  1  0
 18 20  1  0
 18 47  1  1
 19 48  1  0
 20 21  2  3
 20 49  1  0
 21 22  1  0
 21 23  1  0
 22 50  1  0
 22 51  1  0
 22 52  1  0
 23 24  1  0
 23 25  1  0
 23 53  1  1
 24 54  1  0
 24 55  1  0
 24 56  1  0
 25 57  1  0
 26 27  1  0
 26 58  1  1
 27 28  1  1
 27 29  1  0
 28 59  1  0
 29 60  1  0
 29 61  1  0
M  END
>  <i_m_ct_stereo_status>  (43) 
1

>  <s_m_source_file>  (43) 
/var/tmp/pbs.5076255.sched01/tmp7e7yg0hy/0s0dyhj_r.sdf

>  <i_m_source_file_index>  (43) 
22

>  <i_lp_mmshare_version>  (43) 
48012

>  <i_f3d_flags>  (43) 
0

>  <s_epik_input>  (43) 
W0NIM11bQ0BIXShbT0hdKUMoXFtDSDNdKT1bQ0hdXFtDQEBIXShbT0hdKVtDQEhdKFtDSDJdW0NIMl0xKUMoPVtDSDJdKVtDQEBIXShbQ0gyXVtDQF0yM1tPSF0pW0NIMl1bQ0BASF0oW0NIMl00KVtDQF0oQzU9TykoW0NIMl1bT0hdKU9bQ0BIXTFbQ0BIXTNDMjQ1

>  <s_epik_cmdline>  (43) 
J2VwaWtfcHl0aG9uJywgJy1waHQnLCAnMi4wJywgJy1waCcsICc3LjAnLCAnLXRuJywgJzgnLCAnLW1hJywgJzIwMCcsICctaW1hZScsICc8aW5maWxlLm1hZT4nLCAnLW9tYWUnLCAnPG91dGZpbGUubWFlPic=

>  <r_lp_tautomer_probability>  (43) 
1

>  <r_epik_Ionization_Penalty>  (43) 
2.39605e-07

>  <r_epik_Ionization_Penalty_Charging>  (43) 
0

>  <r_epik_Ionization_Penalty_Neutral>  (43) 
2.39605e-07

>  <r_epik_State_Penalty>  (43) 
-0

>  <r_epik_Charging_Adjusted_Penalty>  (43) 
0

>  <i_epik_Tot_Q>  (43) 
0

>  <i_epik_Tot_abs_Q>  (43) 
0

>  <s_lp_Force_Field>  (43) 
OPLS3e

>  <r_lp_Energy>  (43) 
102.203

>  <b_lp_Chiralities_Consistent>  (43) 
1

>  <s_lp_Variant>  (43) 
12:0-1

>  <s_i_glide_gridfile>  (43) 
pfpi4k_grid

>  <i_i_glide_lignum>  (43) 
22

>  <i_i_glide_rotatable_bonds>  (43) 
8

>  <r_i_docking_score>  (43) 
-3.97205

>  <r_i_glide_ligand_efficiency>  (43) 
-0.136967

>  <r_i_glide_ligand_efficiency_sa>  (43) 
-0.420806

>  <r_i_glide_ligand_efficiency_ln>  (43) 
-0.909498

>  <r_i_glide_gscore>  (43) 
-3.97205

>  <r_i_glide_lipo>  (43) 
-0.317078

>  <r_i_glide_hbond>  (43) 
-0.44158

>  <r_i_glide_metal>  (43) 
-0

>  <r_i_glide_rewards>  (43) 
-0.65116

>  <r_i_glide_evdw>  (43) 
-20.2379

>  <r_i_glide_ecoul>  (43) 
-13.2752

>  <r_i_glide_erotb>  (43) 
0.480234

>  <r_i_glide_esite>  (43) 
-0.0392819

>  <r_i_glide_emodel>  (43) 
-33.9298

>  <r_i_glide_energy>  (43) 
-33.5131

>  <r_i_glide_einternal>  (43) 
14.2009

>  <r_i_glide_intrahb_reward>  (43) 
-0

>  <i_i_glide_confnum>  (43) 
2

>  <i_i_glide_posenum>  (43) 
2

>  <r_i_glide_eff_state_penalty>  (43) 
0

>  <ligand_id>  (43) 
12

>  <original_smiles>  (43) 
C=C1C2CC3CC45C(=O)C3(CO)OC(CCC1C(O)C=C(C)C(C)O)C4C5(O)C2

>  <smiles>  (43) 
[H]OC([H])([H])C12OC3([H])C([H])([H])C([H])([H])C([H])(C([H])(O[H])C([H])=C(C([H])([H])[H])C([H])(O[H])C([H])([H])[H])C(=C([H])[H])C4([H])C([H])([H])C1([H])C([H])([H])C1(C2=O)C3([H])C1(O[H])C4([H])[H]

$$$$
12:0:2
     RDKit          3D

 61 65  0  0  1  0  0  0  0  0999 V2000
    4.6183   -7.3578    0.4839 C   0  0  0  0  0  0  0  0  0  0  0  0
    3.5424   -7.3306    1.3073 C   0  0  0  0  0  0  0  0  0  0  0  0
    2.9794   -8.6803    1.8141 C   0  0  2  0  0  0  0  0  0  0  0  0
    1.4434   -8.8443    2.0010 C   0  0  0  0  0  0  0  0  0  0  0  0
    0.8514   -9.3163    3.3378 C   0  0  1  0  0  0  0  0  0  0  0  0
    1.5858  -10.5354    3.9133 C   0  0  0  0  0  0  0  0  0  0  0  0
    2.5101   -9.9978    5.0078 C   0  0  1  0  0  0  0  0  0  0  0  0
    1.3892   -9.1891    5.5651 C   0  0  0  0  0  0  0  0  0  0  0  0
    0.9441   -9.2830    6.7439 O   0  0  0  0  0  0  0  0  0  0  0  0
    0.8481   -8.2846    4.4993 C   0  0  2  0  0  0  0  0  0  0  0  0
   -0.4875   -7.5939    4.8473 C   0  0  0  0  0  0  0  0  0  0  0  0
   -1.6457   -8.3321    4.4872 O   0  0  0  0  0  0  0  0  0  0  0  0
    1.8282   -7.2683    4.2002 O   0  0  0  0  0  0  0  0  0  0  0  0
    3.1092   -7.2973    4.8368 C   0  0  2  0  0  0  0  0  0  0  0  0
    4.1733   -6.4627    4.0692 C   0  0  0  0  0  0  0  0  0  0  0  0
    3.6492   -5.4362    3.0350 C   0  0  0  0  0  0  0  0  0  0  0  0
    2.9116   -6.0061    1.7898 C   0  0  1  0  0  0  0  0  0  0  0  0
    2.6234   -4.9174    0.6859 C   0  0  2  0  0  0  0  0  0  0  0  0
    1.7456   -5.4519   -0.2811 O   0  0  0  0  0  0  0  0  0  0  0  0
    3.8612   -4.3757   -0.0370 C   0  0  0  0  0  0  0  0  0  0  0  0
    4.4825   -3.1957    0.1250 C   0  0  0  0  0  0  0  0  0  0  0  0
    5.7809   -2.9336   -0.6318 C   0  0  0  0  0  0  0  0  0  0  0  0
    4.0046   -2.0428    1.0316 C   0  0  2  0  0  0  0  0  0  0  0  0
    3.7881   -0.7523    0.2321 C   0  0  0  0  0  0  0  0  0  0  0  0
    4.9384   -1.7952    2.0678 O   0  0  0  0  0  0  0  0  0  0  0  0
    3.5268   -8.7586    5.1527 C   0  0  2  0  0  0  0  0  0  0  0  0
    3.8130   -9.7472    4.1704 C   0  0  1  0  0  0  0  0  0  0  0  0
    4.8268  -10.6034    4.6398 O   0  0  0  0  0  0  0  0  0  0  0  0
    3.9837   -9.5354    2.6551 C   0  0  0  0  0  0  0  0  0  0  0  0
    5.1088   -6.4733    0.1803 H   0  0  0  0  0  0  0  0  0  0  0  0
    4.9790   -8.3499    0.1645 H   0  0  0  0  0  0  0  0  0  0  0  0
    3.0596   -9.2282    0.8813 H   0  0  0  0  0  0  0  0  0  0  0  0
    0.8744   -7.9940    1.6194 H   0  0  0  0  0  0  0  0  0  0  0  0
    1.1820   -9.6579    1.3345 H   0  0  0  0  0  0  0  0  0  0  0  0
   -0.1620   -9.6592    3.1076 H   0  0  0  0  0  0  0  0  0  0  0  0
    0.8664  -11.2316    4.3679 H   0  0  0  0  0  0  0  0  0  0  0  0
    2.0853  -11.1360    3.1550 H   0  0  0  0  0  0  0  0  0  0  0  0
   -0.5410   -7.3222    5.9091 H   0  0  0  0  0  0  0  0  0  0  0  0
   -0.5512   -6.6551    4.3063 H   0  0  0  0  0  0  0  0  0  0  0  0
   -1.5951   -9.2172    4.8486 H   0  0  0  0  0  0  0  0  0  0  0  0
    2.9627   -6.8123    5.8160 H   0  0  0  0  0  0  0  0  0  0  0  0
    4.7410   -5.9178    4.8178 H   0  0  0  0  0  0  0  0  0  0  0  0
    4.9242   -7.0995    3.6022 H   0  0  0  0  0  0  0  0  0  0  0  0
    3.0167   -4.7049    3.5405 H   0  0  0  0  0  0  0  0  0  0  0  0
    4.5101   -4.8666    2.6859 H   0  0  0  0  0  0  0  0  0  0  0  0
    1.9156   -6.2181    2.1485 H   0  0  0  0  0  0  0  0  0  0  0  0
    2.0584   -4.1134    1.1672 H   0  0  0  0  0  0  0  0  0  0  0  0
    2.2871   -5.7261   -1.0180 H   0  0  0  0  0  0  0  0  0  0  0  0
    4.2695   -5.0517   -0.7657 H   0  0  0  0  0  0  0  0  0  0  0  0
    5.6734   -2.1203   -1.3478 H   0  0  0  0  0  0  0  0  0  0  0  0
    6.0714   -3.8209   -1.1961 H   0  0  0  0  0  0  0  0  0  0  0  0
    6.6007   -2.7156    0.0505 H   0  0  0  0  0  0  0  0  0  0  0  0
    3.0631   -2.3052    1.5020 H   0  0  0  0  0  0  0  0  0  0  0  0
    3.0927   -0.9350   -0.5910 H   0  0  0  0  0  0  0  0  0  0  0  0
    4.7147   -0.3679   -0.2013 H   0  0  0  0  0  0  0  0  0  0  0  0
    3.3623    0.0297    0.8588 H   0  0  0  0  0  0  0  0  0  0  0  0
    5.7329   -1.4609    1.6815 H   0  0  0  0  0  0  0  0  0  0  0  0
    4.1495   -8.8113    6.0379 H   0  0  0  0  0  0  0  0  0  0  0  0
    4.7073  -11.4502    4.2447 H   0  0  0  0  0  0  0  0  0  0  0  0
    4.0404  -10.5292    2.1970 H   0  0  0  0  0  0  0  0  0  0  0  0
    4.9897   -9.1314    2.5179 H   0  0  0  0  0  0  0  0  0  0  0  0
  1  2  2  0
  1 30  1  0
  1 31  1  0
  2 17  1  0
  2  3  1  0
  3 29  1  0
  3  4  1  0
  3 32  1  6
  4  5  1  0
  4 33  1  0
  4 34  1  0
  5 10  1  0
  5  6  1  0
  5 35  1  6
  7  6  1  6
  6 36  1  0
  6 37  1  0
  7 26  1  0
  7 27  1  0
  7  8  1  0
  8  9  2  0
  8 10  1  0
 10 11  1  1
 10 13  1  0
 11 12  1  0
 11 38  1  0
 11 39  1  0
 12 40  1  0
 13 14  1  0
 14 15  1  0
 14 26  1  0
 14 41  1  1
 15 16  1  0
 15 42  1  0
 15 43  1  0
 16 17  1  0
 16 44  1  0
 16 45  1  0
 17 18  1  0
 17 46  1  1
 18 19  1  0
 18 20  1  0
 18 47  1  1
 19 48  1  0
 20 21  2  3
 20 49  1  0
 21 22  1  0
 21 23  1  0
 22 50  1  0
 22 51  1  0
 22 52  1  0
 23 24  1  0
 23 25  1  0
 23 53  1  1
 24 54  1  0
 24 55  1  0
 24 56  1  0
 25 57  1  0
 26 27  1  0
 26 58  1  1
 27 28  1  1
 27 29  1  0
 28 59  1  0
 29 60  1  0
 29 61  1  0
M  END
>  <i_m_ct_stereo_status>  (44) 
1

>  <s_m_source_file>  (44) 
/var/tmp/pbs.5076255.sched01/tmp7e7yg0hy/0s0dyhj_r.sdf

>  <i_m_source_file_index>  (44) 
22

>  <i_lp_mmshare_version>  (44) 
48012

>  <i_f3d_flags>  (44) 
0

>  <s_epik_input>  (44) 
W0NIM11bQ0BIXShbT0hdKUMoXFtDSDNdKT1bQ0hdXFtDQEBIXShbT0hdKVtDQEhdKFtDSDJdW0NIMl0xKUMoPVtDSDJdKVtDQEBIXShbQ0gyXVtDQF0yM1tPSF0pW0NIMl1bQ0BASF0oW0NIMl00KVtDQF0oQzU9TykoW0NIMl1bT0hdKU9bQ0BIXTFbQ0BIXTNDMjQ1

>  <s_epik_cmdline>  (44) 
J2VwaWtfcHl0aG9uJywgJy1waHQnLCAnMi4wJywgJy1waCcsICc3LjAnLCAnLXRuJywgJzgnLCAnLW1hJywgJzIwMCcsICctaW1hZScsICc8aW5maWxlLm1hZT4nLCAnLW9tYWUnLCAnPG91dGZpbGUubWFlPic=

>  <r_lp_tautomer_probability>  (44) 
1

>  <r_epik_Ionization_Penalty>  (44) 
2.39605e-07

>  <r_epik_Ionization_Penalty_Charging>  (44) 
0

>  <r_epik_Ionization_Penalty_Neutral>  (44) 
2.39605e-07

>  <r_epik_State_Penalty>  (44) 
-0

>  <r_epik_Charging_Adjusted_Penalty>  (44) 
0

>  <i_epik_Tot_Q>  (44) 
0

>  <i_epik_Tot_abs_Q>  (44) 
0

>  <s_lp_Force_Field>  (44) 
OPLS3e

>  <r_lp_Energy>  (44) 
102.203

>  <b_lp_Chiralities_Consistent>  (44) 
1

>  <s_lp_Variant>  (44) 
12:0-1

>  <s_i_glide_gridfile>  (44) 
pfpi4k_grid

>  <i_i_glide_lignum>  (44) 
22

>  <i_i_glide_rotatable_bonds>  (44) 
8

>  <r_i_docking_score>  (44) 
-3.42771

>  <r_i_glide_ligand_efficiency>  (44) 
-0.118197

>  <r_i_glide_ligand_efficiency_sa>  (44) 
-0.363139

>  <r_i_glide_ligand_efficiency_ln>  (44) 
-0.78486

>  <r_i_glide_gscore>  (44) 
-3.42771

>  <r_i_glide_lipo>  (44) 
-0.237765

>  <r_i_glide_hbond>  (44) 
-0.5067

>  <r_i_glide_metal>  (44) 
-0

>  <r_i_glide_rewards>  (44) 
-0.65116

>  <r_i_glide_evdw>  (44) 
-19.0902

>  <r_i_glide_ecoul>  (44) 
-10.152

>  <r_i_glide_erotb>  (44) 
0.480234

>  <r_i_glide_esite>  (44) 
-0.0350205

>  <r_i_glide_emodel>  (44) 
-32.1465

>  <r_i_glide_energy>  (44) 
-29.2421

>  <r_i_glide_einternal>  (44) 
8.55876

>  <r_i_glide_intrahb_reward>  (44) 
-0

>  <i_i_glide_confnum>  (44) 
2

>  <i_i_glide_posenum>  (44) 
12

>  <r_i_glide_eff_state_penalty>  (44) 
0

>  <ligand_id>  (44) 
12

>  <original_smiles>  (44) 
C=C1C2CC3CC45C(=O)C3(CO)OC(CCC1C(O)C=C(C)C(C)O)C4C5(O)C2

>  <smiles>  (44) 
[H]OC([H])([H])C12OC3([H])C([H])([H])C([H])([H])C([H])(C([H])(O[H])C([H])=C(C([H])([H])[H])C([H])(O[H])C([H])([H])[H])C(=C([H])[H])C4([H])C([H])([H])C1([H])C([H])([H])C1(C2=O)C3([H])C1(O[H])C4([H])[H]

$$$$
13:0:0
     RDKit          3D

 55 59  0  0  1  0  0  0  0  0999 V2000
    5.1577   -3.0328   -1.9997 C   0  0  0  0  0  0  0  0  0  0  0  0
    6.4715   -3.0910   -1.2999 C   0  0  0  0  0  0  0  0  0  0  0  0
    7.5374   -2.3447   -1.5955 N   0  0  0  0  0  0  0  0  0  0  0  0
    8.5700   -2.6673   -0.7116 N   0  0  0  0  0  0  0  0  0  0  0  0
    8.1503   -3.6362    0.0714 C   0  0  0  0  0  0  0  0  0  0  0  0
    8.8679   -4.2908    1.0194 N   0  0  0  0  0  0  0  0  0  0  0  0
    8.1663   -5.2379    1.6549 C   0  0  0  0  0  0  0  0  0  0  0  0
    6.8130   -5.5683    1.3567 C   0  0  0  0  0  0  0  0  0  0  0  0
    6.1696   -6.6715    2.0572 C   0  0  0  0  0  0  0  0  0  0  0  0
    6.1164   -6.7283    3.3128 N   0  0  0  0  0  0  0  0  0  0  0  0
    5.4684   -7.9381    3.6733 O   0  0  0  0  0  0  0  0  0  0  0  0
    4.9215   -8.5931    2.5229 C   0  0  1  0  0  0  0  0  0  0  0  0
    5.5294   -7.8298    1.3760 C   0  0  0  0  0  0  0  0  0  0  0  0
    5.2495  -10.0890    2.5606 C   0  0  0  0  0  0  0  0  0  0  0  0
    4.1083  -10.7695    3.3549 C   0  0  1  0  0  0  0  0  0  0  0  0
    4.4733  -10.9936    4.8460 C   0  0  0  0  0  0  0  0  0  0  0  0
    3.8124  -11.9526    5.4907 N   0  0  0  0  0  0  0  0  0  0  0  0
    5.3107  -10.3063    5.4227 O   0  0  0  0  0  0  0  0  0  0  0  0
    2.9599   -9.8663    3.1734 N   0  0  0  0  0  0  0  0  0  0  0  0
    1.6875  -10.1746    3.5067 C   0  0  0  0  0  0  0  0  0  0  0  0
    1.3805  -11.2685    3.9869 O   0  0  0  0  0  0  0  0  0  0  0  0
    0.5676   -9.1346    3.2825 C   0  0  0  0  0  0  0  0  0  0  0  0
    0.2065   -8.4222    4.6047 C   0  0  0  0  0  0  0  0  0  0  0  0
   -0.9555   -7.4384    4.3927 C   0  0  0  0  0  0  0  0  0  0  0  0
   -2.1706   -8.1589    3.7967 C   0  0  0  0  0  0  0  0  0  0  0  0
   -1.8304   -8.8501    2.4789 C   0  0  0  0  0  0  0  0  0  0  0  0
   -0.6619   -9.8181    2.6688 C   0  0  0  0  0  0  0  0  0  0  0  0
    3.3845   -8.5804    2.5963 C   0  0  0  0  0  0  0  0  0  0  0  0
    6.0656   -4.8982    0.3694 C   0  0  0  0  0  0  0  0  0  0  0  0
    6.8018   -3.9027   -0.2657 N   0  0  0  0  0  0  0  0  0  0  0  0
    5.1891   -2.2520   -2.7626 H   0  0  0  0  0  0  0  0  0  0  0  0
    4.3785   -2.7846   -1.2882 H   0  0  0  0  0  0  0  0  0  0  0  0
    4.9515   -3.9838   -2.4805 H   0  0  0  0  0  0  0  0  0  0  0  0
    8.7266   -5.7684    2.4228 H   0  0  0  0  0  0  0  0  0  0  0  0
    4.7908   -7.4809    0.6572 H   0  0  0  0  0  0  0  0  0  0  0  0
    6.3048   -8.4058    0.8809 H   0  0  0  0  0  0  0  0  0  0  0  0
    5.2516  -10.4970    1.5452 H   0  0  0  0  0  0  0  0  0  0  0  0
    6.2465  -10.2994    2.9549 H   0  0  0  0  0  0  0  0  0  0  0  0
    3.8919  -11.7322    2.8853 H   0  0  0  0  0  0  0  0  0  0  0  0
    3.0263  -12.3896    5.0333 H   0  0  0  0  0  0  0  0  0  0  0  0
    3.9186  -12.0499    6.4909 H   0  0  0  0  0  0  0  0  0  0  0  0
    0.8377   -8.3783    2.5522 H   0  0  0  0  0  0  0  0  0  0  0  0
   -0.0693   -9.1544    5.3687 H   0  0  0  0  0  0  0  0  0  0  0  0
    1.0682   -7.8743    4.9937 H   0  0  0  0  0  0  0  0  0  0  0  0
   -1.2227   -6.9548    5.3292 H   0  0  0  0  0  0  0  0  0  0  0  0
   -0.6492   -6.6251    3.7360 H   0  0  0  0  0  0  0  0  0  0  0  0
   -2.5363   -8.9191    4.4823 H   0  0  0  0  0  0  0  0  0  0  0  0
   -2.9841   -7.4574    3.6525 H   0  0  0  0  0  0  0  0  0  0  0  0
   -2.6950   -9.4089    2.1223 H   0  0  0  0  0  0  0  0  0  0  0  0
   -1.5795   -8.1134    1.7181 H   0  0  0  0  0  0  0  0  0  0  0  0
   -0.4159  -10.2989    1.7246 H   0  0  0  0  0  0  0  0  0  0  0  0
   -0.9824  -10.6236    3.3122 H   0  0  0  0  0  0  0  0  0  0  0  0
    3.0151   -7.7309    3.1725 H   0  0  0  0  0  0  0  0  0  0  0  0
    2.9598   -8.5323    1.5892 H   0  0  0  0  0  0  0  0  0  0  0  0
    5.0508   -5.1277    0.0512 H   0  0  0  0  0  0  0  0  0  0  0  0
  1  2  1  0
  1 31  1  0
  1 32  1  0
  1 33  1  0
  2 30  1  0
  2  3  2  0
  3  4  1  0
  4  5  2  0
  5 30  1  0
  5  6  1  0
  6  7  2  0
  7  8  1  0
  7 34  1  0
  8  9  1  0
  8 29  2  0
  9 13  1  0
  9 10  2  0
 10 11  1  0
 12 11  1  1
 12 28  1  0
 12 13  1  0
 12 14  1  0
 13 35  1  0
 13 36  1  0
 14 15  1  0
 14 37  1  0
 14 38  1  0
 15 16  1  0
 15 19  1  0
 15 39  1  6
 16 17  1  0
 16 18  2  0
 17 40  1  0
 17 41  1  0
 19 20  1  0
 19 28  1  0
 20 21  2  0
 20 22  1  0
 22 27  1  0
 22 23  1  0
 22 42  1  0
 23 24  1  0
 23 43  1  0
 23 44  1  0
 24 25  1  0
 24 45  1  0
 24 46  1  0
 25 26  1  0
 25 47  1  0
 25 48  1  0
 26 27  1  0
 26 49  1  0
 26 50  1  0
 27 51  1  0
 27 52  1  0
 28 53  1  0
 28 54  1  0
 29 30  1  0
 29 55  1  0
M  END
>  <i_m_ct_stereo_status>  (45) 
1

>  <s_m_source_file>  (45) 
/var/tmp/pbs.5076255.sched01/tmp7e7yg0hy/0s0dyhj_r.sdf

>  <i_m_source_file_index>  (45) 
23

>  <i_lp_mmshare_version>  (45) 
48012

>  <i_f3d_flags>  (45) 
0

>  <s_epik_input>  (45) 
bjFuYyhbQ0gzXSluKGMxMilbY0hdYyhbY0hdbjIpQyhbQ0gyXTMpPU5PW0NAXTM0W0NIMl1bQ0BASF0oQyg9TylbTkgyXSlOKFtDSDJdNClDKD1PKVtDSF01W0NIMl1bQ0gyXVtDSDJdW0NIMl1bQ0gyXTU=

>  <s_epik_cmdline>  (45) 
J2VwaWtfcHl0aG9uJywgJy1waHQnLCAnMi4wJywgJy1waCcsICc3LjAnLCAnLXRuJywgJzgnLCAnLW1hJywgJzIwMCcsICctaW1hZScsICc8aW5maWxlLm1hZT4nLCAnLW9tYWUnLCAnPG91dGZpbGUubWFlPic=

>  <r_lp_tautomer_probability>  (45) 
1

>  <r_epik_Ionization_Penalty>  (45) 
2.69047e-07

>  <r_epik_Ionization_Penalty_Charging>  (45) 
0

>  <r_epik_Ionization_Penalty_Neutral>  (45) 
2.69047e-07

>  <r_epik_State_Penalty>  (45) 
-0

>  <r_epik_Charging_Adjusted_Penalty>  (45) 
0

>  <i_epik_Tot_Q>  (45) 
0

>  <i_epik_Tot_abs_Q>  (45) 
0

>  <s_epik_Chemistry_Notes>  (45) 
This compound has an imine and may undergo hydrolysis.

>  <s_lp_Force_Field>  (45) 
OPLS3e

>  <r_lp_Energy>  (45) 
19.7274

>  <b_lp_Chiralities_Consistent>  (45) 
1

>  <s_lp_Variant>  (45) 
13:0-1

>  <s_i_glide_gridfile>  (45) 
pfpi4k_grid

>  <i_i_glide_lignum>  (45) 
23

>  <i_i_glide_rotatable_bonds>  (45) 
4

>  <r_i_docking_score>  (45) 
-4.45754

>  <r_i_glide_ligand_efficiency>  (45) 
-0.148585

>  <r_i_glide_ligand_efficiency_sa>  (45) 
-0.461688

>  <r_i_glide_ligand_efficiency_ln>  (45) 
-1.0128

>  <r_i_glide_gscore>  (45) 
-4.45754

>  <r_i_glide_lipo>  (45) 
-0.724898

>  <r_i_glide_hbond>  (45) 
0

>  <r_i_glide_metal>  (45) 
-0

>  <r_i_glide_rewards>  (45) 
-1.71264

>  <r_i_glide_evdw>  (45) 
-29.4803

>  <r_i_glide_ecoul>  (45) 
-4.16388

>  <r_i_glide_erotb>  (45) 
0.349263

>  <r_i_glide_esite>  (45) 
-0.27067

>  <r_i_glide_emodel>  (45) 
-46.1963

>  <r_i_glide_energy>  (45) 
-33.6442

>  <r_i_glide_einternal>  (45) 
4.62204

>  <r_i_glide_intrahb_reward>  (45) 
-0.5

>  <i_i_glide_confnum>  (45) 
4

>  <i_i_glide_posenum>  (45) 
18

>  <r_i_glide_eff_state_penalty>  (45) 
0

>  <ligand_id>  (45) 
13

>  <original_smiles>  (45) 
Cc1nnc2ncc(C3=NOC4(C3)CC(C(N)=O)N(C(=O)C3CCCCC3)C4)cn12

>  <smiles>  (45) 
[H]c1nc2nnc(C([H])([H])[H])n2c([H])c1C1=NOC2(C1([H])[H])C([H])([H])N(C(=O)C1([H])C([H])([H])C([H])([H])C([H])([H])C([H])([H])C1([H])[H])C([H])(C(=O)N([H])[H])C2([H])[H]

$$$$
13:0:1
     RDKit          3D

 55 59  0  0  1  0  0  0  0  0999 V2000
    4.2544   -3.5602   -3.1097 C   0  0  0  0  0  0  0  0  0  0  0  0
    4.8379   -2.7979   -1.9629 C   0  0  0  0  0  0  0  0  0  0  0  0
    5.2915   -1.5460   -1.9952 N   0  0  0  0  0  0  0  0  0  0  0  0
    5.7637   -1.2026   -0.7371 N   0  0  0  0  0  0  0  0  0  0  0  0
    5.5798   -2.2477    0.0692 C   0  0  0  0  0  0  0  0  0  0  0  0
    5.8823   -2.3493    1.3754 N   0  0  0  0  0  0  0  0  0  0  0  0
    5.5781   -3.5352    1.9268 C   0  0  0  0  0  0  0  0  0  0  0  0
    5.0008   -4.6181    1.2206 C   0  0  0  0  0  0  0  0  0  0  0  0
    4.7278   -5.8967    1.9097 C   0  0  0  0  0  0  0  0  0  0  0  0
    4.7372   -6.0598    3.1615 N   0  0  0  0  0  0  0  0  0  0  0  0
    4.5264   -7.4240    3.4857 O   0  0  0  0  0  0  0  0  0  0  0  0
    4.1715   -8.1486    2.2952 C   0  0  1  0  0  0  0  0  0  0  0  0
    4.4309   -7.1577    1.1784 C   0  0  0  0  0  0  0  0  0  0  0  0
    4.8932   -9.4852    2.1802 C   0  0  0  0  0  0  0  0  0  0  0  0
    4.0273  -10.5020    2.9648 C   0  0  1  0  0  0  0  0  0  0  0  0
    4.4907  -10.6786    4.4273 C   0  0  0  0  0  0  0  0  0  0  0  0
    4.0033  -11.7288    5.0865 N   0  0  0  0  0  0  0  0  0  0  0  0
    5.2555   -9.8875    4.9687 O   0  0  0  0  0  0  0  0  0  0  0  0
    2.6667   -9.9347    2.9061 N   0  0  0  0  0  0  0  0  0  0  0  0
    1.5459  -10.5910    3.2812 C   0  0  0  0  0  0  0  0  0  0  0  0
    1.5105  -11.8153    3.4290 O   0  0  0  0  0  0  0  0  0  0  0  0
    0.2988   -9.7815    3.6739 C   0  0  0  0  0  0  0  0  0  0  0  0
   -0.3449   -8.9844    2.5055 C   0  0  0  0  0  0  0  0  0  0  0  0
   -1.5289   -8.1220    2.9418 C   0  0  0  0  0  0  0  0  0  0  0  0
   -1.1262   -7.2251    4.1217 C   0  0  0  0  0  0  0  0  0  0  0  0
   -0.6105   -8.0614    5.3011 C   0  0  0  0  0  0  0  0  0  0  0  0
    0.5825   -8.9381    4.9412 C   0  0  0  0  0  0  0  0  0  0  0  0
    2.7196   -8.5556    2.3978 C   0  0  0  0  0  0  0  0  0  0  0  0
    4.6870   -4.5133   -0.1463 C   0  0  0  0  0  0  0  0  0  0  0  0
    4.9947   -3.2782   -0.7081 N   0  0  0  0  0  0  0  0  0  0  0  0
    4.2503   -2.9483   -4.0092 H   0  0  0  0  0  0  0  0  0  0  0  0
    3.2285   -3.8482   -2.8887 H   0  0  0  0  0  0  0  0  0  0  0  0
    4.8391   -4.4570   -3.3059 H   0  0  0  0  0  0  0  0  0  0  0  0
    5.8203   -3.6184    2.9776 H   0  0  0  0  0  0  0  0  0  0  0  0
    3.5581   -7.0133    0.5436 H   0  0  0  0  0  0  0  0  0  0  0  0
    5.2868   -7.4481    0.5793 H   0  0  0  0  0  0  0  0  0  0  0  0
    4.9182   -9.7977    1.1325 H   0  0  0  0  0  0  0  0  0  0  0  0
    5.9288   -9.4223    2.5222 H   0  0  0  0  0  0  0  0  0  0  0  0
    4.0562  -11.4838    2.4816 H   0  0  0  0  0  0  0  0  0  0  0  0
    3.3109  -12.3150    4.6367 H   0  0  0  0  0  0  0  0  0  0  0  0
    4.2236  -11.8562    6.0623 H   0  0  0  0  0  0  0  0  0  0  0  0
   -0.4495  -10.5219    3.9470 H   0  0  0  0  0  0  0  0  0  0  0  0
    0.3191   -8.2612    2.0214 H   0  0  0  0  0  0  0  0  0  0  0  0
   -0.6684   -9.7137    1.7678 H   0  0  0  0  0  0  0  0  0  0  0  0
   -1.8098   -7.5044    2.0887 H   0  0  0  0  0  0  0  0  0  0  0  0
   -2.3773   -8.7602    3.1965 H   0  0  0  0  0  0  0  0  0  0  0  0
   -0.3573   -6.5069    3.8226 H   0  0  0  0  0  0  0  0  0  0  0  0
   -1.9955   -6.6493    4.4298 H   0  0  0  0  0  0  0  0  0  0  0  0
   -0.3157   -7.3981    6.1144 H   0  0  0  0  0  0  0  0  0  0  0  0
   -1.4052   -8.7095    5.6668 H   0  0  0  0  0  0  0  0  0  0  0  0
    0.8285   -9.5994    5.7764 H   0  0  0  0  0  0  0  0  0  0  0  0
    1.4420   -8.2809    4.8269 H   0  0  0  0  0  0  0  0  0  0  0  0
    2.1806   -7.8007    2.9706 H   0  0  0  0  0  0  0  0  0  0  0  0
    2.2999   -8.6123    1.3857 H   0  0  0  0  0  0  0  0  0  0  0  0
    4.2410   -5.2868   -0.7597 H   0  0  0  0  0  0  0  0  0  0  0  0
  1  2  1  0
  1 31  1  0
  1 32  1  0
  1 33  1  0
  2 30  1  0
  2  3  2  0
  3  4  1  0
  4  5  2  0
  5 30  1  0
  5  6  1  0
  6  7  2  0
  7  8  1  0
  7 34  1  0
  8  9  1  0
  8 29  2  0
  9 13  1  0
  9 10  2  0
 10 11  1  0
 12 11  1  1
 12 28  1  0
 12 13  1  0
 12 14  1  0
 13 35  1  0
 13 36  1  0
 14 15  1  0
 14 37  1  0
 14 38  1  0
 15 16  1  0
 15 19  1  0
 15 39  1  6
 16 17  1  0
 16 18  2  0
 17 40  1  0
 17 41  1  0
 19 20  1  0
 19 28  1  0
 20 21  2  0
 20 22  1  0
 22 27  1  0
 22 23  1  0
 22 42  1  0
 23 24  1  0
 23 43  1  0
 23 44  1  0
 24 25  1  0
 24 45  1  0
 24 46  1  0
 25 26  1  0
 25 47  1  0
 25 48  1  0
 26 27  1  0
 26 49  1  0
 26 50  1  0
 27 51  1  0
 27 52  1  0
 28 53  1  0
 28 54  1  0
 29 30  1  0
 29 55  1  0
M  END
>  <i_m_ct_stereo_status>  (46) 
1

>  <s_m_source_file>  (46) 
/var/tmp/pbs.5076255.sched01/tmp7e7yg0hy/0s0dyhj_r.sdf

>  <i_m_source_file_index>  (46) 
23

>  <i_lp_mmshare_version>  (46) 
48012

>  <i_f3d_flags>  (46) 
0

>  <s_epik_input>  (46) 
bjFuYyhbQ0gzXSluKGMxMilbY0hdYyhbY0hdbjIpQyhbQ0gyXTMpPU5PW0NAXTM0W0NIMl1bQ0BASF0oQyg9TylbTkgyXSlOKFtDSDJdNClDKD1PKVtDSF01W0NIMl1bQ0gyXVtDSDJdW0NIMl1bQ0gyXTU=

>  <s_epik_cmdline>  (46) 
J2VwaWtfcHl0aG9uJywgJy1waHQnLCAnMi4wJywgJy1waCcsICc3LjAnLCAnLXRuJywgJzgnLCAnLW1hJywgJzIwMCcsICctaW1hZScsICc8aW5maWxlLm1hZT4nLCAnLW9tYWUnLCAnPG91dGZpbGUubWFlPic=

>  <r_lp_tautomer_probability>  (46) 
1

>  <r_epik_Ionization_Penalty>  (46) 
2.69047e-07

>  <r_epik_Ionization_Penalty_Charging>  (46) 
0

>  <r_epik_Ionization_Penalty_Neutral>  (46) 
2.69047e-07

>  <r_epik_State_Penalty>  (46) 
-0

>  <r_epik_Charging_Adjusted_Penalty>  (46) 
0

>  <i_epik_Tot_Q>  (46) 
0

>  <i_epik_Tot_abs_Q>  (46) 
0

>  <s_epik_Chemistry_Notes>  (46) 
This compound has an imine and may undergo hydrolysis.

>  <s_lp_Force_Field>  (46) 
OPLS3e

>  <r_lp_Energy>  (46) 
19.7274

>  <b_lp_Chiralities_Consistent>  (46) 
1

>  <s_lp_Variant>  (46) 
13:0-1

>  <s_i_glide_gridfile>  (46) 
pfpi4k_grid

>  <i_i_glide_lignum>  (46) 
23

>  <i_i_glide_rotatable_bonds>  (46) 
4

>  <r_i_docking_score>  (46) 
-3.4495

>  <r_i_glide_ligand_efficiency>  (46) 
-0.114983

>  <r_i_glide_ligand_efficiency_sa>  (46) 
-0.35728

>  <r_i_glide_ligand_efficiency_ln>  (46) 
-0.783763

>  <r_i_glide_gscore>  (46) 
-3.4495

>  <r_i_glide_lipo>  (46) 
-0.195615

>  <r_i_glide_hbond>  (46) 
0

>  <r_i_glide_metal>  (46) 
-0

>  <r_i_glide_rewards>  (46) 
-1.43335

>  <r_i_glide_evdw>  (46) 
-31.5373

>  <r_i_glide_ecoul>  (46) 
-2.91504

>  <r_i_glide_erotb>  (46) 
0.349263

>  <r_i_glide_esite>  (46) 
-0.155677

>  <r_i_glide_emodel>  (46) 
-41.3748

>  <r_i_glide_energy>  (46) 
-34.4524

>  <r_i_glide_einternal>  (46) 
11.2113

>  <r_i_glide_intrahb_reward>  (46) 
-0.5

>  <i_i_glide_confnum>  (46) 
2

>  <i_i_glide_posenum>  (46) 
30

>  <r_i_glide_eff_state_penalty>  (46) 
0

>  <ligand_id>  (46) 
13

>  <original_smiles>  (46) 
Cc1nnc2ncc(C3=NOC4(C3)CC(C(N)=O)N(C(=O)C3CCCCC3)C4)cn12

>  <smiles>  (46) 
[H]c1nc2nnc(C([H])([H])[H])n2c([H])c1C1=NOC2(C1([H])[H])C([H])([H])N(C(=O)C1([H])C([H])([H])C([H])([H])C([H])([H])C([H])([H])C1([H])[H])C([H])(C(=O)N([H])[H])C2([H])[H]

$$$$
13:0:2
     RDKit          3D

 55 59  0  0  1  0  0  0  0  0999 V2000
    3.2932   -3.0697   -2.9465 C   0  0  0  0  0  0  0  0  0  0  0  0
    4.5385   -2.7639   -2.1882 C   0  0  0  0  0  0  0  0  0  0  0  0
    5.7889   -2.9274   -2.6226 N   0  0  0  0  0  0  0  0  0  0  0  0
    6.6700   -2.5155   -1.6310 N   0  0  0  0  0  0  0  0  0  0  0  0
    5.9506   -2.1134   -0.5872 C   0  0  0  0  0  0  0  0  0  0  0  0
    6.4066   -1.6251    0.5890 N   0  0  0  0  0  0  0  0  0  0  0  0
    5.4337   -1.3114    1.4670 C   0  0  0  0  0  0  0  0  0  0  0  0
    4.0555   -1.4390    1.2041 C   0  0  0  0  0  0  0  0  0  0  0  0
    3.0889   -0.9990    2.2051 C   0  0  0  0  0  0  0  0  0  0  0  0
    2.6619   -1.7533    3.1217 N   0  0  0  0  0  0  0  0  0  0  0  0
    1.6388   -1.0604    3.8773 O   0  0  0  0  0  0  0  0  0  0  0  0
    1.6313    0.3212    3.4994 C   0  0  1  0  0  0  0  0  0  0  0  0
    2.4867    0.3600    2.2441 C   0  0  0  0  0  0  0  0  0  0  0  0
    0.1928    0.7786    3.2975 C   0  0  0  0  0  0  0  0  0  0  0  0
   -0.3113    1.2319    4.6817 C   0  0  1  0  0  0  0  0  0  0  0  0
   -1.0505    0.0771    5.3927 C   0  0  0  0  0  0  0  0  0  0  0  0
   -2.1850   -0.3126    4.8407 N   0  0  0  0  0  0  0  0  0  0  0  0
   -0.6613   -0.4769    6.4139 O   0  0  0  0  0  0  0  0  0  0  0  0
    0.8960    1.6671    5.3879 N   0  0  0  0  0  0  0  0  0  0  0  0
    0.9534    2.3502    6.5611 C   0  0  0  0  0  0  0  0  0  0  0  0
    2.0381    2.6242    7.0838 O   0  0  0  0  0  0  0  0  0  0  0  0
   -0.3551    2.7652    7.2938 C   0  0  0  0  0  0  0  0  0  0  0  0
   -0.3879    4.2833    7.5356 C   0  0  0  0  0  0  0  0  0  0  0  0
   -1.6635    4.6942    8.2926 C   0  0  0  0  0  0  0  0  0  0  0  0
   -1.8155    3.9212    9.6110 C   0  0  0  0  0  0  0  0  0  0  0  0
   -1.7973    2.4112    9.3662 C   0  0  0  0  0  0  0  0  0  0  0  0
   -0.5161    1.9966    8.6288 C   0  0  0  0  0  0  0  0  0  0  0  0
    2.1045    1.2005    4.6772 C   0  0  0  0  0  0  0  0  0  0  0  0
    3.5763   -1.9387   -0.0240 C   0  0  0  0  0  0  0  0  0  0  0  0
    4.5935   -2.2730   -0.9259 N   0  0  0  0  0  0  0  0  0  0  0  0
    3.5409   -3.4673   -3.9294 H   0  0  0  0  0  0  0  0  0  0  0  0
    2.6912   -2.1683   -3.0725 H   0  0  0  0  0  0  0  0  0  0  0  0
    2.7096   -3.8201   -2.4130 H   0  0  0  0  0  0  0  0  0  0  0  0
    5.7818   -0.9133    2.4147 H   0  0  0  0  0  0  0  0  0  0  0  0
    3.2654    1.1174    2.2966 H   0  0  0  0  0  0  0  0  0  0  0  0
    1.8771    0.4987    1.3541 H   0  0  0  0  0  0  0  0  0  0  0  0
    0.1495    1.6380    2.6205 H   0  0  0  0  0  0  0  0  0  0  0  0
   -0.4308    0.0106    2.8343 H   0  0  0  0  0  0  0  0  0  0  0  0
   -0.9747    2.0849    4.5141 H   0  0  0  0  0  0  0  0  0  0  0  0
   -2.5515    0.1468    4.0111 H   0  0  0  0  0  0  0  0  0  0  0  0
   -2.7271   -1.0215    5.3076 H   0  0  0  0  0  0  0  0  0  0  0  0
   -1.2508    2.5603    6.7124 H   0  0  0  0  0  0  0  0  0  0  0  0
    0.4924    4.5794    8.1082 H   0  0  0  0  0  0  0  0  0  0  0  0
   -0.3416    4.8067    6.5773 H   0  0  0  0  0  0  0  0  0  0  0  0
   -1.6299    5.7646    8.4917 H   0  0  0  0  0  0  0  0  0  0  0  0
   -2.5459    4.5134    7.6758 H   0  0  0  0  0  0  0  0  0  0  0  0
   -0.9983    4.1782   10.2837 H   0  0  0  0  0  0  0  0  0  0  0  0
   -2.7404    4.2047   10.1116 H   0  0  0  0  0  0  0  0  0  0  0  0
   -1.8503    1.8804   10.3167 H   0  0  0  0  0  0  0  0  0  0  0  0
   -2.6816    2.1160    8.7961 H   0  0  0  0  0  0  0  0  0  0  0  0
   -0.5673    0.9197    8.4809 H   0  0  0  0  0  0  0  0  0  0  0  0
    0.3535    2.1591    9.2655 H   0  0  0  0  0  0  0  0  0  0  0  0
    2.7798    0.6690    5.3520 H   0  0  0  0  0  0  0  0  0  0  0  0
    2.6258    2.0941    4.3210 H   0  0  0  0  0  0  0  0  0  0  0  0
    2.5456   -2.0603   -0.3142 H   0  0  0  0  0  0  0  0  0  0  0  0
  1  2  1  0
  1 31  1  0
  1 32  1  0
  1 33  1  0
  2 30  1  0
  2  3  2  0
  3  4  1  0
  4  5  2  0
  5 30  1  0
  5  6  1  0
  6  7  2  0
  7  8  1  0
  7 34  1  0
  8  9  1  0
  8 29  2  0
  9 13  1  0
  9 10  2  0
 10 11  1  0
 12 11  1  1
 12 28  1  0
 12 13  1  0
 12 14  1  0
 13 35  1  0
 13 36  1  0
 14 15  1  0
 14 37  1  0
 14 38  1  0
 15 16  1  0
 15 19  1  0
 15 39  1  6
 16 17  1  0
 16 18  2  0
 17 40  1  0
 17 41  1  0
 19 20  1  0
 19 28  1  0
 20 21  2  0
 20 22  1  0
 22 27  1  0
 22 23  1  0
 22 42  1  0
 23 24  1  0
 23 43  1  0
 23 44  1  0
 24 25  1  0
 24 45  1  0
 24 46  1  0
 25 26  1  0
 25 47  1  0
 25 48  1  0
 26 27  1  0
 26 49  1  0
 26 50  1  0
 27 51  1  0
 27 52  1  0
 28 53  1  0
 28 54  1  0
 29 30  1  0
 29 55  1  0
M  END
>  <i_m_ct_stereo_status>  (47) 
1

>  <s_m_source_file>  (47) 
/var/tmp/pbs.5076255.sched01/tmp7e7yg0hy/0s0dyhj_r.sdf

>  <i_m_source_file_index>  (47) 
23

>  <i_lp_mmshare_version>  (47) 
48012

>  <i_f3d_flags>  (47) 
0

>  <s_epik_input>  (47) 
bjFuYyhbQ0gzXSluKGMxMilbY0hdYyhbY0hdbjIpQyhbQ0gyXTMpPU5PW0NAXTM0W0NIMl1bQ0BASF0oQyg9TylbTkgyXSlOKFtDSDJdNClDKD1PKVtDSF01W0NIMl1bQ0gyXVtDSDJdW0NIMl1bQ0gyXTU=

>  <s_epik_cmdline>  (47) 
J2VwaWtfcHl0aG9uJywgJy1waHQnLCAnMi4wJywgJy1waCcsICc3LjAnLCAnLXRuJywgJzgnLCAnLW1hJywgJzIwMCcsICctaW1hZScsICc8aW5maWxlLm1hZT4nLCAnLW9tYWUnLCAnPG91dGZpbGUubWFlPic=

>  <r_lp_tautomer_probability>  (47) 
1

>  <r_epik_Ionization_Penalty>  (47) 
2.69047e-07

>  <r_epik_Ionization_Penalty_Charging>  (47) 
0

>  <r_epik_Ionization_Penalty_Neutral>  (47) 
2.69047e-07

>  <r_epik_State_Penalty>  (47) 
-0

>  <r_epik_Charging_Adjusted_Penalty>  (47) 
0

>  <i_epik_Tot_Q>  (47) 
0

>  <i_epik_Tot_abs_Q>  (47) 
0

>  <s_epik_Chemistry_Notes>  (47) 
This compound has an imine and may undergo hydrolysis.

>  <s_lp_Force_Field>  (47) 
OPLS3e

>  <r_lp_Energy>  (47) 
19.7274

>  <b_lp_Chiralities_Consistent>  (47) 
1

>  <s_lp_Variant>  (47) 
13:0-1

>  <s_i_glide_gridfile>  (47) 
pfpi4k_grid

>  <i_i_glide_lignum>  (47) 
23

>  <i_i_glide_rotatable_bonds>  (47) 
4

>  <r_i_docking_score>  (47) 
-3.34688

>  <r_i_glide_ligand_efficiency>  (47) 
-0.111563

>  <r_i_glide_ligand_efficiency_sa>  (47) 
-0.346652

>  <r_i_glide_ligand_efficiency_ln>  (47) 
-0.760449

>  <r_i_glide_gscore>  (47) 
-3.34688

>  <r_i_glide_lipo>  (47) 
-0.128635

>  <r_i_glide_hbond>  (47) 
-0.303

>  <r_i_glide_metal>  (47) 
-0

>  <r_i_glide_rewards>  (47) 
-0.646466

>  <r_i_glide_evdw>  (47) 
-29.4923

>  <r_i_glide_ecoul>  (47) 
-6.22479

>  <r_i_glide_erotb>  (47) 
0.349263

>  <r_i_glide_esite>  (47) 
-0.209714

>  <r_i_glide_emodel>  (47) 
-40.9482

>  <r_i_glide_energy>  (47) 
-35.7171

>  <r_i_glide_einternal>  (47) 
5.13182

>  <r_i_glide_intrahb_reward>  (47) 
-0

>  <i_i_glide_confnum>  (47) 
1

>  <i_i_glide_posenum>  (47) 
24

>  <r_i_glide_eff_state_penalty>  (47) 
0

>  <ligand_id>  (47) 
13

>  <original_smiles>  (47) 
Cc1nnc2ncc(C3=NOC4(C3)CC(C(N)=O)N(C(=O)C3CCCCC3)C4)cn12

>  <smiles>  (47) 
[H]c1nc2nnc(C([H])([H])[H])n2c([H])c1C1=NOC2(C1([H])[H])C([H])([H])N(C(=O)C1([H])C([H])([H])C([H])([H])C([H])([H])C([H])([H])C1([H])[H])C([H])(C(=O)N([H])[H])C2([H])[H]

$$$$
14:0:0
     RDKit          3D

 54 57  0  0  1  0  0  0  0  0999 V2000
    2.8993    0.5361    3.0565 C   0  0  0  0  0  0  0  0  0  0  0  0
    3.2898   -0.7565    2.9767 C   0  0  0  0  0  0  0  0  0  0  0  0
    4.2911   -1.3214    1.9740 C   0  0  2  0  0  0  0  0  0  0  0  0
    4.3476   -0.6518    0.5782 C   0  0  0  0  0  0  0  0  0  0  0  0
    5.0313   -1.5536   -0.4512 C   0  0  0  0  0  0  0  0  0  0  0  0
    5.7785   -1.0582   -1.2958 O   0  0  0  0  0  0  0  0  0  0  0  0
    4.7573   -3.0029   -0.4213 C   0  0  0  0  0  0  0  0  0  0  0  0
    4.4925   -3.6038   -1.5860 C   0  0  0  0  0  0  0  0  0  0  0  0
    4.7925   -3.6725    0.9617 C   0  0  0  0  0  0  0  0  0  0  0  0
    4.2313   -5.1153    0.9055 C   0  0  0  0  0  0  0  0  0  0  0  0
    6.2898   -3.7438    1.3568 C   0  0  0  0  0  0  0  0  0  0  0  0
    3.8885   -2.7961    1.9048 C   0  0  1  0  0  0  0  0  0  0  0  0
    3.4212   -3.1766    3.3374 C   0  0  2  0  0  0  0  0  0  0  0  0
    4.5624   -3.7695    4.2030 C   0  0  1  0  0  0  0  0  0  0  0  0
    5.4063   -2.7560    4.7347 O   0  0  0  0  0  0  0  0  0  0  0  0
    4.1563   -4.7066    5.3456 C   0  0  0  0  0  0  0  0  0  0  0  0
    2.9920   -5.6176    4.9622 C   0  0  0  0  0  0  0  0  0  0  0  0
    1.7215   -4.8063    4.6828 C   0  0  0  0  0  0  0  0  0  0  0  0
    0.5860   -5.7884    4.3211 C   0  0  0  0  0  0  0  0  0  0  0  0
    1.2977   -4.1113    6.0159 C   0  0  0  0  0  0  0  0  0  0  0  0
    1.9896   -3.8151    3.5248 C   0  0  1  0  0  0  0  0  0  0  0  0
    1.3883   -2.3975    3.4145 C   0  0  1  0  0  0  0  0  0  0  0  0
    0.2494   -2.0675    4.1882 O   0  0  0  0  0  0  0  0  0  0  0  0
    2.7522   -1.8655    3.8504 C   0  0  2  0  0  0  0  0  0  0  0  0
    2.1675    0.8150    3.8022 H   0  0  0  0  0  0  0  0  0  0  0  0
    3.2940    1.3043    2.4163 H   0  0  0  0  0  0  0  0  0  0  0  0
    5.2649   -1.2400    2.4551 H   0  0  0  0  0  0  0  0  0  0  0  0
    3.3482   -0.4188    0.2251 H   0  0  0  0  0  0  0  0  0  0  0  0
    4.8940    0.2893    0.6511 H   0  0  0  0  0  0  0  0  0  0  0  0
    4.4822   -3.0608   -2.5249 H   0  0  0  0  0  0  0  0  0  0  0  0
    4.2694   -4.6492   -1.6534 H   0  0  0  0  0  0  0  0  0  0  0  0
    4.2080   -5.5817    1.8857 H   0  0  0  0  0  0  0  0  0  0  0  0
    4.8426   -5.7541    0.2619 H   0  0  0  0  0  0  0  0  0  0  0  0
    3.2146   -5.1272    0.5130 H   0  0  0  0  0  0  0  0  0  0  0  0
    6.5323   -4.4933    2.1073 H   0  0  0  0  0  0  0  0  0  0  0  0
    6.6777   -2.7850    1.6959 H   0  0  0  0  0  0  0  0  0  0  0  0
    6.8986   -4.0334    0.4910 H   0  0  0  0  0  0  0  0  0  0  0  0
    2.9674   -2.7752    1.3038 H   0  0  0  0  0  0  0  0  0  0  0  0
    5.1768   -4.4036    3.5890 H   0  0  0  0  0  0  0  0  0  0  0  0
    4.8980   -2.2348    5.3237 H   0  0  0  0  0  0  0  0  0  0  0  0
    5.0165   -5.3288    5.6127 H   0  0  0  0  0  0  0  0  0  0  0  0
    3.9163   -4.1457    6.2471 H   0  0  0  0  0  0  0  0  0  0  0  0
    3.2575   -6.1814    4.0661 H   0  0  0  0  0  0  0  0  0  0  0  0
    2.8129   -6.3639    5.7410 H   0  0  0  0  0  0  0  0  0  0  0  0
   -0.3346   -5.2672    4.0967 H   0  0  0  0  0  0  0  0  0  0  0  0
    0.3790   -6.4708    5.1517 H   0  0  0  0  0  0  0  0  0  0  0  0
    0.8471   -6.4029    3.4634 H   0  0  0  0  0  0  0  0  0  0  0  0
    0.2484   -3.8169    6.0122 H   0  0  0  0  0  0  0  0  0  0  0  0
    1.8880   -3.2148    6.2078 H   0  0  0  0  0  0  0  0  0  0  0  0
    1.4401   -4.7756    6.8734 H   0  0  0  0  0  0  0  0  0  0  0  0
    1.7905   -4.3301    2.5697 H   0  0  0  0  0  0  0  0  0  0  0  0
    1.1611   -2.1616    2.3789 H   0  0  0  0  0  0  0  0  0  0  0  0
    0.0010   -1.1967    3.9507 H   0  0  0  0  0  0  0  0  0  0  0  0
    2.8402   -1.6964    4.9226 H   0  0  0  0  0  0  0  0  0  0  0  0
  1  2  2  0
  1 25  1  0
  1 26  1  0
  2 24  1  0
  2  3  1  0
  3 12  1  0
  3  4  1  0
  3 27  1  1
  4  5  1  0
  4 28  1  0
  4 29  1  0
  5  6  2  0
  5  7  1  0
  7  8  2  0
  7  9  1  0
  8 30  1  0
  8 31  1  0
  9 10  1  0
  9 11  1  0
  9 12  1  0
 10 32  1  0
 10 33  1  0
 10 34  1  0
 11 35  1  0
 11 36  1  0
 11 37  1  0
 12 13  1  0
 12 38  1  6
 13 21  1  0
 13 24  1  0
 13 14  1  1
 14 15  1  0
 14 16  1  0
 14 39  1  6
 15 40  1  0
 16 17  1  0
 16 41  1  0
 16 42  1  0
 17 18  1  0
 17 43  1  0
 17 44  1  0
 18 19  1  0
 18 20  1  0
 18 21  1  0
 19 45  1  0
 19 46  1  0
 19 47  1  0
 20 48  1  0
 20 49  1  0
 20 50  1  0
 21 22  1  0
 21 51  1  6
 22 23  1  0
 22 24  1  0
 22 52  1  6
 23 53  1  0
 24 54  1  1
M  END
>  <i_m_ct_stereo_status>  (48) 
1

>  <s_m_source_file>  (48) 
/var/tmp/pbs.5076255.sched01/tmp7e7yg0hy/0s0dyhj_r.sdf

>  <i_m_source_file_index>  (48) 
24

>  <i_lp_mmshare_version>  (48) 
48012

>  <i_f3d_flags>  (48) 
0

>  <s_epik_input>  (48) 
W0NIM11DMShbQ0gzXSlDKD1bQ0gyXSlDKD1PKVtDSDJdW0NASF0oW0NAQEhdMVtDQF0yMzQpQyg9W0NIMl0pW0NASF00W0NASF0oW09IXSlbQ0BASF0zQyhbQ0gzXSkoW0NIM10pW0NIMl1bQ0gyXVtDQEBIXTJbT0hd

>  <s_epik_cmdline>  (48) 
J2VwaWtfcHl0aG9uJywgJy1waHQnLCAnMi4wJywgJy1waCcsICc3LjAnLCAnLXRuJywgJzgnLCAnLW1hJywgJzIwMCcsICctaW1hZScsICc8aW5maWxlLm1hZT4nLCAnLW9tYWUnLCAnPG91dGZpbGUubWFlPic=

>  <r_lp_tautomer_probability>  (48) 
1

>  <r_epik_Ionization_Penalty>  (48) 
1.586e-06

>  <r_epik_Ionization_Penalty_Charging>  (48) 
0

>  <r_epik_Ionization_Penalty_Neutral>  (48) 
1.586e-06

>  <r_epik_State_Penalty>  (48) 
-0

>  <r_epik_Charging_Adjusted_Penalty>  (48) 
0

>  <i_epik_Tot_Q>  (48) 
0

>  <i_epik_Tot_abs_Q>  (48) 
0

>  <s_lp_Force_Field>  (48) 
OPLS3e

>  <r_lp_Energy>  (48) 
70.3658

>  <b_lp_Chiralities_Consistent>  (48) 
1

>  <s_lp_Variant>  (48) 
14:0-1

>  <s_i_glide_gridfile>  (48) 
pfpi4k_grid

>  <i_i_glide_lignum>  (48) 
24

>  <i_i_glide_rotatable_bonds>  (48) 
2

>  <r_i_docking_score>  (48) 
-3.00918

>  <r_i_glide_ligand_efficiency>  (48) 
-0.125382

>  <r_i_glide_ligand_efficiency_sa>  (48) 
-0.361665

>  <r_i_glide_ligand_efficiency_ln>  (48) 
-0.720234

>  <r_i_glide_gscore>  (48) 
-3.00918

>  <r_i_glide_lipo>  (48) 
-0.35164

>  <r_i_glide_hbond>  (48) 
-0.0643439

>  <r_i_glide_metal>  (48) 
-0

>  <r_i_glide_rewards>  (48) 
-1.15595

>  <r_i_glide_evdw>  (48) 
-20.0259

>  <r_i_glide_ecoul>  (48) 
-2.76139

>  <r_i_glide_erotb>  (48) 
0

>  <r_i_glide_esite>  (48) 
-0.0217416

>  <r_i_glide_emodel>  (48) 
-26.389

>  <r_i_glide_energy>  (48) 
-22.7873

>  <r_i_glide_einternal>  (48) 
1.34344

>  <r_i_glide_intrahb_reward>  (48) 
-0

>  <i_i_glide_confnum>  (48) 
2

>  <i_i_glide_posenum>  (48) 
33

>  <r_i_glide_eff_state_penalty>  (48) 
0

>  <ligand_id>  (48) 
14

>  <original_smiles>  (48) 
C=C1C2CC(=O)C(=C)C(C)(C)C2C23C(O)CCC(C)(C)C2C(O)C13

>  <smiles>  (48) 
[H]OC1([H])C2([H])C(=C([H])[H])C3([H])C([H])([H])C(=O)C(=C([H])[H])C(C([H])([H])[H])(C([H])([H])[H])C3([H])C23C([H])(O[H])C([H])([H])C([H])([H])C(C([H])([H])[H])(C([H])([H])[H])C13[H]

$$$$
14:0:1
     RDKit          3D

 54 57  0  0  1  0  0  0  0  0999 V2000
    2.8727    0.4490    3.1084 C   0  0  0  0  0  0  0  0  0  0  0  0
    3.2682   -0.8359    3.0067 C   0  0  0  0  0  0  0  0  0  0  0  0
    4.2617   -1.3759    1.9890 C   0  0  2  0  0  0  0  0  0  0  0  0
    4.3059   -0.6853    0.6084 C   0  0  0  0  0  0  0  0  0  0  0  0
    4.9889   -1.5693   -0.4422 C   0  0  0  0  0  0  0  0  0  0  0  0
    5.7324   -1.0539   -1.2784 O   0  0  0  0  0  0  0  0  0  0  0  0
    4.7294   -3.0176   -0.4285 C   0  0  0  0  0  0  0  0  0  0  0  0
    4.4588   -3.6043   -1.6100 C   0  0  0  0  0  0  0  0  0  0  0  0
    4.7775   -3.7137    0.9405 C   0  0  0  0  0  0  0  0  0  0  0  0
    4.2242   -5.1555    0.8676 C   0  0  0  0  0  0  0  0  0  0  0  0
    6.2796   -3.7821    1.3269 C   0  0  0  0  0  0  0  0  0  0  0  0
    3.8719   -2.8543    1.8970 C   0  0  1  0  0  0  0  0  0  0  0  0
    3.4099   -3.2602    3.3334 C   0  0  2  0  0  0  0  0  0  0  0  0
    4.5691   -3.8658    4.1735 C   0  0  1  0  0  0  0  0  0  0  0  0
    5.4171   -2.8561    4.7117 O   0  0  0  0  0  0  0  0  0  0  0  0
    4.1790   -4.8148    5.3090 C   0  0  0  0  0  0  0  0  0  0  0  0
    3.0121   -5.7302    4.9295 C   0  0  0  0  0  0  0  0  0  0  0  0
    1.7305   -4.9195    4.6758 C   0  0  0  0  0  0  0  0  0  0  0  0
    0.6023   -5.9016    4.3025 C   0  0  0  0  0  0  0  0  0  0  0  0
    1.3168   -4.2477    6.0139 C   0  0  0  0  0  0  0  0  0  0  0  0
    1.9911   -3.9059    3.5210 C   0  0  1  0  0  0  0  0  0  0  0  0
    1.3789   -2.4953    3.4393 C   0  0  1  0  0  0  0  0  0  0  0  0
    0.2377   -2.1803    4.2247 O   0  0  0  0  0  0  0  0  0  0  0  0
    2.7465   -1.9676    3.8722 C   0  0  2  0  0  0  0  0  0  0  0  0
    2.1466    0.7181    3.8605 H   0  0  0  0  0  0  0  0  0  0  0  0
    3.2599    1.2327    2.4734 H   0  0  0  0  0  0  0  0  0  0  0  0
    5.2404   -1.2887    2.4610 H   0  0  0  0  0  0  0  0  0  0  0  0
    3.2989   -0.4491    0.2600 H   0  0  0  0  0  0  0  0  0  0  0  0
    4.8500    0.2561    0.6897 H   0  0  0  0  0  0  0  0  0  0  0  0
    4.4382   -3.0463   -2.5268 H   0  0  0  0  0  0  0  0  0  0  0  0
    4.2415   -4.6539   -1.6809 H   0  0  0  0  0  0  0  0  0  0  0  0
    4.2106   -5.6388    1.8419 H   0  0  0  0  0  0  0  0  0  0  0  0
    4.8316   -5.7808    0.2117 H   0  0  0  0  0  0  0  0  0  0  0  0
    3.2035   -5.1699    0.4836 H   0  0  0  0  0  0  0  0  0  0  0  0
    6.5265   -4.5405    2.0641 H   0  0  0  0  0  0  0  0  0  0  0  0
    6.6634   -2.8254    1.6780 H   0  0  0  0  0  0  0  0  0  0  0  0
    6.8760   -4.0556    0.4563 H   0  0  0  0  0  0  0  0  0  0  0  0
    2.9552   -2.8320    1.3093 H   0  0  0  0  0  0  0  0  0  0  0  0
    5.1825   -4.4917    3.5469 H   0  0  0  0  0  0  0  0  0  0  0  0
    5.6802   -2.2951    4.0181 H   0  0  0  0  0  0  0  0  0  0  0  0
    5.0384   -5.4304    5.5656 H   0  0  0  0  0  0  0  0  0  0  0  0
    3.9387   -4.2612    6.2136 H   0  0  0  0  0  0  0  0  0  0  0  0
    3.2741   -6.2751    4.0211 H   0  0  0  0  0  0  0  0  0  0  0  0
    2.8426   -6.4869    5.6979 H   0  0  0  0  0  0  0  0  0  0  0  0
   -0.3283   -5.3813    4.0940 H   0  0  0  0  0  0  0  0  0  0  0  0
    0.4063   -6.5953    5.1179 H   0  0  0  0  0  0  0  0  0  0  0  0
    0.8597   -6.4991    3.4293 H   0  0  0  0  0  0  0  0  0  0  0  0
    0.2669   -3.9574    6.0200 H   0  0  0  0  0  0  0  0  0  0  0  0
    1.9033   -3.3532    6.2137 H   0  0  0  0  0  0  0  0  0  0  0  0
    1.4676   -4.9233    6.8567 H   0  0  0  0  0  0  0  0  0  0  0  0
    1.7823   -4.3938    2.5723 H   0  0  0  0  0  0  0  0  0  0  0  0
    1.1486   -2.2458    2.4018 H   0  0  0  0  0  0  0  0  0  0  0  0
   -0.0484   -1.3320    3.9542 H   0  0  0  0  0  0  0  0  0  0  0  0
    2.8413   -1.8165    4.9433 H   0  0  0  0  0  0  0  0  0  0  0  0
  1  2  2  0
  1 25  1  0
  1 26  1  0
  2 24  1  0
  2  3  1  0
  3 12  1  0
  3  4  1  0
  3 27  1  1
  4  5  1  0
  4 28  1  0
  4 29  1  0
  5  6  2  0
  5  7  1  0
  7  8  2  0
  7  9  1  0
  8 30  1  0
  8 31  1  0
  9 10  1  0
  9 11  1  0
  9 12  1  0
 10 32  1  0
 10 33  1  0
 10 34  1  0
 11 35  1  0
 11 36  1  0
 11 37  1  0
 12 13  1  0
 12 38  1  6
 13 21  1  0
 13 24  1  0
 13 14  1  1
 14 15  1  0
 14 16  1  0
 14 39  1  6
 15 40  1  0
 16 17  1  0
 16 41  1  0
 16 42  1  0
 17 18  1  0
 17 43  1  0
 17 44  1  0
 18 19  1  0
 18 20  1  0
 18 21  1  0
 19 45  1  0
 19 46  1  0
 19 47  1  0
 20 48  1  0
 20 49  1  0
 20 50  1  0
 21 22  1  0
 21 51  1  6
 22 23  1  0
 22 24  1  0
 22 52  1  6
 23 53  1  0
 24 54  1  1
M  END
>  <i_m_ct_stereo_status>  (49) 
1

>  <s_m_source_file>  (49) 
/var/tmp/pbs.5076255.sched01/tmp7e7yg0hy/0s0dyhj_r.sdf

>  <i_m_source_file_index>  (49) 
24

>  <i_lp_mmshare_version>  (49) 
48012

>  <i_f3d_flags>  (49) 
0

>  <s_epik_input>  (49) 
W0NIM11DMShbQ0gzXSlDKD1bQ0gyXSlDKD1PKVtDSDJdW0NASF0oW0NAQEhdMVtDQF0yMzQpQyg9W0NIMl0pW0NASF00W0NASF0oW09IXSlbQ0BASF0zQyhbQ0gzXSkoW0NIM10pW0NIMl1bQ0gyXVtDQEBIXTJbT0hd

>  <s_epik_cmdline>  (49) 
J2VwaWtfcHl0aG9uJywgJy1waHQnLCAnMi4wJywgJy1waCcsICc3LjAnLCAnLXRuJywgJzgnLCAnLW1hJywgJzIwMCcsICctaW1hZScsICc8aW5maWxlLm1hZT4nLCAnLW9tYWUnLCAnPG91dGZpbGUubWFlPic=

>  <r_lp_tautomer_probability>  (49) 
1

>  <r_epik_Ionization_Penalty>  (49) 
1.586e-06

>  <r_epik_Ionization_Penalty_Charging>  (49) 
0

>  <r_epik_Ionization_Penalty_Neutral>  (49) 
1.586e-06

>  <r_epik_State_Penalty>  (49) 
-0

>  <r_epik_Charging_Adjusted_Penalty>  (49) 
0

>  <i_epik_Tot_Q>  (49) 
0

>  <i_epik_Tot_abs_Q>  (49) 
0

>  <s_lp_Force_Field>  (49) 
OPLS3e

>  <r_lp_Energy>  (49) 
70.3658

>  <b_lp_Chiralities_Consistent>  (49) 
1

>  <s_lp_Variant>  (49) 
14:0-1

>  <s_i_glide_gridfile>  (49) 
pfpi4k_grid

>  <i_i_glide_lignum>  (49) 
24

>  <i_i_glide_rotatable_bonds>  (49) 
2

>  <r_i_docking_score>  (49) 
-2.97533

>  <r_i_glide_ligand_efficiency>  (49) 
-0.123972

>  <r_i_glide_ligand_efficiency_sa>  (49) 
-0.357597

>  <r_i_glide_ligand_efficiency_ln>  (49) 
-0.712133

>  <r_i_glide_gscore>  (49) 
-2.97533

>  <r_i_glide_lipo>  (49) 
-0.328648

>  <r_i_glide_hbond>  (49) 
-0.0555232

>  <r_i_glide_metal>  (49) 
-0

>  <r_i_glide_rewards>  (49) 
-1.15595

>  <r_i_glide_evdw>  (49) 
-20.1251

>  <r_i_glide_ecoul>  (49) 
-2.71393

>  <r_i_glide_erotb>  (49) 
0

>  <r_i_glide_esite>  (49) 
-0.0218646

>  <r_i_glide_emodel>  (49) 
-26.2552

>  <r_i_glide_energy>  (49) 
-22.8391

>  <r_i_glide_einternal>  (49) 
1.68246

>  <r_i_glide_intrahb_reward>  (49) 
-0

>  <i_i_glide_confnum>  (49) 
1

>  <i_i_glide_posenum>  (49) 
10

>  <r_i_glide_eff_state_penalty>  (49) 
0

>  <ligand_id>  (49) 
14

>  <original_smiles>  (49) 
C=C1C2CC(=O)C(=C)C(C)(C)C2C23C(O)CCC(C)(C)C2C(O)C13

>  <smiles>  (49) 
[H]OC1([H])C2([H])C(=C([H])[H])C3([H])C([H])([H])C(=O)C(=C([H])[H])C(C([H])([H])[H])(C([H])([H])[H])C3([H])C23C([H])(O[H])C([H])([H])C([H])([H])C(C([H])([H])[H])(C([H])([H])[H])C13[H]

$$$$
14:0:2
     RDKit          3D

 54 57  0  0  1  0  0  0  0  0999 V2000
    5.4147   -0.5236    2.7119 C   0  0  0  0  0  0  0  0  0  0  0  0
    5.1324   -1.7979    2.3619 C   0  0  0  0  0  0  0  0  0  0  0  0
    4.9216   -2.2761    0.9509 C   0  0  2  0  0  0  0  0  0  0  0  0
    4.3040   -1.2816   -0.0673 C   0  0  0  0  0  0  0  0  0  0  0  0
    3.7585   -1.9981   -1.3047 C   0  0  0  0  0  0  0  0  0  0  0  0
    3.9325   -1.4717   -2.4081 O   0  0  0  0  0  0  0  0  0  0  0  0
    3.0397   -3.2809   -1.1119 C   0  0  0  0  0  0  0  0  0  0  0  0
    1.8750   -3.4654   -1.7488 C   0  0  0  0  0  0  0  0  0  0  0  0
    3.7059   -4.2897   -0.1395 C   0  0  0  0  0  0  0  0  0  0  0  0
    2.7403   -5.4395    0.2465 C   0  0  0  0  0  0  0  0  0  0  0  0
    4.9518   -4.8368   -0.8888 C   0  0  0  0  0  0  0  0  0  0  0  0
    4.0444   -3.5058    1.1567 C   0  0  1  0  0  0  0  0  0  0  0  0
    4.5307   -4.1529    2.4967 C   0  0  2  0  0  0  0  0  0  0  0  0
    5.5981   -5.2704    2.2514 C   0  0  1  0  0  0  0  0  0  0  0  0
    6.8879   -4.7744    1.9163 O   0  0  0  0  0  0  0  0  0  0  0  0
    5.7500   -6.3146    3.3610 C   0  0  0  0  0  0  0  0  0  0  0  0
    4.3954   -6.7508    3.9238 C   0  0  0  0  0  0  0  0  0  0  0  0
    3.6876   -5.5816    4.6427 C   0  0  0  0  0  0  0  0  0  0  0  0
    2.3266   -6.0805    5.1750 C   0  0  0  0  0  0  0  0  0  0  0  0
    4.5370   -5.2027    5.8816 C   0  0  0  0  0  0  0  0  0  0  0  0
    3.4777   -4.4128    3.6252 C   0  0  1  0  0  0  0  0  0  0  0  0
    3.5500   -2.9202    4.0001 C   0  0  1  0  0  0  0  0  0  0  0  0
    3.4243   -2.5244    5.3498 O   0  0  0  0  0  0  0  0  0  0  0  0
    4.9363   -2.9291    3.3463 C   0  0  2  0  0  0  0  0  0  0  0  0
    5.5313   -0.2602    3.7440 H   0  0  0  0  0  0  0  0  0  0  0  0
    5.5461    0.2191    1.9438 H   0  0  0  0  0  0  0  0  0  0  0  0
    5.9085   -2.5739    0.5907 H   0  0  0  0  0  0  0  0  0  0  0  0
    3.4974   -0.7025    0.3833 H   0  0  0  0  0  0  0  0  0  0  0  0
    5.0701   -0.5776   -0.3917 H   0  0  0  0  0  0  0  0  0  0  0  0
    1.4612   -2.7110   -2.3942 H   0  0  0  0  0  0  0  0  0  0  0  0
    1.2940   -4.3658   -1.6617 H   0  0  0  0  0  0  0  0  0  0  0  0
    3.2008   -6.1616    0.9226 H   0  0  0  0  0  0  0  0  0  0  0  0
    2.4112   -5.9970   -0.6194 H   0  0  0  0  0  0  0  0  0  0  0  0
    1.8347   -5.0661    0.7167 H   0  0  0  0  0  0  0  0  0  0  0  0
    5.2798   -5.8269   -0.5767 H   0  0  0  0  0  0  0  0  0  0  0  0
    5.8043   -4.1591   -0.9113 H   0  0  0  0  0  0  0  0  0  0  0  0
    4.6825   -4.9916   -1.9284 H   0  0  0  0  0  0  0  0  0  0  0  0
    3.0657   -3.0949    1.3853 H   0  0  0  0  0  0  0  0  0  0  0  0
    5.2982   -5.8807    1.4150 H   0  0  0  0  0  0  0  0  0  0  0  0
    6.7908   -4.0838    1.2921 H   0  0  0  0  0  0  0  0  0  0  0  0
    6.2535   -7.1876    2.9485 H   0  0  0  0  0  0  0  0  0  0  0  0
    6.3892   -5.9461    4.1566 H   0  0  0  0  0  0  0  0  0  0  0  0
    3.7642   -7.0911    3.1050 H   0  0  0  0  0  0  0  0  0  0  0  0
    4.5034   -7.6075    4.5977 H   0  0  0  0  0  0  0  0  0  0  0  0
    1.7730   -5.2849    5.6728 H   0  0  0  0  0  0  0  0  0  0  0  0
    2.4684   -6.8837    5.8993 H   0  0  0  0  0  0  0  0  0  0  0  0
    1.7040   -6.4778    4.3796 H   0  0  0  0  0  0  0  0  0  0  0  0
    3.9553   -4.6478    6.6229 H   0  0  0  0  0  0  0  0  0  0  0  0
    5.3923   -4.5837    5.6105 H   0  0  0  0  0  0  0  0  0  0  0  0
    4.9350   -6.0904    6.3853 H   0  0  0  0  0  0  0  0  0  0  0  0
    2.5382   -4.5554    3.1137 H   0  0  0  0  0  0  0  0  0  0  0  0
    2.8069   -2.3679    3.4182 H   0  0  0  0  0  0  0  0  0  0  0  0
    3.4436   -1.5847    5.3770 H   0  0  0  0  0  0  0  0  0  0  0  0
    5.7365   -3.0963    4.0579 H   0  0  0  0  0  0  0  0  0  0  0  0
  1  2  2  0
  1 25  1  0
  1 26  1  0
  2 24  1  0
  2  3  1  0
  3 12  1  0
  3  4  1  0
  3 27  1  6
  4  5  1  0
  4 28  1  0
  4 29  1  0
  5  6  2  0
  5  7  1  0
  7  8  2  0
  7  9  1  0
  8 30  1  0
  8 31  1  0
  9 10  1  0
  9 11  1  0
  9 12  1  0
 10 32  1  0
 10 33  1  0
 10 34  1  0
 11 35  1  0
 11 36  1  0
 11 37  1  0
 12 13  1  0
 12 38  1  1
 13 21  1  0
 13 24  1  0
 13 14  1  6
 14 15  1  0
 14 16  1  0
 14 39  1  6
 15 40  1  0
 16 17  1  0
 16 41  1  0
 16 42  1  0
 17 18  1  0
 17 43  1  0
 17 44  1  0
 18 19  1  0
 18 20  1  0
 18 21  1  0
 19 45  1  0
 19 46  1  0
 19 47  1  0
 20 48  1  0
 20 49  1  0
 20 50  1  0
 21 22  1  0
 21 51  1  6
 22 23  1  0
 22 24  1  0
 22 52  1  6
 23 53  1  0
 24 54  1  1
M  END
>  <i_m_ct_stereo_status>  (50) 
1

>  <s_m_source_file>  (50) 
/var/tmp/pbs.5076255.sched01/tmp7e7yg0hy/0s0dyhj_r.sdf

>  <i_m_source_file_index>  (50) 
24

>  <i_lp_mmshare_version>  (50) 
48012

>  <i_f3d_flags>  (50) 
0

>  <s_epik_input>  (50) 
W0NIM11DMShbQ0gzXSlDKD1bQ0gyXSlDKD1PKVtDSDJdW0NASF0oW0NAQEhdMVtDQF0yMzQpQyg9W0NIMl0pW0NASF00W0NASF0oW09IXSlbQ0BASF0zQyhbQ0gzXSkoW0NIM10pW0NIMl1bQ0gyXVtDQEBIXTJbT0hd

>  <s_epik_cmdline>  (50) 
J2VwaWtfcHl0aG9uJywgJy1waHQnLCAnMi4wJywgJy1waCcsICc3LjAnLCAnLXRuJywgJzgnLCAnLW1hJywgJzIwMCcsICctaW1hZScsICc8aW5maWxlLm1hZT4nLCAnLW9tYWUnLCAnPG91dGZpbGUubWFlPic=

>  <r_lp_tautomer_probability>  (50) 
1

>  <r_epik_Ionization_Penalty>  (50) 
1.586e-06

>  <r_epik_Ionization_Penalty_Charging>  (50) 
0

>  <r_epik_Ionization_Penalty_Neutral>  (50) 
1.586e-06

>  <r_epik_State_Penalty>  (50) 
-0

>  <r_epik_Charging_Adjusted_Penalty>  (50) 
0

>  <i_epik_Tot_Q>  (50) 
0

>  <i_epik_Tot_abs_Q>  (50) 
0

>  <s_lp_Force_Field>  (50) 
OPLS3e

>  <r_lp_Energy>  (50) 
70.3658

>  <b_lp_Chiralities_Consistent>  (50) 
1

>  <s_lp_Variant>  (50) 
14:0-1

>  <s_i_glide_gridfile>  (50) 
pfpi4k_grid

>  <i_i_glide_lignum>  (50) 
24

>  <i_i_glide_rotatable_bonds>  (50) 
2

>  <r_i_docking_score>  (50) 
-2.57735

>  <r_i_glide_ligand_efficiency>  (50) 
-0.10739

>  <r_i_glide_ligand_efficiency_sa>  (50) 
-0.309765

>  <r_i_glide_ligand_efficiency_ln>  (50) 
-0.616879

>  <r_i_glide_gscore>  (50) 
-2.57735

>  <r_i_glide_lipo>  (50) 
-0.432197

>  <r_i_glide_hbond>  (50) 
0

>  <r_i_glide_metal>  (50) 
-0

>  <r_i_glide_rewards>  (50) 
-1.15595

>  <r_i_glide_evdw>  (50) 
-16.3565

>  <r_i_glide_ecoul>  (50) 
-0.775208

>  <r_i_glide_erotb>  (50) 
0

>  <r_i_glide_esite>  (50) 
-0.0551009

>  <r_i_glide_emodel>  (50) 
-19.8618

>  <r_i_glide_energy>  (50) 
-17.1317

>  <r_i_glide_einternal>  (50) 
1.66304

>  <r_i_glide_intrahb_reward>  (50) 
-0

>  <i_i_glide_confnum>  (50) 
2

>  <i_i_glide_posenum>  (50) 
1

>  <r_i_glide_eff_state_penalty>  (50) 
0

>  <ligand_id>  (50) 
14

>  <original_smiles>  (50) 
C=C1C2CC(=O)C(=C)C(C)(C)C2C23C(O)CCC(C)(C)C2C(O)C13

>  <smiles>  (50) 
[H]OC1([H])C2([H])C(=C([H])[H])C3([H])C([H])([H])C(=O)C(=C([H])[H])C(C([H])([H])[H])(C([H])([H])[H])C3([H])C23C([H])(O[H])C([H])([H])C([H])([H])C(C([H])([H])[H])(C([H])([H])[H])C13[H]

$$$$
15:0:0
     RDKit          3D

 14 15  0  0  1  0  0  0  0  0999 V2000
    4.7361   -1.0603    0.5745 C   0  0  0  0  0  0  0  0  0  0  0  0
    6.0252   -1.3513    0.0796 C   0  0  0  0  0  0  0  0  0  0  0  0
    6.2576   -1.9145   -1.1041 N   0  0  0  0  0  0  0  0  0  0  0  0
    5.1861   -2.2622   -1.8453 C   0  0  0  0  0  0  0  0  0  0  0  0
    5.1547   -2.8482   -3.0427 N   0  0  0  0  0  0  0  0  0  0  0  0
    3.8100   -2.9776   -3.3762 C   0  0  0  0  0  0  0  0  0  0  0  0
    3.0153   -2.4530   -2.3950 C   0  0  0  0  0  0  0  0  0  0  0  0
    3.8672   -2.0006   -1.4029 N   0  0  0  0  0  0  0  0  0  0  0  0
    3.6474   -1.3990   -0.1979 C   0  0  0  0  0  0  0  0  0  0  0  0
    4.5975   -0.5691    1.5299 H   0  0  0  0  0  0  0  0  0  0  0  0
    6.9007   -1.0877    0.6713 H   0  0  0  0  0  0  0  0  0  0  0  0
    3.5150   -3.4380   -4.3116 H   0  0  0  0  0  0  0  0  0  0  0  0
    1.9461   -2.3481   -2.2894 H   0  0  0  0  0  0  0  0  0  0  0  0
    2.6170   -1.2002    0.0865 H   0  0  0  0  0  0  0  0  0  0  0  0
  1  9  2  0
  1  2  1  0
  1 10  1  0
  2  3  2  0
  2 11  1  0
  3  4  1  0
  4  8  1  0
  4  5  2  0
  5  6  1  0
  6  7  2  0
  6 12  1  0
  7  8  1  0
  7 13  1  0
  8  9  1  0
  9 14  1  0
M  END
>  <i_m_ct_stereo_status>  (51) 
1

>  <s_m_source_file>  (51) 
/var/tmp/pbs.5076255.sched01/tmp7e7yg0hy/0s0dyhj_r.sdf

>  <i_m_source_file_index>  (51) 
25

>  <i_lp_mmshare_version>  (51) 
48012

>  <i_f3d_flags>  (51) 
0

>  <s_epik_input>  (51) 
bjFbY0hdW2NIXVtjSF1uKGMxMilbY0hdW2NIXW4y

>  <s_epik_cmdline>  (51) 
J2VwaWtfcHl0aG9uJywgJy1waHQnLCAnMi4wJywgJy1waCcsICc3LjAnLCAnLXRuJywgJzgnLCAnLW1hJywgJzIwMCcsICctaW1hZScsICc8aW5maWxlLm1hZT4nLCAnLW9tYWUnLCAnPG91dGZpbGUubWFlPic=

>  <r_lp_tautomer_probability>  (51) 
1

>  <r_epik_Ionization_Penalty>  (51) 
0.000283514

>  <r_epik_Ionization_Penalty_Charging>  (51) 
0.000283514

>  <r_epik_Ionization_Penalty_Neutral>  (51) 
3.26343e-12

>  <r_epik_State_Penalty>  (51) 
-0

>  <r_epik_Charging_Adjusted_Penalty>  (51) 
0.000283514

>  <i_epik_Tot_Q>  (51) 
0

>  <i_epik_Tot_abs_Q>  (51) 
0

>  <s_lp_Force_Field>  (51) 
OPLS3e

>  <r_lp_Energy>  (51) 
15.6776

>  <b_lp_Chiralities_Consistent>  (51) 
1

>  <s_lp_Variant>  (51) 
15:0-1

>  <s_i_glide_gridfile>  (51) 
pfpi4k_grid

>  <i_i_glide_lignum>  (51) 
25

>  <i_i_glide_rotatable_bonds>  (51) 
0

>  <r_i_docking_score>  (51) 
-4.03315

>  <r_i_glide_ligand_efficiency>  (51) 
-0.448128

>  <r_i_glide_ligand_efficiency_sa>  (51) 
-0.932143

>  <r_i_glide_ligand_efficiency_ln>  (51) 
-1.26145

>  <r_i_glide_gscore>  (51) 
-4.03315

>  <r_i_glide_lipo>  (51) 
-0.215884

>  <r_i_glide_hbond>  (51) 
-0.139259

>  <r_i_glide_metal>  (51) 
-0

>  <r_i_glide_rewards>  (51) 
-2.25

>  <r_i_glide_evdw>  (51) 
-15.6297

>  <r_i_glide_ecoul>  (51) 
-3.91576

>  <r_i_glide_erotb>  (51) 
0

>  <r_i_glide_esite>  (51) 
-0.0591557

>  <r_i_glide_emodel>  (51) 
-25.5547

>  <r_i_glide_energy>  (51) 
-19.5455

>  <r_i_glide_einternal>  (51) 
0

>  <r_i_glide_intrahb_reward>  (51) 
-0

>  <i_i_glide_confnum>  (51) 
2

>  <i_i_glide_posenum>  (51) 
7

>  <r_i_glide_eff_state_penalty>  (51) 
0

>  <ligand_id>  (51) 
15

>  <original_smiles>  (51) 
c1cnc2nccn2c1

>  <smiles>  (51) 
[H]c1nc2nc([H])c([H])n2c([H])c1[H]

$$$$
15:0:1
     RDKit          3D

 14 15  0  0  1  0  0  0  0  0999 V2000
    2.5033   -9.7849    2.2532 C   0  0  0  0  0  0  0  0  0  0  0  0
    2.7334   -8.5047    1.7008 C   0  0  0  0  0  0  0  0  0  0  0  0
    1.8282   -7.5297    1.6701 N   0  0  0  0  0  0  0  0  0  0  0  0
    0.6174   -7.8071    2.1827 C   0  0  0  0  0  0  0  0  0  0  0  0
   -0.4557   -7.0074    2.2623 N   0  0  0  0  0  0  0  0  0  0  0  0
   -1.4439   -7.7607    2.8891 C   0  0  0  0  0  0  0  0  0  0  0  0
   -0.9807   -9.0086    3.1899 C   0  0  0  0  0  0  0  0  0  0  0  0
    0.3284   -9.0723    2.7545 N   0  0  0  0  0  0  0  0  0  0  0  0
    1.2669  -10.0596    2.7953 C   0  0  0  0  0  0  0  0  0  0  0  0
    3.2731  -10.5490    2.2287 H   0  0  0  0  0  0  0  0  0  0  0  0
    3.6988   -8.2719    1.2619 H   0  0  0  0  0  0  0  0  0  0  0  0
   -2.4254   -7.3514    3.0927 H   0  0  0  0  0  0  0  0  0  0  0  0
   -1.4294   -9.8554    3.6791 H   0  0  0  0  0  0  0  0  0  0  0  0
    0.9928  -11.0182    3.2299 H   0  0  0  0  0  0  0  0  0  0  0  0
  1  9  2  0
  1  2  1  0
  1 10  1  0
  2  3  2  0
  2 11  1  0
  3  4  1  0
  4  8  1  0
  4  5  2  0
  5  6  1  0
  6  7  2  0
  6 12  1  0
  7  8  1  0
  7 13  1  0
  8  9  1  0
  9 14  1  0
M  END
>  <i_m_ct_stereo_status>  (52) 
1

>  <s_m_source_file>  (52) 
/var/tmp/pbs.5076255.sched01/tmp7e7yg0hy/0s0dyhj_r.sdf

>  <i_m_source_file_index>  (52) 
25

>  <i_lp_mmshare_version>  (52) 
48012

>  <i_f3d_flags>  (52) 
0

>  <s_epik_input>  (52) 
bjFbY0hdW2NIXVtjSF1uKGMxMilbY0hdW2NIXW4y

>  <s_epik_cmdline>  (52) 
J2VwaWtfcHl0aG9uJywgJy1waHQnLCAnMi4wJywgJy1waCcsICc3LjAnLCAnLXRuJywgJzgnLCAnLW1hJywgJzIwMCcsICctaW1hZScsICc8aW5maWxlLm1hZT4nLCAnLW9tYWUnLCAnPG91dGZpbGUubWFlPic=

>  <r_lp_tautomer_probability>  (52) 
1

>  <r_epik_Ionization_Penalty>  (52) 
0.000283514

>  <r_epik_Ionization_Penalty_Charging>  (52) 
0.000283514

>  <r_epik_Ionization_Penalty_Neutral>  (52) 
3.26343e-12

>  <r_epik_State_Penalty>  (52) 
-0

>  <r_epik_Charging_Adjusted_Penalty>  (52) 
0.000283514

>  <i_epik_Tot_Q>  (52) 
0

>  <i_epik_Tot_abs_Q>  (52) 
0

>  <s_lp_Force_Field>  (52) 
OPLS3e

>  <r_lp_Energy>  (52) 
15.6776

>  <b_lp_Chiralities_Consistent>  (52) 
1

>  <s_lp_Variant>  (52) 
15:0-1

>  <s_i_glide_gridfile>  (52) 
pfpi4k_grid

>  <i_i_glide_lignum>  (52) 
25

>  <i_i_glide_rotatable_bonds>  (52) 
0

>  <r_i_docking_score>  (52) 
-4.00361

>  <r_i_glide_ligand_efficiency>  (52) 
-0.444846

>  <r_i_glide_ligand_efficiency_sa>  (52) 
-0.925316

>  <r_i_glide_ligand_efficiency_ln>  (52) 
-1.25221

>  <r_i_glide_gscore>  (52) 
-4.00361

>  <r_i_glide_lipo>  (52) 
-0.123899

>  <r_i_glide_hbond>  (52) 
-0.138179

>  <r_i_glide_metal>  (52) 
-0

>  <r_i_glide_rewards>  (52) 
-2.25

>  <r_i_glide_evdw>  (52) 
-14.7145

>  <r_i_glide_ecoul>  (52) 
-4.5369

>  <r_i_glide_erotb>  (52) 
0

>  <r_i_glide_esite>  (52) 
-0.0752702

>  <r_i_glide_emodel>  (52) 
-25.215

>  <r_i_glide_energy>  (52) 
-19.2514

>  <r_i_glide_einternal>  (52) 
0

>  <r_i_glide_intrahb_reward>  (52) 
-0

>  <i_i_glide_confnum>  (52) 
1

>  <i_i_glide_posenum>  (52) 
1

>  <r_i_glide_eff_state_penalty>  (52) 
0

>  <ligand_id>  (52) 
15

>  <original_smiles>  (52) 
c1cnc2nccn2c1

>  <smiles>  (52) 
[H]c1nc2nc([H])c([H])n2c([H])c1[H]

$$$$
15:0:2
     RDKit          3D

 14 15  0  0  1  0  0  0  0  0999 V2000
    0.5730   -8.1256    6.4454 C   0  0  0  0  0  0  0  0  0  0  0  0
    0.2988   -6.7636    6.1699 C   0  0  0  0  0  0  0  0  0  0  0  0
   -0.2130   -6.3248    5.0256 N   0  0  0  0  0  0  0  0  0  0  0  0
   -0.4635   -7.2446    4.0759 C   0  0  0  0  0  0  0  0  0  0  0  0
   -0.9687   -7.0568    2.8554 N   0  0  0  0  0  0  0  0  0  0  0  0
   -1.0146   -8.3114    2.2629 C   0  0  0  0  0  0  0  0  0  0  0  0
   -0.5634   -9.2714    3.1220 C   0  0  0  0  0  0  0  0  0  0  0  0
   -0.2034   -8.6206    4.2868 N   0  0  0  0  0  0  0  0  0  0  0  0
    0.3052   -9.0613    5.4717 C   0  0  0  0  0  0  0  0  0  0  0  0
    0.9818   -8.4369    7.4021 H   0  0  0  0  0  0  0  0  0  0  0  0
    0.4960   -6.0108    6.9289 H   0  0  0  0  0  0  0  0  0  0  0  0
   -1.3798   -8.4295    1.2543 H   0  0  0  0  0  0  0  0  0  0  0  0
   -0.4703  -10.3434    3.0418 H   0  0  0  0  0  0  0  0  0  0  0  0
    0.4715  -10.1312    5.5895 H   0  0  0  0  0  0  0  0  0  0  0  0
  1  9  2  0
  1  2  1  0
  1 10  1  0
  2  3  2  0
  2 11  1  0
  3  4  1  0
  4  8  1  0
  4  5  2  0
  5  6  1  0
  6  7  2  0
  6 12  1  0
  7  8  1  0
  7 13  1  0
  8  9  1  0
  9 14  1  0
M  END
>  <i_m_ct_stereo_status>  (53) 
1

>  <s_m_source_file>  (53) 
/var/tmp/pbs.5076255.sched01/tmp7e7yg0hy/0s0dyhj_r.sdf

>  <i_m_source_file_index>  (53) 
25

>  <i_lp_mmshare_version>  (53) 
48012

>  <i_f3d_flags>  (53) 
0

>  <s_epik_input>  (53) 
bjFbY0hdW2NIXVtjSF1uKGMxMilbY0hdW2NIXW4y

>  <s_epik_cmdline>  (53) 
J2VwaWtfcHl0aG9uJywgJy1waHQnLCAnMi4wJywgJy1waCcsICc3LjAnLCAnLXRuJywgJzgnLCAnLW1hJywgJzIwMCcsICctaW1hZScsICc8aW5maWxlLm1hZT4nLCAnLW9tYWUnLCAnPG91dGZpbGUubWFlPic=

>  <r_lp_tautomer_probability>  (53) 
1

>  <r_epik_Ionization_Penalty>  (53) 
0.000283514

>  <r_epik_Ionization_Penalty_Charging>  (53) 
0.000283514

>  <r_epik_Ionization_Penalty_Neutral>  (53) 
3.26343e-12

>  <r_epik_State_Penalty>  (53) 
-0

>  <r_epik_Charging_Adjusted_Penalty>  (53) 
0.000283514

>  <i_epik_Tot_Q>  (53) 
0

>  <i_epik_Tot_abs_Q>  (53) 
0

>  <s_lp_Force_Field>  (53) 
OPLS3e

>  <r_lp_Energy>  (53) 
15.6776

>  <b_lp_Chiralities_Consistent>  (53) 
1

>  <s_lp_Variant>  (53) 
15:0-1

>  <s_i_glide_gridfile>  (53) 
pfpi4k_grid

>  <i_i_glide_lignum>  (53) 
25

>  <i_i_glide_rotatable_bonds>  (53) 
0

>  <r_i_docking_score>  (53) 
-3.70588

>  <r_i_glide_ligand_efficiency>  (53) 
-0.411764

>  <r_i_glide_ligand_efficiency_sa>  (53) 
-0.856504

>  <r_i_glide_ligand_efficiency_ln>  (53) 
-1.15909

>  <r_i_glide_gscore>  (53) 
-3.70588

>  <r_i_glide_lipo>  (53) 
0

>  <r_i_glide_hbond>  (53) 
-0.16

>  <r_i_glide_metal>  (53) 
-0

>  <r_i_glide_rewards>  (53) 
-2.25

>  <r_i_glide_evdw>  (53) 
-12.3533

>  <r_i_glide_ecoul>  (53) 
-3.82396

>  <r_i_glide_erotb>  (53) 
0

>  <r_i_glide_esite>  (53) 
-0.104615

>  <r_i_glide_emodel>  (53) 
-21.6975

>  <r_i_glide_energy>  (53) 
-16.1773

>  <r_i_glide_einternal>  (53) 
0

>  <r_i_glide_intrahb_reward>  (53) 
-0

>  <i_i_glide_confnum>  (53) 
1

>  <i_i_glide_posenum>  (53) 
2

>  <r_i_glide_eff_state_penalty>  (53) 
0

>  <ligand_id>  (53) 
15

>  <original_smiles>  (53) 
c1cnc2nccn2c1

>  <smiles>  (53) 
[H]c1nc2nc([H])c([H])n2c([H])c1[H]

$$$$
16:0:0
     RDKit          3D

 47 51  0  0  1  0  0  0  0  0999 V2000
    2.4721   -3.0096   -2.9587 C   0  0  0  0  0  0  0  0  0  0  0  0
    2.7022   -2.9672   -1.5584 O   0  0  0  0  0  0  0  0  0  0  0  0
    3.5110   -1.8872   -1.1120 C   0  0  2  0  0  0  0  0  0  0  0  0
    4.9938   -2.1818   -1.4460 C   0  0  0  0  0  0  0  0  0  0  0  0
    5.7248   -2.4491   -0.1235 C   0  0  1  0  0  0  0  0  0  0  0  0
    4.8502   -1.7489    0.9353 C   0  0  2  0  0  0  0  0  0  0  0  0
    5.0884   -2.2416    2.3820 C   0  0  0  0  0  0  0  0  0  0  0  0
    5.3802   -3.7504    2.4911 C   0  0  1  0  0  0  0  0  0  0  0  0
    4.1320   -4.5859    2.2336 C   0  0  0  0  0  0  0  0  0  0  0  0
    3.1870   -4.7787    3.2684 C   0  0  0  0  0  0  0  0  0  0  0  0
    2.0256   -5.5111    2.9668 C   0  0  0  0  0  0  0  0  0  0  0  0
    1.7924   -6.0123    1.7052 C   0  0  0  0  0  0  0  0  0  0  0  0
    2.7115   -5.8404    0.6619 C   0  0  0  0  0  0  0  0  0  0  0  0
    3.9022   -5.1364    0.9425 C   0  0  0  0  0  0  0  0  0  0  0  0
    4.9485   -4.9961   -0.1491 C   0  0  0  0  0  0  0  0  0  0  0  0
    6.0430   -3.9491    0.1666 C   0  0  2  0  0  0  0  0  0  0  0  0
    6.4977   -4.0928    1.5732 N   0  0  2  0  0  0  0  0  0  0  0  0
    7.1712   -5.3862    1.8831 C   0  0  0  0  0  0  0  0  0  0  0  0
    0.6034   -6.6575    1.6819 O   0  0  0  0  0  0  0  0  0  0  0  0
    0.1576   -6.6720    3.0161 C   0  0  0  0  0  0  0  0  0  0  0  0
    0.9870   -5.8349    3.7779 O   0  0  0  0  0  0  0  0  0  0  0  0
    3.4081   -1.8250    0.4213 C   0  0  1  0  0  0  0  0  0  0  0  0
    2.6567   -0.7204    0.8746 O   0  0  0  0  0  0  0  0  0  0  0  0
    1.8172   -3.8543   -3.1739 H   0  0  0  0  0  0  0  0  0  0  0  0
    3.3890   -3.1560   -3.5244 H   0  0  0  0  0  0  0  0  0  0  0  0
    1.9819   -2.1117   -3.3273 H   0  0  0  0  0  0  0  0  0  0  0  0
    3.2034   -0.9503   -1.5810 H   0  0  0  0  0  0  0  0  0  0  0  0
    5.1368   -2.9883   -2.1674 H   0  0  0  0  0  0  0  0  0  0  0  0
    5.4195   -1.2964   -1.9177 H   0  0  0  0  0  0  0  0  0  0  0  0
    6.6904   -1.9369   -0.1555 H   0  0  0  0  0  0  0  0  0  0  0  0
    5.1268   -0.6925    0.9059 H   0  0  0  0  0  0  0  0  0  0  0  0
    5.9316   -1.6871    2.8038 H   0  0  0  0  0  0  0  0  0  0  0  0
    4.2248   -1.9988    2.9997 H   0  0  0  0  0  0  0  0  0  0  0  0
    5.7007   -3.9508    3.5117 H   0  0  0  0  0  0  0  0  0  0  0  0
    3.3424   -4.3722    4.2630 H   0  0  0  0  0  0  0  0  0  0  0  0
    2.5252   -6.2379   -0.3154 H   0  0  0  0  0  0  0  0  0  0  0  0
    5.4236   -5.9752   -0.2594 H   0  0  0  0  0  0  0  0  0  0  0  0
    4.4724   -4.8110   -1.1094 H   0  0  0  0  0  0  0  0  0  0  0  0
    6.8837   -4.1857   -0.4809 H   0  0  0  0  0  0  0  0  0  0  0  0
    6.4811   -6.2306    1.8499 H   0  0  0  0  0  0  0  0  0  0  0  0
    7.6072   -5.3631    2.8822 H   0  0  0  0  0  0  0  0  0  0  0  0
    7.9821   -5.5781    1.1780 H   0  0  0  0  0  0  0  0  0  0  0  0
   -0.8853   -6.3691    3.0949 H   0  0  0  0  0  0  0  0  0  0  0  0
    0.2288   -7.6867    3.4063 H   0  0  0  0  0  0  0  0  0  0  0  0
    2.8999   -2.7099    0.7822 H   0  0  0  0  0  0  0  0  0  0  0  0
    1.8761   -0.6629    0.3105 H   0  0  0  0  0  0  0  0  0  0  0  0
    7.1998   -3.3840    1.7118 H   0  0  0  0  0  0  0  0  0  0  0  0
  1  2  1  0
  1 24  1  0
  1 25  1  0
  1 26  1  0
  2  3  1  0
  3 22  1  0
  3  4  1  0
  3 27  1  6
  4  5  1  0
  4 28  1  0
  4 29  1  0
  5 16  1  0
  5  6  1  0
  5 30  1  6
  6  7  1  0
  6 22  1  0
  6 31  1  1
  7  8  1  0
  7 32  1  0
  7 33  1  0
  8 17  1  0
  8  9  1  0
  8 34  1  1
  9 14  2  0
  9 10  1  0
 10 11  2  0
 10 35  1  0
 11 21  1  0
 11 12  1  0
 12 13  2  0
 12 19  1  0
 13 14  1  0
 13 36  1  0
 14 15  1  0
 15 16  1  0
 15 37  1  0
 15 38  1  0
 16 17  1  0
 16 39  1  6
 17 18  1  0
 17 47  1  1
 18 40  1  0
 18 41  1  0
 18 42  1  0
 19 20  1  0
 20 21  1  0
 20 43  1  0
 20 44  1  0
 22 23  1  0
 22 45  1  1
 23 46  1  0
M  CHG  1  17   1
M  END
>  <i_m_ct_stereo_status>  (54) 
1

>  <s_m_source_file>  (54) 
/var/tmp/pbs.5076255.sched01/tmp7e7yg0hy/0s0dyhj_r.sdf

>  <i_m_source_file_index>  (54) 
26

>  <i_lp_mmshare_version>  (54) 
48012

>  <i_f3d_flags>  (54) 
0

>  <s_epik_input>  (54) 
W0NIM11PW0NASF0oW0NIMl0xKVtDQEhdKFtPSF0pW0NASF0oW0NASF0xMilbQ0gyXVtDQEhdM2M0YyhbQ0gyXVtDSF0yTjNbQ0gzXSlbY0hdYzVjKFtjSF00KU9bQ0gyXU81

>  <s_epik_cmdline>  (54) 
J2VwaWtfcHl0aG9uJywgJy1waHQnLCAnMi4wJywgJy1waCcsICc3LjAnLCAnLXRuJywgJzgnLCAnLW1hJywgJzIwMCcsICctaW1hZScsICc8aW5maWxlLm1hZT4nLCAnLW9tYWUnLCAnPG91dGZpbGUubWFlPic=

>  <r_lp_tautomer_probability>  (54) 
1

>  <r_epik_Ionization_Penalty>  (54) 
0.0146371

>  <r_epik_Ionization_Penalty_Charging>  (54) 
0.0146369

>  <r_epik_Ionization_Penalty_Neutral>  (54) 
1.58403e-07

>  <r_epik_State_Penalty>  (54) 
0.0114595

>  <r_epik_Charging_Adjusted_Penalty>  (54) 
0.0260964

>  <i_epik_Tot_Q>  (54) 
1

>  <i_epik_Tot_abs_Q>  (54) 
1

>  <s_epik_Chemistry_Notes>  (54) 
This compound contains an acetal/aminal-like group ( X-CH(R)-Y where X, Y are N, S, or O) that may be acid/base labile, releasing an aldehyde.

>  <s_lp_Force_Field>  (54) 
OPLS3e

>  <r_lp_Energy>  (54) 
52.294

>  <b_lp_Chiralities_Consistent>  (54) 
1

>  <s_lp_Variant>  (54) 
16:0-1

>  <s_i_glide_gridfile>  (54) 
pfpi4k_grid

>  <i_i_glide_lignum>  (54) 
26

>  <i_i_glide_rotatable_bonds>  (54) 
2

>  <r_i_docking_score>  (54) 
-3.38285

>  <r_i_glide_ligand_efficiency>  (54) 
-0.147081

>  <r_i_glide_ligand_efficiency_sa>  (54) 
-0.418277

>  <r_i_glide_ligand_efficiency_ln>  (54) 
-0.818004

>  <r_i_glide_gscore>  (54) 
-3.38285

>  <r_i_glide_lipo>  (54) 
-0.403392

>  <r_i_glide_hbond>  (54) 
-0.0443219

>  <r_i_glide_metal>  (54) 
-0

>  <r_i_glide_rewards>  (54) 
-1.23827

>  <r_i_glide_evdw>  (54) 
-18.8138

>  <r_i_glide_ecoul>  (54) 
-4.56716

>  <r_i_glide_erotb>  (54) 
0

>  <r_i_glide_esite>  (54) 
-0.0711062

>  <r_i_glide_emodel>  (54) 
-28.0076

>  <r_i_glide_energy>  (54) 
-23.381

>  <r_i_glide_einternal>  (54) 
0.647009

>  <r_i_glide_intrahb_reward>  (54) 
-0

>  <i_i_glide_confnum>  (54) 
1

>  <i_i_glide_posenum>  (54) 
6

>  <r_i_glide_eff_state_penalty>  (54) 
0

>  <ligand_id>  (54) 
16

>  <original_smiles>  (54) 
COC1CC2C(CC3c4cc5c(cc4CC2N3C)OCO5)C1O

>  <smiles>  (54) 
[H]OC1([H])C([H])(OC([H])([H])[H])C([H])([H])C2([H])C1([H])C([H])([H])C1([H])c3c([H])c4c(c([H])c3C([H])([H])C2([H])[N+]1([H])C([H])([H])[H])OC([H])([H])O4

$$$$
16:0:1
     RDKit          3D

 47 51  0  0  1  0  0  0  0  0999 V2000
    2.2341   -3.1772   -2.3071 C   0  0  0  0  0  0  0  0  0  0  0  0
    2.3583   -3.2928   -0.8978 O   0  0  0  0  0  0  0  0  0  0  0  0
    3.2083   -2.3221   -0.3093 C   0  0  2  0  0  0  0  0  0  0  0  0
    4.6867   -2.7127   -0.5177 C   0  0  0  0  0  0  0  0  0  0  0  0
    5.2533   -3.1329    0.8488 C   0  0  1  0  0  0  0  0  0  0  0  0
    4.3361   -2.4308    1.8690 C   0  0  2  0  0  0  0  0  0  0  0  0
    4.3778   -3.0392    3.2924 C   0  0  0  0  0  0  0  0  0  0  0  0
    4.5476   -4.5698    3.3198 C   0  0  1  0  0  0  0  0  0  0  0  0
    3.2687   -5.2786    2.8760 C   0  0  0  0  0  0  0  0  0  0  0  0
    2.2049   -5.4600    3.7988 C   0  0  0  0  0  0  0  0  0  0  0  0
    1.0272   -6.0737    3.3366 C   0  0  0  0  0  0  0  0  0  0  0  0
    0.8925   -6.4792    2.0238 C   0  0  0  0  0  0  0  0  0  0  0  0
    1.9234   -6.3120    1.0946 C   0  0  0  0  0  0  0  0  0  0  0  0
    3.1309   -5.7248    1.5347 C   0  0  0  0  0  0  0  0  0  0  0  0
    4.2909   -5.5971    0.5588 C   0  0  0  0  0  0  0  0  0  0  0  0
    5.4282   -4.6697    1.0593 C   0  0  2  0  0  0  0  0  0  0  0  0
    5.7229   -4.9433    2.4885 N   0  0  2  0  0  0  0  0  0  0  0  0
    6.2586   -6.2989    2.7651 C   0  0  0  0  0  0  0  0  0  0  0  0
   -0.3378   -7.0126    1.8347 O   0  0  0  0  0  0  0  0  0  0  0  0
   -0.9234   -7.0688    3.1089 C   0  0  0  0  0  0  0  0  0  0  0  0
   -0.1206   -6.3540    4.0124 O   0  0  0  0  0  0  0  0  0  0  0  0
    2.9516   -2.3465    1.2079 C   0  0  1  0  0  0  0  0  0  0  0  0
    2.2645   -1.1917    1.6443 O   0  0  0  0  0  0  0  0  0  0  0  0
    1.5378   -3.9354   -2.6466 H   0  0  0  0  0  0  0  0  0  0  0  0
    3.1815   -3.3464   -2.8191 H   0  0  0  0  0  0  0  0  0  0  0  0
    1.8365   -2.2131   -2.6223 H   0  0  0  0  0  0  0  0  0  0  0  0
    3.0218   -1.3278   -0.7199 H   0  0  0  0  0  0  0  0  0  0  0  0
    4.8281   -3.4774   -1.2812 H   0  0  0  0  0  0  0  0  0  0  0  0
    5.2282   -1.8363   -0.8722 H   0  0  0  0  0  0  0  0  0  0  0  0
    6.2500   -2.6989    0.9495 H   0  0  0  0  0  0  0  0  0  0  0  0
    4.6940   -1.4003    1.9522 H   0  0  0  0  0  0  0  0  0  0  0  0
    5.2126   -2.5902    3.8340 H   0  0  0  0  0  0  0  0  0  0  0  0
    3.4776   -2.7613    3.8429 H   0  0  0  0  0  0  0  0  0  0  0  0
    4.7425   -4.8659    4.3496 H   0  0  0  0  0  0  0  0  0  0  0  0
    2.2895   -5.1360    4.8250 H   0  0  0  0  0  0  0  0  0  0  0  0
    1.8009   -6.6490    0.0769 H   0  0  0  0  0  0  0  0  0  0  0  0
    4.7017   -6.5995    0.4199 H   0  0  0  0  0  0  0  0  0  0  0  0
    3.9273   -5.3052   -0.4251 H   0  0  0  0  0  0  0  0  0  0  0  0
    6.3110   -4.9312    0.4727 H   0  0  0  0  0  0  0  0  0  0  0  0
    5.5118   -7.0797    2.6021 H   0  0  0  0  0  0  0  0  0  0  0  0
    6.5941   -6.3650    3.8028 H   0  0  0  0  0  0  0  0  0  0  0  0
    7.1197   -6.5114    2.1261 H   0  0  0  0  0  0  0  0  0  0  0  0
   -1.9377   -6.6753    3.0883 H   0  0  0  0  0  0  0  0  0  0  0  0
   -0.9707   -8.1102    3.4263 H   0  0  0  0  0  0  0  0  0  0  0  0
    2.3383   -3.2068    1.4612 H   0  0  0  0  0  0  0  0  0  0  0  0
    1.5767   -1.0143    1.0082 H   0  0  0  0  0  0  0  0  0  0  0  0
    6.4568   -4.3009    2.7466 H   0  0  0  0  0  0  0  0  0  0  0  0
  1  2  1  0
  1 24  1  0
  1 25  1  0
  1 26  1  0
  2  3  1  0
  3 22  1  0
  3  4  1  0
  3 27  1  6
  4  5  1  0
  4 28  1  0
  4 29  1  0
  5 16  1  0
  5  6  1  0
  5 30  1  6
  6  7  1  0
  6 22  1  0
  6 31  1  1
  7  8  1  0
  7 32  1  0
  7 33  1  0
  8 17  1  0
  8  9  1  0
  8 34  1  1
  9 14  2  0
  9 10  1  0
 10 11  2  0
 10 35  1  0
 11 21  1  0
 11 12  1  0
 12 13  2  0
 12 19  1  0
 13 14  1  0
 13 36  1  0
 14 15  1  0
 15 16  1  0
 15 37  1  0
 15 38  1  0
 16 17  1  0
 16 39  1  6
 17 18  1  0
 17 47  1  1
 18 40  1  0
 18 41  1  0
 18 42  1  0
 19 20  1  0
 20 21  1  0
 20 43  1  0
 20 44  1  0
 22 23  1  0
 22 45  1  6
 23 46  1  0
M  CHG  1  17   1
M  END
>  <i_m_ct_stereo_status>  (55) 
1

>  <s_m_source_file>  (55) 
/var/tmp/pbs.5076255.sched01/tmp7e7yg0hy/0s0dyhj_r.sdf

>  <i_m_source_file_index>  (55) 
26

>  <i_lp_mmshare_version>  (55) 
48012

>  <i_f3d_flags>  (55) 
0

>  <s_epik_input>  (55) 
W0NIM11PW0NASF0oW0NIMl0xKVtDQEhdKFtPSF0pW0NASF0oW0NASF0xMilbQ0gyXVtDQEhdM2M0YyhbQ0gyXVtDSF0yTjNbQ0gzXSlbY0hdYzVjKFtjSF00KU9bQ0gyXU81

>  <s_epik_cmdline>  (55) 
J2VwaWtfcHl0aG9uJywgJy1waHQnLCAnMi4wJywgJy1waCcsICc3LjAnLCAnLXRuJywgJzgnLCAnLW1hJywgJzIwMCcsICctaW1hZScsICc8aW5maWxlLm1hZT4nLCAnLW9tYWUnLCAnPG91dGZpbGUubWFlPic=

>  <r_lp_tautomer_probability>  (55) 
1

>  <r_epik_Ionization_Penalty>  (55) 
0.0146371

>  <r_epik_Ionization_Penalty_Charging>  (55) 
0.0146369

>  <r_epik_Ionization_Penalty_Neutral>  (55) 
1.58403e-07

>  <r_epik_State_Penalty>  (55) 
0.0114595

>  <r_epik_Charging_Adjusted_Penalty>  (55) 
0.0260964

>  <i_epik_Tot_Q>  (55) 
1

>  <i_epik_Tot_abs_Q>  (55) 
1

>  <s_epik_Chemistry_Notes>  (55) 
This compound contains an acetal/aminal-like group ( X-CH(R)-Y where X, Y are N, S, or O) that may be acid/base labile, releasing an aldehyde.

>  <s_lp_Force_Field>  (55) 
OPLS3e

>  <r_lp_Energy>  (55) 
52.294

>  <b_lp_Chiralities_Consistent>  (55) 
1

>  <s_lp_Variant>  (55) 
16:0-1

>  <s_i_glide_gridfile>  (55) 
pfpi4k_grid

>  <i_i_glide_lignum>  (55) 
26

>  <i_i_glide_rotatable_bonds>  (55) 
2

>  <r_i_docking_score>  (55) 
-3.25014

>  <r_i_glide_ligand_efficiency>  (55) 
-0.141311

>  <r_i_glide_ligand_efficiency_sa>  (55) 
-0.401868

>  <r_i_glide_ligand_efficiency_ln>  (55) 
-0.785914

>  <r_i_glide_gscore>  (55) 
-3.25014

>  <r_i_glide_lipo>  (55) 
-0.37442

>  <r_i_glide_hbond>  (55) 
-0.0965197

>  <r_i_glide_metal>  (55) 
-0

>  <r_i_glide_rewards>  (55) 
-1.23827

>  <r_i_glide_evdw>  (55) 
-18.4827

>  <r_i_glide_ecoul>  (55) 
-3.44534

>  <r_i_glide_erotb>  (55) 
0

>  <r_i_glide_esite>  (55) 
-0.1

>  <r_i_glide_emodel>  (55) 
-26.3876

>  <r_i_glide_energy>  (55) 
-21.928

>  <r_i_glide_einternal>  (55) 
0.762659

>  <r_i_glide_intrahb_reward>  (55) 
-0

>  <i_i_glide_confnum>  (55) 
2

>  <i_i_glide_posenum>  (55) 
1

>  <r_i_glide_eff_state_penalty>  (55) 
0

>  <ligand_id>  (55) 
16

>  <original_smiles>  (55) 
COC1CC2C(CC3c4cc5c(cc4CC2N3C)OCO5)C1O

>  <smiles>  (55) 
[H]OC1([H])C([H])(OC([H])([H])[H])C([H])([H])C2([H])C1([H])C([H])([H])C1([H])c3c([H])c4c(c([H])c3C([H])([H])C2([H])[N+]1([H])C([H])([H])[H])OC([H])([H])O4

$$$$
16:0:2
     RDKit          3D

 47 51  0  0  1  0  0  0  0  0999 V2000
    3.8832   -1.1028   -2.9146 C   0  0  0  0  0  0  0  0  0  0  0  0
    4.4911   -1.4150   -1.6703 O   0  0  0  0  0  0  0  0  0  0  0  0
    5.4647   -2.4475   -1.7095 C   0  0  2  0  0  0  0  0  0  0  0  0
    4.8103   -3.8388   -1.8697 C   0  0  0  0  0  0  0  0  0  0  0  0
    5.0036   -4.6053   -0.5498 C   0  0  1  0  0  0  0  0  0  0  0  0
    6.2126   -3.9223    0.1152 C   0  0  2  0  0  0  0  0  0  0  0  0
    6.3352   -4.1614    1.6367 C   0  0  0  0  0  0  0  0  0  0  0  0
    4.9869   -4.2378    2.3735 C   0  0  1  0  0  0  0  0  0  0  0  0
    4.3310   -2.8637    2.4803 C   0  0  0  0  0  0  0  0  0  0  0  0
    4.7473   -1.9597    3.4906 C   0  0  0  0  0  0  0  0  0  0  0  0
    4.1609   -0.6843    3.5160 C   0  0  0  0  0  0  0  0  0  0  0  0
    3.2051   -0.3056    2.5941 C   0  0  0  0  0  0  0  0  0  0  0  0
    2.7616   -1.1789    1.5929 C   0  0  0  0  0  0  0  0  0  0  0  0
    3.3318   -2.4715    1.5452 C   0  0  0  0  0  0  0  0  0  0  0  0
    2.8448   -3.4553    0.4943 C   0  0  0  0  0  0  0  0  0  0  0  0
    3.7337   -4.7164    0.3483 C   0  0  2  0  0  0  0  0  0  0  0  0
    4.1193   -5.2323    1.6880 N   0  0  2  0  0  0  0  0  0  0  0  0
    2.9895   -5.7208    2.5188 C   0  0  0  0  0  0  0  0  0  0  0  0
    2.7991    0.9595    2.8449 O   0  0  0  0  0  0  0  0  0  0  0  0
    3.4540    1.3397    4.0237 C   0  0  0  0  0  0  0  0  0  0  0  0
    4.3829    0.3454    4.3776 O   0  0  0  0  0  0  0  0  0  0  0  0
    6.1676   -2.4557   -0.3364 C   0  0  1  0  0  0  0  0  0  0  0  0
    7.4766   -1.9275   -0.4057 O   0  0  0  0  0  0  0  0  0  0  0  0
    3.1426   -0.3181   -2.7596 H   0  0  0  0  0  0  0  0  0  0  0  0
    3.3626   -1.9544   -3.3525 H   0  0  0  0  0  0  0  0  0  0  0  0
    4.6160   -0.7370   -3.6337 H   0  0  0  0  0  0  0  0  0  0  0  0
    6.1769   -2.2781   -2.5183 H   0  0  0  0  0  0  0  0  0  0  0  0
    3.7658   -3.8041   -2.1778 H   0  0  0  0  0  0  0  0  0  0  0  0
    5.3267   -4.3711   -2.6693 H   0  0  0  0  0  0  0  0  0  0  0  0
    5.2878   -5.6320   -0.7894 H   0  0  0  0  0  0  0  0  0  0  0  0
    7.1114   -4.3583   -0.3276 H   0  0  0  0  0  0  0  0  0  0  0  0
    6.8729   -5.0985    1.7974 H   0  0  0  0  0  0  0  0  0  0  0  0
    6.9512   -3.3822    2.0790 H   0  0  0  0  0  0  0  0  0  0  0  0
    5.1830   -4.5901    3.3856 H   0  0  0  0  0  0  0  0  0  0  0  0
    5.4929   -2.2333    4.2210 H   0  0  0  0  0  0  0  0  0  0  0  0
    2.0061   -0.8628    0.8877 H   0  0  0  0  0  0  0  0  0  0  0  0
    1.8535   -3.7771    0.8151 H   0  0  0  0  0  0  0  0  0  0  0  0
    2.6814   -2.9437   -0.4533 H   0  0  0  0  0  0  0  0  0  0  0  0
    3.1147   -5.4714   -0.1389 H   0  0  0  0  0  0  0  0  0  0  0  0
    2.3356   -4.9086    2.8401 H   0  0  0  0  0  0  0  0  0  0  0  0
    3.3674   -6.2193    3.4132 H   0  0  0  0  0  0  0  0  0  0  0  0
    2.3898   -6.4454    1.9654 H   0  0  0  0  0  0  0  0  0  0  0  0
    3.9303    2.3134    3.9127 H   0  0  0  0  0  0  0  0  0  0  0  0
    2.7080    1.4082    4.8131 H   0  0  0  0  0  0  0  0  0  0  0  0
    5.6020   -1.8508    0.3685 H   0  0  0  0  0  0  0  0  0  0  0  0
    7.8684   -1.9601    0.4570 H   0  0  0  0  0  0  0  0  0  0  0  0
    4.7005   -6.0410    1.5187 H   0  0  0  0  0  0  0  0  0  0  0  0
  1  2  1  0
  1 24  1  0
  1 25  1  0
  1 26  1  0
  2  3  1  0
  3 22  1  0
  3  4  1  0
  3 27  1  6
  4  5  1  0
  4 28  1  0
  4 29  1  0
  5 16  1  0
  5  6  1  0
  5 30  1  6
  6  7  1  0
  6 22  1  0
  6 31  1  6
  7  8  1  0
  7 32  1  0
  7 33  1  0
  8 17  1  0
  8  9  1  0
  8 34  1  1
  9 14  2  0
  9 10  1  0
 10 11  2  0
 10 35  1  0
 11 21  1  0
 11 12  1  0
 12 13  2  0
 12 19  1  0
 13 14  1  0
 13 36  1  0
 14 15  1  0
 15 16  1  0
 15 37  1  0
 15 38  1  0
 16 17  1  0
 16 39  1  6
 17 18  1  0
 17 47  1  6
 18 40  1  0
 18 41  1  0
 18 42  1  0
 19 20  1  0
 20 21  1  0
 20 43  1  0
 20 44  1  0
 22 23  1  0
 22 45  1  1
 23 46  1  0
M  CHG  1  17   1
M  END
>  <i_m_ct_stereo_status>  (56) 
1

>  <s_m_source_file>  (56) 
/var/tmp/pbs.5076255.sched01/tmp7e7yg0hy/0s0dyhj_r.sdf

>  <i_m_source_file_index>  (56) 
26

>  <i_lp_mmshare_version>  (56) 
48012

>  <i_f3d_flags>  (56) 
0

>  <s_epik_input>  (56) 
W0NIM11PW0NASF0oW0NIMl0xKVtDQEhdKFtPSF0pW0NASF0oW0NASF0xMilbQ0gyXVtDQEhdM2M0YyhbQ0gyXVtDSF0yTjNbQ0gzXSlbY0hdYzVjKFtjSF00KU9bQ0gyXU81

>  <s_epik_cmdline>  (56) 
J2VwaWtfcHl0aG9uJywgJy1waHQnLCAnMi4wJywgJy1waCcsICc3LjAnLCAnLXRuJywgJzgnLCAnLW1hJywgJzIwMCcsICctaW1hZScsICc8aW5maWxlLm1hZT4nLCAnLW9tYWUnLCAnPG91dGZpbGUubWFlPic=

>  <r_lp_tautomer_probability>  (56) 
1

>  <r_epik_Ionization_Penalty>  (56) 
0.0146371

>  <r_epik_Ionization_Penalty_Charging>  (56) 
0.0146369

>  <r_epik_Ionization_Penalty_Neutral>  (56) 
1.58403e-07

>  <r_epik_State_Penalty>  (56) 
0.0114595

>  <r_epik_Charging_Adjusted_Penalty>  (56) 
0.0260964

>  <i_epik_Tot_Q>  (56) 
1

>  <i_epik_Tot_abs_Q>  (56) 
1

>  <s_epik_Chemistry_Notes>  (56) 
This compound contains an acetal/aminal-like group ( X-CH(R)-Y where X, Y are N, S, or O) that may be acid/base labile, releasing an aldehyde.

>  <s_lp_Force_Field>  (56) 
OPLS3e

>  <r_lp_Energy>  (56) 
52.294

>  <b_lp_Chiralities_Consistent>  (56) 
1

>  <s_lp_Variant>  (56) 
16:0-1

>  <s_i_glide_gridfile>  (56) 
pfpi4k_grid

>  <i_i_glide_lignum>  (56) 
26

>  <i_i_glide_rotatable_bonds>  (56) 
2

>  <r_i_docking_score>  (56) 
-3.2417

>  <r_i_glide_ligand_efficiency>  (56) 
-0.140943

>  <r_i_glide_ligand_efficiency_sa>  (56) 
-0.400824

>  <r_i_glide_ligand_efficiency_ln>  (56) 
-0.783872

>  <r_i_glide_gscore>  (56) 
-3.2417

>  <r_i_glide_lipo>  (56) 
-0.281978

>  <r_i_glide_hbond>  (56) 
0

>  <r_i_glide_metal>  (56) 
-0

>  <r_i_glide_rewards>  (56) 
-1.23827

>  <r_i_glide_evdw>  (56) 
-18.3854

>  <r_i_glide_ecoul>  (56) 
-5.30546

>  <r_i_glide_erotb>  (56) 
0

>  <r_i_glide_esite>  (56) 
-0.00636232

>  <r_i_glide_emodel>  (56) 
-28.4065

>  <r_i_glide_energy>  (56) 
-23.6909

>  <r_i_glide_einternal>  (56) 
0.383053

>  <r_i_glide_intrahb_reward>  (56) 
-0

>  <i_i_glide_confnum>  (56) 
2

>  <i_i_glide_posenum>  (56) 
16

>  <r_i_glide_eff_state_penalty>  (56) 
0

>  <ligand_id>  (56) 
16

>  <original_smiles>  (56) 
COC1CC2C(CC3c4cc5c(cc4CC2N3C)OCO5)C1O

>  <smiles>  (56) 
[H]OC1([H])C([H])(OC([H])([H])[H])C([H])([H])C2([H])C1([H])C([H])([H])C1([H])c3c([H])c4c(c([H])c3C([H])([H])C2([H])[N+]1([H])C([H])([H])[H])OC([H])([H])O4

$$$$
16:1:0
     RDKit          3D

 46 50  0  0  1  0  0  0  0  0999 V2000
    1.6353    0.6843    1.5871 C   0  0  0  0  0  0  0  0  0  0  0  0
    1.8953    0.4002    2.9581 O   0  0  0  0  0  0  0  0  0  0  0  0
    2.8950    1.2300    3.5271 C   0  0  2  0  0  0  0  0  0  0  0  0
    3.1143    0.8031    5.0045 C   0  0  0  0  0  0  0  0  0  0  0  0
    2.7289    2.0038    5.8917 C   0  0  1  0  0  0  0  0  0  0  0  0
    2.7987    3.2109    4.9450 C   0  0  2  0  0  0  0  0  0  0  0  0
    2.0012    4.4402    5.4237 C   0  0  0  0  0  0  0  0  0  0  0  0
    0.7157    4.0992    6.2108 C   0  0  1  0  0  0  0  0  0  0  0  0
   -0.3890    3.6237    5.2848 C   0  0  0  0  0  0  0  0  0  0  0  0
   -1.1036    4.5766    4.5364 C   0  0  0  0  0  0  0  0  0  0  0  0
   -2.1062    4.1288    3.6471 C   0  0  0  0  0  0  0  0  0  0  0  0
   -2.3561    2.7875    3.4943 C   0  0  0  0  0  0  0  0  0  0  0  0
   -1.6375    1.8005    4.1982 C   0  0  0  0  0  0  0  0  0  0  0  0
   -0.6435    2.2425    5.1162 C   0  0  0  0  0  0  0  0  0  0  0  0
    0.1635    1.2424    5.9082 C   0  0  0  0  0  0  0  0  0  0  0  0
    1.3825    1.8471    6.6647 C   0  0  2  0  0  0  0  0  0  0  0  0
    1.0756    3.1482    7.2699 N   0  0  0  0  0  0  0  0  0  0  0  0
    0.0770    3.0743    8.3273 C   0  0  0  0  0  0  0  0  0  0  0  0
   -3.3682    2.6306    2.6128 O   0  0  0  0  0  0  0  0  0  0  0  0
   -3.8715    3.9041    2.3500 C   0  0  0  0  0  0  0  0  0  0  0  0
   -2.9725    4.8436    2.8781 O   0  0  0  0  0  0  0  0  0  0  0  0
    2.4256    2.7015    3.5666 C   0  0  1  0  0  0  0  0  0  0  0  0
    3.0098    3.5366    2.5881 O   0  0  0  0  0  0  0  0  0  0  0  0
    0.8061    0.0505    1.2861 H   0  0  0  0  0  0  0  0  0  0  0  0
    2.5102    0.4870    0.9628 H   0  0  0  0  0  0  0  0  0  0  0  0
    1.3136    1.7119    1.4093 H   0  0  0  0  0  0  0  0  0  0  0  0
    3.8316    1.0880    2.9880 H   0  0  0  0  0  0  0  0  0  0  0  0
    2.5921   -0.1201    5.2583 H   0  0  0  0  0  0  0  0  0  0  0  0
    4.1777    0.5841    5.1495 H   0  0  0  0  0  0  0  0  0  0  0  0
    3.5006    2.1301    6.6492 H   0  0  0  0  0  0  0  0  0  0  0  0
    3.8533    3.5107    4.8883 H   0  0  0  0  0  0  0  0  0  0  0  0
    2.6425    5.0635    6.0450 H   0  0  0  0  0  0  0  0  0  0  0  0
    1.7313    5.0549    4.5622 H   0  0  0  0  0  0  0  0  0  0  0  0
    0.3765    5.0272    6.6799 H   0  0  0  0  0  0  0  0  0  0  0  0
   -0.9078    5.6187    4.6806 H   0  0  0  0  0  0  0  0  0  0  0  0
   -1.8527    0.7572    4.0552 H   0  0  0  0  0  0  0  0  0  0  0  0
   -0.5108    0.8016    6.6401 H   0  0  0  0  0  0  0  0  0  0  0  0
    0.4531    0.4304    5.2418 H   0  0  0  0  0  0  0  0  0  0  0  0
    1.6188    1.1505    7.4735 H   0  0  0  0  0  0  0  0  0  0  0  0
    0.4031    2.3777    9.1023 H   0  0  0  0  0  0  0  0  0  0  0  0
   -0.8979    2.7556    7.9619 H   0  0  0  0  0  0  0  0  0  0  0  0
   -0.0386    4.0513    8.7965 H   0  0  0  0  0  0  0  0  0  0  0  0
   -4.0663    4.0358    1.2924 H   0  0  0  0  0  0  0  0  0  0  0  0
   -4.8383    3.9955    2.8563 H   0  0  0  0  0  0  0  0  0  0  0  0
    1.3414    2.7350    3.4549 H   0  0  0  0  0  0  0  0  0  0  0  0
    3.9305    3.2916    2.4307 H   0  0  0  0  0  0  0  0  0  0  0  0
  1  2  1  0
  1 24  1  0
  1 25  1  0
  1 26  1  0
  2  3  1  0
  3 22  1  0
  3  4  1  0
  3 27  1  6
  4  5  1  0
  4 28  1  0
  4 29  1  0
  5 16  1  0
  5  6  1  0
  5 30  1  1
  6  7  1  0
  6 22  1  0
  6 31  1  6
  7  8  1  0
  7 32  1  0
  7 33  1  0
  8 17  1  0
  8  9  1  0
  8 34  1  1
  9 14  2  0
  9 10  1  0
 10 11  2  0
 10 35  1  0
 11 21  1  0
 11 12  1  0
 12 13  2  0
 12 19  1  0
 13 14  1  0
 13 36  1  0
 14 15  1  0
 15 16  1  0
 15 37  1  0
 15 38  1  0
 16 17  1  0
 16 39  1  1
 17 18  1  0
 18 40  1  0
 18 41  1  0
 18 42  1  0
 19 20  1  0
 20 21  1  0
 20 43  1  0
 20 44  1  0
 22 23  1  0
 22 45  1  1
 23 46  1  0
M  END
>  <i_m_ct_stereo_status>  (57) 
1

>  <s_m_source_file>  (57) 
/var/tmp/pbs.5076255.sched01/tmp7e7yg0hy/0s0dyhj_r.sdf

>  <i_m_source_file_index>  (57) 
27

>  <i_lp_mmshare_version>  (57) 
48012

>  <i_f3d_flags>  (57) 
0

>  <s_epik_input>  (57) 
W0NIM11PW0NASF0oW0NIMl0xKVtDQEhdKFtPSF0pW0NASF0oW0NASF0xMilbQ0gyXVtDQEhdM2M0YyhbQ0gyXVtDSF0yTjNbQ0gzXSlbY0hdYzVjKFtjSF00KU9bQ0gyXU81

>  <s_epik_cmdline>  (57) 
J2VwaWtfcHl0aG9uJywgJy1waHQnLCAnMi4wJywgJy1waCcsICc3LjAnLCAnLXRuJywgJzgnLCAnLW1hJywgJzIwMCcsICctaW1hZScsICc8aW5maWxlLm1hZT4nLCAnLW9tYWUnLCAnPG91dGZpbGUubWFlPic=

>  <r_lp_tautomer_probability>  (57) 
1

>  <r_epik_Ionization_Penalty>  (57) 
2.19996

>  <r_epik_Ionization_Penalty_Charging>  (57) 
0

>  <r_epik_Ionization_Penalty_Neutral>  (57) 
2.19996

>  <r_epik_State_Penalty>  (57) 
2.34338

>  <r_epik_Charging_Adjusted_Penalty>  (57) 
2.34338

>  <i_epik_Tot_Q>  (57) 
0

>  <i_epik_Tot_abs_Q>  (57) 
0

>  <s_epik_Chemistry_Notes>  (57) 
This compound contains an acetal/aminal-like group ( X-CH(R)-Y where X, Y are N, S, or O) that may be acid/base labile, releasing an aldehyde.

>  <s_lp_Force_Field>  (57) 
OPLS3e

>  <r_lp_Energy>  (57) 
46.883

>  <b_lp_Chiralities_Consistent>  (57) 
1

>  <s_lp_Variant>  (57) 
16:0-2

>  <s_i_glide_gridfile>  (57) 
pfpi4k_grid

>  <i_i_glide_lignum>  (57) 
27

>  <i_i_glide_rotatable_bonds>  (57) 
2

>  <r_i_docking_score>  (57) 
-2.94085

>  <r_i_glide_ligand_efficiency>  (57) 
-0.127863

>  <r_i_glide_ligand_efficiency_sa>  (57) 
-0.363626

>  <r_i_glide_ligand_efficiency_ln>  (57) 
-0.711125

>  <r_i_glide_gscore>  (57) 
-2.94085

>  <r_i_glide_lipo>  (57) 
0

>  <r_i_glide_hbond>  (57) 
-0.151334

>  <r_i_glide_metal>  (57) 
-0

>  <r_i_glide_rewards>  (57) 
-1.53036

>  <r_i_glide_evdw>  (57) 
-9.83378

>  <r_i_glide_ecoul>  (57) 
-5.11647

>  <r_i_glide_erotb>  (57) 
0

>  <r_i_glide_esite>  (57) 
0

>  <r_i_glide_emodel>  (57) 
-15.5162

>  <r_i_glide_energy>  (57) 
-14.9503

>  <r_i_glide_einternal>  (57) 
0.965

>  <r_i_glide_intrahb_reward>  (57) 
-0

>  <i_i_glide_confnum>  (57) 
1

>  <i_i_glide_posenum>  (57) 
21

>  <r_i_glide_eff_state_penalty>  (57) 
0

>  <ligand_id>  (57) 
16

>  <original_smiles>  (57) 
COC1CC2C(CC3c4cc5c(cc4CC2N3C)OCO5)C1O

>  <smiles>  (57) 
[H]OC1([H])C([H])(OC([H])([H])[H])C([H])([H])C2([H])C3([H])N(C([H])([H])[H])C([H])(c4c([H])c5c(c([H])c4C3([H])[H])OC([H])([H])O5)C([H])([H])C12[H]

$$$$
16:1:1
     RDKit          3D

 46 50  0  0  1  0  0  0  0  0999 V2000
    0.7200   -0.7078    3.5941 C   0  0  0  0  0  0  0  0  0  0  0  0
    1.1593    0.0767    4.6955 O   0  0  0  0  0  0  0  0  0  0  0  0
    2.3297    0.8377    4.4110 C   0  0  2  0  0  0  0  0  0  0  0  0
    2.8699    1.4635    5.7121 C   0  0  0  0  0  0  0  0  0  0  0  0
    2.8266    2.9945    5.5522 C   0  0  1  0  0  0  0  0  0  0  0  0
    2.7580    3.2102    4.0333 C   0  0  2  0  0  0  0  0  0  0  0  0
    2.2535    4.6096    3.6224 C   0  0  0  0  0  0  0  0  0  0  0  0
    1.1954    5.2086    4.5589 C   0  0  1  0  0  0  0  0  0  0  0  0
   -0.1559    4.5291    4.3554 C   0  0  0  0  0  0  0  0  0  0  0  0
   -0.9776    4.9448    3.2836 C   0  0  0  0  0  0  0  0  0  0  0  0
   -2.2043    4.3026    3.1385 C   0  0  0  0  0  0  0  0  0  0  0  0
   -2.5704    3.2546    3.9296 C   0  0  0  0  0  0  0  0  0  0  0  0
   -1.7768    2.7925    4.9838 C   0  0  0  0  0  0  0  0  0  0  0  0
   -0.5628    3.4682    5.2109 C   0  0  0  0  0  0  0  0  0  0  0  0
    0.3026    3.0873    6.3792 C   0  0  0  0  0  0  0  0  0  0  0  0
    1.7257    3.7216    6.3754 C   0  0  2  0  0  0  0  0  0  0  0  0
    1.7056    5.1237    5.9319 N   0  0  0  0  0  0  0  0  0  0  0  0
    0.9973    5.9955    6.8586 C   0  0  0  0  0  0  0  0  0  0  0  0
   -3.7912    2.8284    3.5589 O   0  0  0  0  0  0  0  0  0  0  0  0
   -4.2278    3.6530    2.5247 C   0  0  0  0  0  0  0  0  0  0  0  0
   -3.2319    4.6189    2.3072 O   0  0  0  0  0  0  0  0  0  0  0  0
    1.9830    2.0147    3.4761 C   0  0  1  0  0  0  0  0  0  0  0  0
    2.4248    1.7623    2.1671 O   0  0  0  0  0  0  0  0  0  0  0  0
   -0.2268   -1.1865    3.8493 H   0  0  0  0  0  0  0  0  0  0  0  0
    1.4536   -1.4837    3.3709 H   0  0  0  0  0  0  0  0  0  0  0  0
    0.5514   -0.1219    2.6902 H   0  0  0  0  0  0  0  0  0  0  0  0
    3.1154    0.1960    3.9977 H   0  0  0  0  0  0  0  0  0  0  0  0
    2.3412    1.0863    6.5897 H   0  0  0  0  0  0  0  0  0  0  0  0
    3.9059    1.1423    5.8315 H   0  0  0  0  0  0  0  0  0  0  0  0
    3.7805    3.3958    5.9125 H   0  0  0  0  0  0  0  0  0  0  0  0
    3.7771    3.1148    3.6603 H   0  0  0  0  0  0  0  0  0  0  0  0
    3.1072    5.2951    3.5742 H   0  0  0  0  0  0  0  0  0  0  0  0
    1.8409    4.5668    2.6140 H   0  0  0  0  0  0  0  0  0  0  0  0
    1.0639    6.2615    4.2819 H   0  0  0  0  0  0  0  0  0  0  0  0
   -0.6713    5.7386    2.6305 H   0  0  0  0  0  0  0  0  0  0  0  0
   -2.1248    2.0140    5.6394 H   0  0  0  0  0  0  0  0  0  0  0  0
   -0.2068    3.4127    7.2916 H   0  0  0  0  0  0  0  0  0  0  0  0
    0.3394    2.0035    6.4405 H   0  0  0  0  0  0  0  0  0  0  0  0
    2.0847    3.6848    7.4028 H   0  0  0  0  0  0  0  0  0  0  0  0
    1.4331    5.9205    7.8537 H   0  0  0  0  0  0  0  0  0  0  0  0
   -0.0640    5.7525    6.9270 H   0  0  0  0  0  0  0  0  0  0  0  0
    1.0931    7.0272    6.5307 H   0  0  0  0  0  0  0  0  0  0  0  0
   -4.4456    3.0440    1.6307 H   0  0  0  0  0  0  0  0  0  0  0  0
   -5.1492    4.1421    2.8305 H   0  0  0  0  0  0  0  0  0  0  0  0
    0.9036    2.1997    3.4555 H   0  0  0  0  0  0  0  0  0  0  0  0
    2.0088    2.3866    1.5863 H   0  0  0  0  0  0  0  0  0  0  0  0
  1  2  1  0
  1 24  1  0
  1 25  1  0
  1 26  1  0
  2  3  1  0
  3 22  1  0
  3  4  1  0
  3 27  1  6
  4  5  1  0
  4 28  1  0
  4 29  1  0
  5 16  1  0
  5  6  1  0
  5 30  1  1
  6  7  1  0
  6 22  1  0
  6 31  1  6
  7  8  1  0
  7 32  1  0
  7 33  1  0
  8 17  1  0
  8  9  1  0
  8 34  1  6
  9 14  2  0
  9 10  1  0
 10 11  2  0
 10 35  1  0
 11 21  1  0
 11 12  1  0
 12 13  2  0
 12 19  1  0
 13 14  1  0
 13 36  1  0
 14 15  1  0
 15 16  1  0
 15 37  1  0
 15 38  1  0
 16 17  1  0
 16 39  1  1
 17 18  1  0
 18 40  1  0
 18 41  1  0
 18 42  1  0
 19 20  1  0
 20 21  1  0
 20 43  1  0
 20 44  1  0
 22 23  1  0
 22 45  1  6
 23 46  1  0
M  END
>  <i_m_ct_stereo_status>  (58) 
1

>  <s_m_source_file>  (58) 
/var/tmp/pbs.5076255.sched01/tmp7e7yg0hy/0s0dyhj_r.sdf

>  <i_m_source_file_index>  (58) 
27

>  <i_lp_mmshare_version>  (58) 
48012

>  <i_f3d_flags>  (58) 
0

>  <s_epik_input>  (58) 
W0NIM11PW0NASF0oW0NIMl0xKVtDQEhdKFtPSF0pW0NASF0oW0NASF0xMilbQ0gyXVtDQEhdM2M0YyhbQ0gyXVtDSF0yTjNbQ0gzXSlbY0hdYzVjKFtjSF00KU9bQ0gyXU81

>  <s_epik_cmdline>  (58) 
J2VwaWtfcHl0aG9uJywgJy1waHQnLCAnMi4wJywgJy1waCcsICc3LjAnLCAnLXRuJywgJzgnLCAnLW1hJywgJzIwMCcsICctaW1hZScsICc8aW5maWxlLm1hZT4nLCAnLW9tYWUnLCAnPG91dGZpbGUubWFlPic=

>  <r_lp_tautomer_probability>  (58) 
1

>  <r_epik_Ionization_Penalty>  (58) 
2.19996

>  <r_epik_Ionization_Penalty_Charging>  (58) 
0

>  <r_epik_Ionization_Penalty_Neutral>  (58) 
2.19996

>  <r_epik_State_Penalty>  (58) 
2.34338

>  <r_epik_Charging_Adjusted_Penalty>  (58) 
2.34338

>  <i_epik_Tot_Q>  (58) 
0

>  <i_epik_Tot_abs_Q>  (58) 
0

>  <s_epik_Chemistry_Notes>  (58) 
This compound contains an acetal/aminal-like group ( X-CH(R)-Y where X, Y are N, S, or O) that may be acid/base labile, releasing an aldehyde.

>  <s_lp_Force_Field>  (58) 
OPLS3e

>  <r_lp_Energy>  (58) 
46.883

>  <b_lp_Chiralities_Consistent>  (58) 
1

>  <s_lp_Variant>  (58) 
16:0-2

>  <s_i_glide_gridfile>  (58) 
pfpi4k_grid

>  <i_i_glide_lignum>  (58) 
27

>  <i_i_glide_rotatable_bonds>  (58) 
2

>  <r_i_docking_score>  (58) 
-2.53513

>  <r_i_glide_ligand_efficiency>  (58) 
-0.110223

>  <r_i_glide_ligand_efficiency_sa>  (58) 
-0.31346

>  <r_i_glide_ligand_efficiency_ln>  (58) 
-0.613018

>  <r_i_glide_gscore>  (58) 
-2.53513

>  <r_i_glide_lipo>  (58) 
0

>  <r_i_glide_hbond>  (58) 
-0.00156565

>  <r_i_glide_metal>  (58) 
-0

>  <r_i_glide_rewards>  (58) 
-1.64291

>  <r_i_glide_evdw>  (58) 
-13.2359

>  <r_i_glide_ecoul>  (58) 
-1.52571

>  <r_i_glide_erotb>  (58) 
0

>  <r_i_glide_esite>  (58) 
0

>  <r_i_glide_emodel>  (58) 
-15.8318

>  <r_i_glide_energy>  (58) 
-14.7617

>  <r_i_glide_einternal>  (58) 
0.699234

>  <r_i_glide_intrahb_reward>  (58) 
-0

>  <i_i_glide_confnum>  (58) 
2

>  <i_i_glide_posenum>  (58) 
8

>  <r_i_glide_eff_state_penalty>  (58) 
0

>  <ligand_id>  (58) 
16

>  <original_smiles>  (58) 
COC1CC2C(CC3c4cc5c(cc4CC2N3C)OCO5)C1O

>  <smiles>  (58) 
[H]OC1([H])C([H])(OC([H])([H])[H])C([H])([H])C2([H])C3([H])N(C([H])([H])[H])C([H])(c4c([H])c5c(c([H])c4C3([H])[H])OC([H])([H])O5)C([H])([H])C12[H]

$$$$
16:1:2
     RDKit          3D

 46 50  0  0  1  0  0  0  0  0999 V2000
    1.8439    0.7540    1.5087 C   0  0  0  0  0  0  0  0  0  0  0  0
    2.0059    0.5033    2.8991 O   0  0  0  0  0  0  0  0  0  0  0  0
    2.9441    1.3775    3.5027 C   0  0  2  0  0  0  0  0  0  0  0  0
    3.1671    0.9099    4.9624 C   0  0  0  0  0  0  0  0  0  0  0  0
    2.7273    2.0630    5.8901 C   0  0  1  0  0  0  0  0  0  0  0  0
    2.7503    3.3003    4.9855 C   0  0  2  0  0  0  0  0  0  0  0  0
    1.9202    4.4880    5.4980 C   0  0  0  0  0  0  0  0  0  0  0  0
    0.6451    4.0706    6.2540 C   0  0  1  0  0  0  0  0  0  0  0  0
   -0.4213    3.5786    5.2887 C   0  0  0  0  0  0  0  0  0  0  0  0
   -1.1424    4.5350    4.5505 C   0  0  0  0  0  0  0  0  0  0  0  0
   -2.0984    4.0831    3.6217 C   0  0  0  0  0  0  0  0  0  0  0  0
   -2.3152    2.7329    3.4228 C   0  0  0  0  0  0  0  0  0  0  0  0
   -1.5893    1.7482    4.1265 C   0  0  0  0  0  0  0  0  0  0  0  0
   -0.6305    2.1954    5.0774 C   0  0  0  0  0  0  0  0  0  0  0  0
    0.1995    1.2023    5.8501 C   0  0  0  0  0  0  0  0  0  0  0  0
    1.3827    1.8333    6.6337 C   0  0  2  0  0  0  0  0  0  0  0  0
    1.0186    3.0978    7.2800 N   0  0  0  0  0  0  0  0  0  0  0  0
    0.0042    2.9553    8.3145 C   0  0  0  0  0  0  0  0  0  0  0  0
   -3.3169    2.5744    2.5295 O   0  0  0  0  0  0  0  0  0  0  0  0
   -3.8571    3.8354    2.3233 C   0  0  0  0  0  0  0  0  0  0  0  0
   -2.9755    4.7909    2.8384 O   0  0  0  0  0  0  0  0  0  0  0  0
    2.3759    2.8142    3.5981 C   0  0  1  0  0  0  0  0  0  0  0  0
    2.8894    3.7367    2.6737 O   0  0  0  0  0  0  0  0  0  0  0  0
    1.0438    0.1249    1.1393 H   0  0  0  0  0  0  0  0  0  0  0  0
    2.7603    0.5362    0.9549 H   0  0  0  0  0  0  0  0  0  0  0  0
    1.5406    1.7764    1.2780 H   0  0  0  0  0  0  0  0  0  0  0  0
    3.8988    1.2931    2.9879 H   0  0  0  0  0  0  0  0  0  0  0  0
    2.6824   -0.0434    5.1838 H   0  0  0  0  0  0  0  0  0  0  0  0
    4.2349    0.7311    5.1171 H   0  0  0  0  0  0  0  0  0  0  0  0
    3.4881    2.1968    6.6596 H   0  0  0  0  0  0  0  0  0  0  0  0
    3.7945    3.6294    4.9251 H   0  0  0  0  0  0  0  0  0  0  0  0
    2.5371    5.1003    6.1481 H   0  0  0  0  0  0  0  0  0  0  0  0
    1.6406    5.1213    4.6536 H   0  0  0  0  0  0  0  0  0  0  0  0
    0.2543    4.9714    6.7329 H   0  0  0  0  0  0  0  0  0  0  0  0
   -0.9505    5.5812    4.7355 H   0  0  0  0  0  0  0  0  0  0  0  0
   -1.7792    0.6956    3.9454 H   0  0  0  0  0  0  0  0  0  0  0  0
   -0.4723    0.7193    6.5494 H   0  0  0  0  0  0  0  0  0  0  0  0
    0.5239    0.4317    5.1576 H   0  0  0  0  0  0  0  0  0  0  0  0
    1.6322    1.1219    7.4224 H   0  0  0  0  0  0  0  0  0  0  0  0
    0.3440    2.2467    9.0717 H   0  0  0  0  0  0  0  0  0  0  0  0
   -0.9510    2.6143    7.9203 H   0  0  0  0  0  0  0  0  0  0  0  0
   -0.1544    3.9129    8.8128 H   0  0  0  0  0  0  0  0  0  0  0  0
   -4.1062    3.9884    1.2803 H   0  0  0  0  0  0  0  0  0  0  0  0
   -4.8111    3.8910    2.8457 H   0  0  0  0  0  0  0  0  0  0  0  0
    1.3052    2.7955    3.4553 H   0  0  0  0  0  0  0  0  0  0  0  0
    2.5120    3.5556    1.8245 H   0  0  0  0  0  0  0  0  0  0  0  0
  1  2  1  0
  1 24  1  0
  1 25  1  0
  1 26  1  0
  2  3  1  0
  3 22  1  0
  3  4  1  0
  3 27  1  6
  4  5  1  0
  4 28  1  0
  4 29  1  0
  5 16  1  0
  5  6  1  0
  5 30  1  1
  6  7  1  0
  6 22  1  0
  6 31  1  6
  7  8  1  0
  7 32  1  0
  7 33  1  0
  8 17  1  0
  8  9  1  0
  8 34  1  1
  9 14  2  0
  9 10  1  0
 10 11  2  0
 10 35  1  0
 11 21  1  0
 11 12  1  0
 12 13  2  0
 12 19  1  0
 13 14  1  0
 13 36  1  0
 14 15  1  0
 15 16  1  0
 15 37  1  0
 15 38  1  0
 16 17  1  0
 16 39  1  1
 17 18  1  0
 18 40  1  0
 18 41  1  0
 18 42  1  0
 19 20  1  0
 20 21  1  0
 20 43  1  0
 20 44  1  0
 22 23  1  0
 22 45  1  1
 23 46  1  0
M  END
>  <i_m_ct_stereo_status>  (59) 
1

>  <s_m_source_file>  (59) 
/var/tmp/pbs.5076255.sched01/tmp7e7yg0hy/0s0dyhj_r.sdf

>  <i_m_source_file_index>  (59) 
27

>  <i_lp_mmshare_version>  (59) 
48012

>  <i_f3d_flags>  (59) 
0

>  <s_epik_input>  (59) 
W0NIM11PW0NASF0oW0NIMl0xKVtDQEhdKFtPSF0pW0NASF0oW0NASF0xMilbQ0gyXVtDQEhdM2M0YyhbQ0gyXVtDSF0yTjNbQ0gzXSlbY0hdYzVjKFtjSF00KU9bQ0gyXU81

>  <s_epik_cmdline>  (59) 
J2VwaWtfcHl0aG9uJywgJy1waHQnLCAnMi4wJywgJy1waCcsICc3LjAnLCAnLXRuJywgJzgnLCAnLW1hJywgJzIwMCcsICctaW1hZScsICc8aW5maWxlLm1hZT4nLCAnLW9tYWUnLCAnPG91dGZpbGUubWFlPic=

>  <r_lp_tautomer_probability>  (59) 
1

>  <r_epik_Ionization_Penalty>  (59) 
2.19996

>  <r_epik_Ionization_Penalty_Charging>  (59) 
0

>  <r_epik_Ionization_Penalty_Neutral>  (59) 
2.19996

>  <r_epik_State_Penalty>  (59) 
2.34338

>  <r_epik_Charging_Adjusted_Penalty>  (59) 
2.34338

>  <i_epik_Tot_Q>  (59) 
0

>  <i_epik_Tot_abs_Q>  (59) 
0

>  <s_epik_Chemistry_Notes>  (59) 
This compound contains an acetal/aminal-like group ( X-CH(R)-Y where X, Y are N, S, or O) that may be acid/base labile, releasing an aldehyde.

>  <s_lp_Force_Field>  (59) 
OPLS3e

>  <r_lp_Energy>  (59) 
46.883

>  <b_lp_Chiralities_Consistent>  (59) 
1

>  <s_lp_Variant>  (59) 
16:0-2

>  <s_i_glide_gridfile>  (59) 
pfpi4k_grid

>  <i_i_glide_lignum>  (59) 
27

>  <i_i_glide_rotatable_bonds>  (59) 
2

>  <r_i_docking_score>  (59) 
-2.19648

>  <r_i_glide_ligand_efficiency>  (59) 
-0.0954991

>  <r_i_glide_ligand_efficiency_sa>  (59) 
-0.271587

>  <r_i_glide_ligand_efficiency_ln>  (59) 
-0.531129

>  <r_i_glide_gscore>  (59) 
-2.19648

>  <r_i_glide_lipo>  (59) 
0

>  <r_i_glide_hbond>  (59) 
-0.152649

>  <r_i_glide_metal>  (59) 
-0

>  <r_i_glide_rewards>  (59) 
-1.55824

>  <r_i_glide_evdw>  (59) 
-11.7449

>  <r_i_glide_ecoul>  (59) 
0.677729

>  <r_i_glide_erotb>  (59) 
0

>  <r_i_glide_esite>  (59) 
0

>  <r_i_glide_emodel>  (59) 
-11.1737

>  <r_i_glide_energy>  (59) 
-11.0672

>  <r_i_glide_einternal>  (59) 
1.13233

>  <r_i_glide_intrahb_reward>  (59) 
-0

>  <i_i_glide_confnum>  (59) 
1

>  <i_i_glide_posenum>  (59) 
19

>  <r_i_glide_eff_state_penalty>  (59) 
0

>  <ligand_id>  (59) 
16

>  <original_smiles>  (59) 
COC1CC2C(CC3c4cc5c(cc4CC2N3C)OCO5)C1O

>  <smiles>  (59) 
[H]OC1([H])C([H])(OC([H])([H])[H])C([H])([H])C2([H])C3([H])N(C([H])([H])[H])C([H])(c4c([H])c5c(c([H])c4C3([H])[H])OC([H])([H])O5)C([H])([H])C12[H]

$$$$
18:0:0
     RDKit          3D

 22 23  0  0  1  0  0  0  0  0999 V2000
    3.2468   -0.7578   -4.0118 C   0  0  0  0  0  0  0  0  0  0  0  0
    2.8692   -2.2408   -3.8779 C   0  0  0  0  0  0  0  0  0  0  0  0
    3.0075   -2.7866   -2.4448 C   0  0  0  0  0  0  0  0  0  0  0  0
    4.3825   -2.5603   -1.8375 C   0  0  0  0  0  0  0  0  0  0  0  0
    5.4350   -3.1937   -2.4105 N   0  0  0  0  0  0  0  0  0  0  0  0
    6.6591   -3.0159   -1.9072 C   0  0  0  0  0  0  0  0  0  0  0  0
    7.0438   -2.2571   -0.8742 N   0  0  0  0  0  0  0  0  0  0  0  0
    5.9737   -1.6473   -0.2941 C   0  0  0  0  0  0  0  0  0  0  0  0
    5.9550   -0.7919    0.7893 N   0  0  0  0  0  0  0  0  0  0  0  0
    4.6628   -0.4449    0.9528 C   0  0  0  0  0  0  0  0  0  0  0  0
    3.7977   -0.9714    0.0940 N   0  0  0  0  0  0  0  0  0  0  0  0
    4.6194   -1.7376   -0.7108 C   0  0  0  0  0  0  0  0  0  0  0  0
    6.7391   -0.4708    1.3421 H   0  0  0  0  0  0  0  0  0  0  0  0
    3.1271   -0.4175   -5.0401 H   0  0  0  0  0  0  0  0  0  0  0  0
    4.2829   -0.5752   -3.7269 H   0  0  0  0  0  0  0  0  0  0  0  0
    2.6150   -0.1363   -3.3740 H   0  0  0  0  0  0  0  0  0  0  0  0
    1.8435   -2.3956   -4.2183 H   0  0  0  0  0  0  0  0  0  0  0  0
    3.4977   -2.8344   -4.5409 H   0  0  0  0  0  0  0  0  0  0  0  0
    2.2590   -2.3174   -1.8086 H   0  0  0  0  0  0  0  0  0  0  0  0
    2.7909   -3.8535   -2.4336 H   0  0  0  0  0  0  0  0  0  0  0  0
    7.4542   -3.5411   -2.4151 H   0  0  0  0  0  0  0  0  0  0  0  0
    4.3325    0.2261    1.7303 H   0  0  0  0  0  0  0  0  0  0  0  0
  1  2  1  0
  1 14  1  0
  1 15  1  0
  1 16  1  0
  2  3  1  0
  2 17  1  0
  2 18  1  0
  3  4  1  0
  3 19  1  0
  3 20  1  0
  4 12  2  0
  4  5  1  0
  5  6  2  0
  6  7  1  0
  6 21  1  0
  7  8  2  0
  8 12  1  0
  8  9  1  0
  9 13  1  0
  9 10  1  0
 10 11  2  0
 10 22  1  0
 11 12  1  0
M  END
>  <i_m_ct_stereo_status>  (60) 
1

>  <s_m_source_file>  (60) 
/var/tmp/pbs.5076255.sched01/tmp7e7yg0hy/0s0dyhj_r.sdf

>  <i_m_source_file_index>  (60) 
29

>  <i_lp_mmshare_version>  (60) 
48012

>  <i_f3d_flags>  (60) 
0

>  <s_epik_input>  (60) 
W0NIM11bQ0gyXVtDSDJdYyhuW2NIXW4xKWMoYzEyKW5bY0hdW25IXTI=

>  <s_epik_cmdline>  (60) 
J2VwaWtfcHl0aG9uJywgJy1waHQnLCAnMi4wJywgJy1waCcsICc3LjAnLCAnLXRuJywgJzgnLCAnLW1hJywgJzIwMCcsICctaW1hZScsICc8aW5maWxlLm1hZT4nLCAnLW9tYWUnLCAnPG91dGZpbGUubWFlPic=

>  <r_lp_tautomer_probability>  (60) 
0.605878

>  <r_epik_Ionization_Penalty>  (60) 
0.00228581

>  <r_epik_Ionization_Penalty_Charging>  (60) 
0

>  <r_epik_Ionization_Penalty_Neutral>  (60) 
0.00228581

>  <r_epik_State_Penalty>  (60) 
0.289684

>  <r_epik_Charging_Adjusted_Penalty>  (60) 
0.289684

>  <i_epik_Tot_Q>  (60) 
0

>  <i_epik_Tot_abs_Q>  (60) 
0

>  <s_lp_Force_Field>  (60) 
OPLS3e

>  <r_lp_Energy>  (60) 
12.7951

>  <b_lp_Chiralities_Consistent>  (60) 
1

>  <s_lp_Variant>  (60) 
18:0-1

>  <s_i_glide_gridfile>  (60) 
pfpi4k_grid

>  <i_i_glide_lignum>  (60) 
29

>  <i_i_glide_rotatable_bonds>  (60) 
2

>  <r_i_docking_score>  (60) 
-4.71807

>  <r_i_glide_ligand_efficiency>  (60) 
-0.393173

>  <r_i_glide_ligand_efficiency_sa>  (60) 
-0.900141

>  <r_i_glide_ligand_efficiency_ln>  (60) 
-1.35386

>  <r_i_glide_gscore>  (60) 
-4.71807

>  <r_i_glide_lipo>  (60) 
-0.353457

>  <r_i_glide_hbond>  (60) 
-0.339992

>  <r_i_glide_metal>  (60) 
-0

>  <r_i_glide_rewards>  (60) 
-2.45693

>  <r_i_glide_evdw>  (60) 
-20.657

>  <r_i_glide_ecoul>  (60) 
-3.37985

>  <r_i_glide_erotb>  (60) 
0

>  <r_i_glide_esite>  (60) 
-0.0278654

>  <r_i_glide_emodel>  (60) 
-30.3687

>  <r_i_glide_energy>  (60) 
-24.0369

>  <r_i_glide_einternal>  (60) 
1.18827

>  <r_i_glide_intrahb_reward>  (60) 
-0

>  <i_i_glide_confnum>  (60) 
2

>  <i_i_glide_posenum>  (60) 
37

>  <r_i_glide_eff_state_penalty>  (60) 
0

>  <ligand_id>  (60) 
18

>  <original_smiles>  (60) 
CCCc1ncnc2[nH]cnc12

>  <smiles>  (60) 
[H]c1nc(C([H])([H])C([H])([H])C([H])([H])[H])c2nc([H])n([H])c2n1

$$$$
18:0:1
     RDKit          3D

 22 23  0  0  1  0  0  0  0  0999 V2000
    1.9051    1.2218    1.8829 C   0  0  0  0  0  0  0  0  0  0  0  0
    1.3591    0.5575    3.1557 C   0  0  0  0  0  0  0  0  0  0  0  0
    1.3378    1.4960    4.3740 C   0  0  0  0  0  0  0  0  0  0  0  0
    0.4986    2.7397    4.1477 C   0  0  0  0  0  0  0  0  0  0  0  0
   -0.8494    2.6242    4.2385 N   0  0  0  0  0  0  0  0  0  0  0  0
   -1.6156    3.6910    3.9792 C   0  0  0  0  0  0  0  0  0  0  0  0
   -1.2489    4.9395    3.6801 N   0  0  0  0  0  0  0  0  0  0  0  0
    0.1113    5.0398    3.6041 C   0  0  0  0  0  0  0  0  0  0  0  0
    0.8834    6.1437    3.2937 N   0  0  0  0  0  0  0  0  0  0  0  0
    2.1561    5.7157    3.3315 C   0  0  0  0  0  0  0  0  0  0  0  0
    2.3565    4.4398    3.6557 N   0  0  0  0  0  0  0  0  0  0  0  0
    1.0533    3.9949    3.8223 C   0  0  0  0  0  0  0  0  0  0  0  0
    0.5770    7.0715    2.9751 H   0  0  0  0  0  0  0  0  0  0  0  0
    1.8979    0.5263    1.0428 H   0  0  0  0  0  0  0  0  0  0  0  0
    2.9265    1.5728    2.0352 H   0  0  0  0  0  0  0  0  0  0  0  0
    1.2999    2.0810    1.5917 H   0  0  0  0  0  0  0  0  0  0  0  0
    0.3490    0.1946    2.9640 H   0  0  0  0  0  0  0  0  0  0  0  0
    1.9610   -0.3217    3.3910 H   0  0  0  0  0  0  0  0  0  0  0  0
    0.9488    0.9679    5.2436 H   0  0  0  0  0  0  0  0  0  0  0  0
    2.3564    1.7970    4.6253 H   0  0  0  0  0  0  0  0  0  0  0  0
   -2.6758    3.5199    4.0805 H   0  0  0  0  0  0  0  0  0  0  0  0
    2.9756    6.3733    3.1104 H   0  0  0  0  0  0  0  0  0  0  0  0
  1  2  1  0
  1 14  1  0
  1 15  1  0
  1 16  1  0
  2  3  1  0
  2 17  1  0
  2 18  1  0
  3  4  1  0
  3 19  1  0
  3 20  1  0
  4 12  2  0
  4  5  1  0
  5  6  2  0
  6  7  1  0
  6 21  1  0
  7  8  2  0
  8 12  1  0
  8  9  1  0
  9 13  1  0
  9 10  1  0
 10 11  2  0
 10 22  1  0
 11 12  1  0
M  END
>  <i_m_ct_stereo_status>  (61) 
1

>  <s_m_source_file>  (61) 
/var/tmp/pbs.5076255.sched01/tmp7e7yg0hy/0s0dyhj_r.sdf

>  <i_m_source_file_index>  (61) 
29

>  <i_lp_mmshare_version>  (61) 
48012

>  <i_f3d_flags>  (61) 
0

>  <s_epik_input>  (61) 
W0NIM11bQ0gyXVtDSDJdYyhuW2NIXW4xKWMoYzEyKW5bY0hdW25IXTI=

>  <s_epik_cmdline>  (61) 
J2VwaWtfcHl0aG9uJywgJy1waHQnLCAnMi4wJywgJy1waCcsICc3LjAnLCAnLXRuJywgJzgnLCAnLW1hJywgJzIwMCcsICctaW1hZScsICc8aW5maWxlLm1hZT4nLCAnLW9tYWUnLCAnPG91dGZpbGUubWFlPic=

>  <r_lp_tautomer_probability>  (61) 
0.605878

>  <r_epik_Ionization_Penalty>  (61) 
0.00228581

>  <r_epik_Ionization_Penalty_Charging>  (61) 
0

>  <r_epik_Ionization_Penalty_Neutral>  (61) 
0.00228581

>  <r_epik_State_Penalty>  (61) 
0.289684

>  <r_epik_Charging_Adjusted_Penalty>  (61) 
0.289684

>  <i_epik_Tot_Q>  (61) 
0

>  <i_epik_Tot_abs_Q>  (61) 
0

>  <s_lp_Force_Field>  (61) 
OPLS3e

>  <r_lp_Energy>  (61) 
12.7951

>  <b_lp_Chiralities_Consistent>  (61) 
1

>  <s_lp_Variant>  (61) 
18:0-1

>  <s_i_glide_gridfile>  (61) 
pfpi4k_grid

>  <i_i_glide_lignum>  (61) 
29

>  <i_i_glide_rotatable_bonds>  (61) 
2

>  <r_i_docking_score>  (61) 
-4.64106

>  <r_i_glide_ligand_efficiency>  (61) 
-0.386755

>  <r_i_glide_ligand_efficiency_sa>  (61) 
-0.885448

>  <r_i_glide_ligand_efficiency_ln>  (61) 
-1.33176

>  <r_i_glide_gscore>  (61) 
-4.64106

>  <r_i_glide_lipo>  (61) 
0

>  <r_i_glide_hbond>  (61) 
-0.314667

>  <r_i_glide_metal>  (61) 
-0

>  <r_i_glide_rewards>  (61) 
-2.25

>  <r_i_glide_evdw>  (61) 
-10.7239

>  <r_i_glide_ecoul>  (61) 
-8.27343

>  <r_i_glide_erotb>  (61) 
0

>  <r_i_glide_esite>  (61) 
-0.299188

>  <r_i_glide_emodel>  (61) 
-25.4258

>  <r_i_glide_energy>  (61) 
-18.9973

>  <r_i_glide_einternal>  (61) 
0.798039

>  <r_i_glide_intrahb_reward>  (61) 
-0

>  <i_i_glide_confnum>  (61) 
1

>  <i_i_glide_posenum>  (61) 
32

>  <r_i_glide_eff_state_penalty>  (61) 
0

>  <ligand_id>  (61) 
18

>  <original_smiles>  (61) 
CCCc1ncnc2[nH]cnc12

>  <smiles>  (61) 
[H]c1nc(C([H])([H])C([H])([H])C([H])([H])[H])c2nc([H])n([H])c2n1

$$$$
18:0:2
     RDKit          3D

 22 23  0  0  1  0  0  0  0  0999 V2000
   -2.7913    3.0699    6.5065 C   0  0  0  0  0  0  0  0  0  0  0  0
   -1.6806    2.4300    5.6648 C   0  0  0  0  0  0  0  0  0  0  0  0
   -1.5690    3.0397    4.2591 C   0  0  0  0  0  0  0  0  0  0  0  0
   -0.3521    2.5338    3.5079 C   0  0  0  0  0  0  0  0  0  0  0  0
   -0.4498    1.3567    2.8414 N   0  0  0  0  0  0  0  0  0  0  0  0
    0.6076    0.8979    2.1619 C   0  0  0  0  0  0  0  0  0  0  0  0
    1.8372    1.4131    2.0766 N   0  0  0  0  0  0  0  0  0  0  0  0
    1.9242    2.5980    2.7464 C   0  0  0  0  0  0  0  0  0  0  0  0
    3.0096    3.4430    2.8826 N   0  0  0  0  0  0  0  0  0  0  0  0
    2.5892    4.4589    3.6508 C   0  0  0  0  0  0  0  0  0  0  0  0
    1.3276    4.4017    4.0883 N   0  0  0  0  0  0  0  0  0  0  0  0
    0.8855    3.2229    3.5006 C   0  0  0  0  0  0  0  0  0  0  0  0
    3.9620    3.3239    2.4984 H   0  0  0  0  0  0  0  0  0  0  0  0
   -2.8375    2.6203    7.4984 H   0  0  0  0  0  0  0  0  0  0  0  0
   -3.7664    2.9481    6.0364 H   0  0  0  0  0  0  0  0  0  0  0  0
   -2.6139    4.1366    6.6421 H   0  0  0  0  0  0  0  0  0  0  0  0
   -0.7313    2.5539    6.1876 H   0  0  0  0  0  0  0  0  0  0  0  0
   -1.8504    1.3560    5.5816 H   0  0  0  0  0  0  0  0  0  0  0  0
   -2.4644    2.8091    3.6818 H   0  0  0  0  0  0  0  0  0  0  0  0
   -1.5091    4.1282    4.3197 H   0  0  0  0  0  0  0  0  0  0  0  0
    0.4532   -0.0362    1.6502 H   0  0  0  0  0  0  0  0  0  0  0  0
    3.2399    5.2681    3.9286 H   0  0  0  0  0  0  0  0  0  0  0  0
  1  2  1  0
  1 14  1  0
  1 15  1  0
  1 16  1  0
  2  3  1  0
  2 17  1  0
  2 18  1  0
  3  4  1  0
  3 19  1  0
  3 20  1  0
  4 12  2  0
  4  5  1  0
  5  6  2  0
  6  7  1  0
  6 21  1  0
  7  8  2  0
  8 12  1  0
  8  9  1  0
  9 13  1  0
  9 10  1  0
 10 11  2  0
 10 22  1  0
 11 12  1  0
M  END
>  <i_m_ct_stereo_status>  (62) 
1

>  <s_m_source_file>  (62) 
/var/tmp/pbs.5076255.sched01/tmp7e7yg0hy/0s0dyhj_r.sdf

>  <i_m_source_file_index>  (62) 
29

>  <i_lp_mmshare_version>  (62) 
48012

>  <i_f3d_flags>  (62) 
0

>  <s_epik_input>  (62) 
W0NIM11bQ0gyXVtDSDJdYyhuW2NIXW4xKWMoYzEyKW5bY0hdW25IXTI=

>  <s_epik_cmdline>  (62) 
J2VwaWtfcHl0aG9uJywgJy1waHQnLCAnMi4wJywgJy1waCcsICc3LjAnLCAnLXRuJywgJzgnLCAnLW1hJywgJzIwMCcsICctaW1hZScsICc8aW5maWxlLm1hZT4nLCAnLW9tYWUnLCAnPG91dGZpbGUubWFlPic=

>  <r_lp_tautomer_probability>  (62) 
0.605878

>  <r_epik_Ionization_Penalty>  (62) 
0.00228581

>  <r_epik_Ionization_Penalty_Charging>  (62) 
0

>  <r_epik_Ionization_Penalty_Neutral>  (62) 
0.00228581

>  <r_epik_State_Penalty>  (62) 
0.289684

>  <r_epik_Charging_Adjusted_Penalty>  (62) 
0.289684

>  <i_epik_Tot_Q>  (62) 
0

>  <i_epik_Tot_abs_Q>  (62) 
0

>  <s_lp_Force_Field>  (62) 
OPLS3e

>  <r_lp_Energy>  (62) 
12.7951

>  <b_lp_Chiralities_Consistent>  (62) 
1

>  <s_lp_Variant>  (62) 
18:0-1

>  <s_i_glide_gridfile>  (62) 
pfpi4k_grid

>  <i_i_glide_lignum>  (62) 
29

>  <i_i_glide_rotatable_bonds>  (62) 
2

>  <r_i_docking_score>  (62) 
-4.53769

>  <r_i_glide_ligand_efficiency>  (62) 
-0.378141

>  <r_i_glide_ligand_efficiency_sa>  (62) 
-0.865727

>  <r_i_glide_ligand_efficiency_ln>  (62) 
-1.3021

>  <r_i_glide_gscore>  (62) 
-4.53769

>  <r_i_glide_lipo>  (62) 
-0.183499

>  <r_i_glide_hbond>  (62) 
-0.32

>  <r_i_glide_metal>  (62) 
-0

>  <r_i_glide_rewards>  (62) 
-2.25

>  <r_i_glide_evdw>  (62) 
-13.9271

>  <r_i_glide_ecoul>  (62) 
-6.22127

>  <r_i_glide_erotb>  (62) 
0

>  <r_i_glide_esite>  (62) 
-0.154651

>  <r_i_glide_emodel>  (62) 
-26.7445

>  <r_i_glide_energy>  (62) 
-20.1483

>  <r_i_glide_einternal>  (62) 
0.197388

>  <r_i_glide_intrahb_reward>  (62) 
-0

>  <i_i_glide_confnum>  (62) 
1

>  <i_i_glide_posenum>  (62) 
33

>  <r_i_glide_eff_state_penalty>  (62) 
0

>  <ligand_id>  (62) 
18

>  <original_smiles>  (62) 
CCCc1ncnc2[nH]cnc12

>  <smiles>  (62) 
[H]c1nc(C([H])([H])C([H])([H])C([H])([H])[H])c2nc([H])n([H])c2n1

$$$$
18:1:0
     RDKit          3D

 22 23  0  0  1  0  0  0  0  0999 V2000
    4.1814   -0.8354   -4.0188 C   0  0  0  0  0  0  0  0  0  0  0  0
    3.4542   -2.1708   -3.8225 C   0  0  0  0  0  0  0  0  0  0  0  0
    4.3631   -3.2819   -3.2690 C   0  0  0  0  0  0  0  0  0  0  0  0
    4.7497   -3.0473   -1.8194 C   0  0  0  0  0  0  0  0  0  0  0  0
    3.7546   -2.9958   -0.9100 N   0  0  0  0  0  0  0  0  0  0  0  0
    4.0764   -2.7474    0.3617 C   0  0  0  0  0  0  0  0  0  0  0  0
    5.2850   -2.5643    0.9014 N   0  0  0  0  0  0  0  0  0  0  0  0
    6.2799   -2.6518    0.0170 C   0  0  0  0  0  0  0  0  0  0  0  0
    7.6304   -2.5142    0.2995 N   0  0  0  0  0  0  0  0  0  0  0  0
    8.1870   -2.6973   -0.8895 C   0  0  0  0  0  0  0  0  0  0  0  0
    7.3488   -2.9004   -1.9195 N   0  0  0  0  0  0  0  0  0  0  0  0
    6.0740   -2.8899   -1.3735 C   0  0  0  0  0  0  0  0  0  0  0  0
    7.6516   -3.0552   -2.8785 H   0  0  0  0  0  0  0  0  0  0  0  0
    3.5021   -0.0745   -4.4077 H   0  0  0  0  0  0  0  0  0  0  0  0
    5.0052   -0.9450   -4.7216 H   0  0  0  0  0  0  0  0  0  0  0  0
    4.5831   -0.4662   -3.0738 H   0  0  0  0  0  0  0  0  0  0  0  0
    2.5882   -2.0307   -3.1761 H   0  0  0  0  0  0  0  0  0  0  0  0
    3.0429   -2.5041   -4.7692 H   0  0  0  0  0  0  0  0  0  0  0  0
    3.8464   -4.2382   -3.3304 H   0  0  0  0  0  0  0  0  0  0  0  0
    5.2579   -3.3861   -3.8829 H   0  0  0  0  0  0  0  0  0  0  0  0
    3.2426   -2.6697    1.0449 H   0  0  0  0  0  0  0  0  0  0  0  0
    9.2520   -2.6629   -1.0233 H   0  0  0  0  0  0  0  0  0  0  0  0
  1  2  1  0
  1 14  1  0
  1 15  1  0
  1 16  1  0
  2  3  1  0
  2 17  1  0
  2 18  1  0
  3 19  1  0
  3 20  1  0
  3  4  1  0
  4  5  2  0
  4 12  1  0
  5  6  1  0
  6 21  1  0
  6  7  2  0
  7  8  1  0
  8  9  1  0
  8 12  2  0
  9 10  2  0
 10 22  1  0
 10 11  1  0
 11 13  1  0
 11 12  1  0
M  END
>  <i_m_ct_stereo_status>  (63) 
1

>  <s_m_source_file>  (63) 
/var/tmp/pbs.5076255.sched01/tmp7e7yg0hy/0s0dyhj_r.sdf

>  <i_m_source_file_index>  (63) 
30

>  <i_lp_mmshare_version>  (63) 
48012

>  <i_f3d_flags>  (63) 
0

>  <s_epik_input>  (63) 
W0NIM11bQ0gyXVtDSDJdYyhuW2NIXW4xKWMoYzEyKW5bY0hdW25IXTI=

>  <s_epik_cmdline>  (63) 
J2VwaWtfcHl0aG9uJywgJy1waHQnLCAnMi4wJywgJy1waCcsICc3LjAnLCAnLXRuJywgJzgnLCAnLW1hJywgJzIwMCcsICctaW1hZScsICc8aW5maWxlLm1hZT4nLCAnLW9tYWUnLCAnPG91dGZpbGUubWFlPic=

>  <r_lp_tautomer_probability>  (63) 
0.393285

>  <r_epik_Ionization_Penalty>  (63) 
0.00320502

>  <r_epik_Ionization_Penalty_Charging>  (63) 
0.000430852

>  <r_epik_Ionization_Penalty_Neutral>  (63) 
0.00277417

>  <r_epik_State_Penalty>  (63) 
0.562897

>  <r_epik_Charging_Adjusted_Penalty>  (63) 
0.563328

>  <i_epik_Tot_Q>  (63) 
0

>  <i_epik_Tot_abs_Q>  (63) 
0

>  <s_lp_Force_Field>  (63) 
OPLS3e

>  <r_lp_Energy>  (63) 
13.5135

>  <b_lp_Chiralities_Consistent>  (63) 
1

>  <s_lp_Variant>  (63) 
18:0-2

>  <s_i_glide_gridfile>  (63) 
pfpi4k_grid

>  <i_i_glide_lignum>  (63) 
30

>  <i_i_glide_rotatable_bonds>  (63) 
2

>  <r_i_docking_score>  (63) 
-5.49916

>  <r_i_glide_ligand_efficiency>  (63) 
-0.458263

>  <r_i_glide_ligand_efficiency_sa>  (63) 
-1.04916

>  <r_i_glide_ligand_efficiency_ln>  (63) 
-1.57799

>  <r_i_glide_gscore>  (63) 
-5.49916

>  <r_i_glide_lipo>  (63) 
-0.469768

>  <r_i_glide_hbond>  (63) 
-0.32

>  <r_i_glide_metal>  (63) 
-0

>  <r_i_glide_rewards>  (63) 
-3.04689

>  <r_i_glide_evdw>  (63) 
-17.9645

>  <r_i_glide_ecoul>  (63) 
-4.40475

>  <r_i_glide_erotb>  (63) 
0

>  <r_i_glide_esite>  (63) 
-0.103565

>  <r_i_glide_emodel>  (63) 
-31.9001

>  <r_i_glide_energy>  (63) 
-22.3692

>  <r_i_glide_einternal>  (63) 
1.5549

>  <r_i_glide_intrahb_reward>  (63) 
-0

>  <i_i_glide_confnum>  (63) 
1

>  <i_i_glide_posenum>  (63) 
38

>  <r_i_glide_eff_state_penalty>  (63) 
0

>  <ligand_id>  (63) 
18

>  <original_smiles>  (63) 
CCCc1ncnc2[nH]cnc12

>  <smiles>  (63) 
[H]c1nc(C([H])([H])C([H])([H])C([H])([H])[H])c2c(n1)nc([H])n2[H]

$$$$
18:1:1
     RDKit          3D

 22 23  0  0  1  0  0  0  0  0999 V2000
    3.0152   -0.4527   -3.5596 C   0  0  0  0  0  0  0  0  0  0  0  0
    2.8223   -1.9157   -3.9662 C   0  0  0  0  0  0  0  0  0  0  0  0
    3.1319   -2.9428   -2.8688 C   0  0  0  0  0  0  0  0  0  0  0  0
    4.3771   -2.6280   -2.0580 C   0  0  0  0  0  0  0  0  0  0  0  0
    5.5651   -3.0748   -2.5080 N   0  0  0  0  0  0  0  0  0  0  0  0
    6.6584   -2.7552   -1.8129 C   0  0  0  0  0  0  0  0  0  0  0  0
    6.7680   -1.9939   -0.7149 N   0  0  0  0  0  0  0  0  0  0  0  0
    5.5927   -1.5529   -0.2536 C   0  0  0  0  0  0  0  0  0  0  0  0
    5.4052   -0.7318    0.8509 N   0  0  0  0  0  0  0  0  0  0  0  0
    4.0887   -0.5542    0.8414 C   0  0  0  0  0  0  0  0  0  0  0  0
    3.4131   -1.1588   -0.1544 N   0  0  0  0  0  0  0  0  0  0  0  0
    4.3599   -1.8334   -0.8994 C   0  0  0  0  0  0  0  0  0  0  0  0
    2.4133   -1.0584   -0.3431 H   0  0  0  0  0  0  0  0  0  0  0  0
    2.7398    0.2327   -4.3636 H   0  0  0  0  0  0  0  0  0  0  0  0
    4.0461   -0.2386   -3.2874 H   0  0  0  0  0  0  0  0  0  0  0  0
    2.3816   -0.2446   -2.7010 H   0  0  0  0  0  0  0  0  0  0  0  0
    1.8007   -2.0914   -4.3180 H   0  0  0  0  0  0  0  0  0  0  0  0
    3.4579   -2.1094   -4.8228 H   0  0  0  0  0  0  0  0  0  0  0  0
    2.2905   -3.0560   -2.1854 H   0  0  0  0  0  0  0  0  0  0  0  0
    3.2683   -3.9043   -3.3608 H   0  0  0  0  0  0  0  0  0  0  0  0
    7.5823   -3.1599   -2.1957 H   0  0  0  0  0  0  0  0  0  0  0  0
    3.6008    0.0564    1.5811 H   0  0  0  0  0  0  0  0  0  0  0  0
  1  2  1  0
  1 14  1  0
  1 15  1  0
  1 16  1  0
  2  3  1  0
  2 17  1  0
  2 18  1  0
  3 19  1  0
  3 20  1  0
  3  4  1  0
  4  5  2  0
  4 12  1  0
  5  6  1  0
  6 21  1  0
  6  7  2  0
  7  8  1  0
  8  9  1  0
  8 12  2  0
  9 10  2  0
 10 22  1  0
 10 11  1  0
 11 13  1  0
 11 12  1  0
M  END
>  <i_m_ct_stereo_status>  (64) 
1

>  <s_m_source_file>  (64) 
/var/tmp/pbs.5076255.sched01/tmp7e7yg0hy/0s0dyhj_r.sdf

>  <i_m_source_file_index>  (64) 
30

>  <i_lp_mmshare_version>  (64) 
48012

>  <i_f3d_flags>  (64) 
0

>  <s_epik_input>  (64) 
W0NIM11bQ0gyXVtDSDJdYyhuW2NIXW4xKWMoYzEyKW5bY0hdW25IXTI=

>  <s_epik_cmdline>  (64) 
J2VwaWtfcHl0aG9uJywgJy1waHQnLCAnMi4wJywgJy1waCcsICc3LjAnLCAnLXRuJywgJzgnLCAnLW1hJywgJzIwMCcsICctaW1hZScsICc8aW5maWxlLm1hZT4nLCAnLW9tYWUnLCAnPG91dGZpbGUubWFlPic=

>  <r_lp_tautomer_probability>  (64) 
0.393285

>  <r_epik_Ionization_Penalty>  (64) 
0.00320502

>  <r_epik_Ionization_Penalty_Charging>  (64) 
0.000430852

>  <r_epik_Ionization_Penalty_Neutral>  (64) 
0.00277417

>  <r_epik_State_Penalty>  (64) 
0.562897

>  <r_epik_Charging_Adjusted_Penalty>  (64) 
0.563328

>  <i_epik_Tot_Q>  (64) 
0

>  <i_epik_Tot_abs_Q>  (64) 
0

>  <s_lp_Force_Field>  (64) 
OPLS3e

>  <r_lp_Energy>  (64) 
13.5135

>  <b_lp_Chiralities_Consistent>  (64) 
1

>  <s_lp_Variant>  (64) 
18:0-2

>  <s_i_glide_gridfile>  (64) 
pfpi4k_grid

>  <i_i_glide_lignum>  (64) 
30

>  <i_i_glide_rotatable_bonds>  (64) 
2

>  <r_i_docking_score>  (64) 
-5.21688

>  <r_i_glide_ligand_efficiency>  (64) 
-0.43474

>  <r_i_glide_ligand_efficiency_sa>  (64) 
-0.995306

>  <r_i_glide_ligand_efficiency_ln>  (64) 
-1.49699

>  <r_i_glide_gscore>  (64) 
-5.21688

>  <r_i_glide_lipo>  (64) 
-0.292075

>  <r_i_glide_hbond>  (64) 
-0.32

>  <r_i_glide_metal>  (64) 
-0

>  <r_i_glide_rewards>  (64) 
-2.36437

>  <r_i_glide_evdw>  (64) 
-19.2901

>  <r_i_glide_ecoul>  (64) 
-7.6181

>  <r_i_glide_erotb>  (64) 
0

>  <r_i_glide_esite>  (64) 
-0.13322

>  <r_i_glide_emodel>  (64) 
-35.4578

>  <r_i_glide_energy>  (64) 
-26.9082

>  <r_i_glide_einternal>  (64) 
2.18128

>  <r_i_glide_intrahb_reward>  (64) 
-0

>  <i_i_glide_confnum>  (64) 
1

>  <i_i_glide_posenum>  (64) 
21

>  <r_i_glide_eff_state_penalty>  (64) 
0

>  <ligand_id>  (64) 
18

>  <original_smiles>  (64) 
CCCc1ncnc2[nH]cnc12

>  <smiles>  (64) 
[H]c1nc(C([H])([H])C([H])([H])C([H])([H])[H])c2c(n1)nc([H])n2[H]

$$$$
18:1:2
     RDKit          3D

 22 23  0  0  1  0  0  0  0  0999 V2000
    1.8226   -3.7993   -1.8419 C   0  0  0  0  0  0  0  0  0  0  0  0
    2.2955   -3.2915   -3.2156 C   0  0  0  0  0  0  0  0  0  0  0  0
    3.1085   -1.9957   -3.1463 C   0  0  0  0  0  0  0  0  0  0  0  0
    4.3186   -2.0951   -2.2439 C   0  0  0  0  0  0  0  0  0  0  0  0
    5.4336   -2.6836   -2.7200 N   0  0  0  0  0  0  0  0  0  0  0  0
    6.4851   -2.7702   -1.9042 C   0  0  0  0  0  0  0  0  0  0  0  0
    6.6271   -2.3233   -0.6497 N   0  0  0  0  0  0  0  0  0  0  0  0
    5.5080   -1.7870   -0.1548 C   0  0  0  0  0  0  0  0  0  0  0  0
    5.3349   -1.3047    1.1319 N   0  0  0  0  0  0  0  0  0  0  0  0
    4.0720   -0.8930    1.0992 C   0  0  0  0  0  0  0  0  0  0  0  0
    3.4151   -1.0565   -0.0644 N   0  0  0  0  0  0  0  0  0  0  0  0
    4.3234   -1.6398   -0.9195 C   0  0  0  0  0  0  0  0  0  0  0  0
    2.4261   -0.8653   -0.2523 H   0  0  0  0  0  0  0  0  0  0  0  0
    1.2329   -4.7104   -1.9163 H   0  0  0  0  0  0  0  0  0  0  0  0
    1.1974   -3.0621   -1.3634 H   0  0  0  0  0  0  0  0  0  0  0  0
    2.6636   -4.0197   -1.1837 H   0  0  0  0  0  0  0  0  0  0  0  0
    2.8928   -4.0580   -3.7123 H   0  0  0  0  0  0  0  0  0  0  0  0
    1.4401   -3.1089   -3.8651 H   0  0  0  0  0  0  0  0  0  0  0  0
    3.4507   -1.7415   -4.1474 H   0  0  0  0  0  0  0  0  0  0  0  0
    2.4754   -1.1722   -2.8110 H   0  0  0  0  0  0  0  0  0  0  0  0
    7.3654   -3.2228   -2.3260 H   0  0  0  0  0  0  0  0  0  0  0  0
    3.6177   -0.4590    1.9721 H   0  0  0  0  0  0  0  0  0  0  0  0
  1  2  1  0
  1 14  1  0
  1 15  1  0
  1 16  1  0
  2  3  1  0
  2 17  1  0
  2 18  1  0
  3 19  1  0
  3 20  1  0
  3  4  1  0
  4  5  2  0
  4 12  1  0
  5  6  1  0
  6 21  1  0
  6  7  2  0
  7  8  1  0
  8  9  1  0
  8 12  2  0
  9 10  2  0
 10 22  1  0
 10 11  1  0
 11 13  1  0
 11 12  1  0
M  END
>  <i_m_ct_stereo_status>  (65) 
1

>  <s_m_source_file>  (65) 
/var/tmp/pbs.5076255.sched01/tmp7e7yg0hy/0s0dyhj_r.sdf

>  <i_m_source_file_index>  (65) 
30

>  <i_lp_mmshare_version>  (65) 
48012

>  <i_f3d_flags>  (65) 
0

>  <s_epik_input>  (65) 
W0NIM11bQ0gyXVtDSDJdYyhuW2NIXW4xKWMoYzEyKW5bY0hdW25IXTI=

>  <s_epik_cmdline>  (65) 
J2VwaWtfcHl0aG9uJywgJy1waHQnLCAnMi4wJywgJy1waCcsICc3LjAnLCAnLXRuJywgJzgnLCAnLW1hJywgJzIwMCcsICctaW1hZScsICc8aW5maWxlLm1hZT4nLCAnLW9tYWUnLCAnPG91dGZpbGUubWFlPic=

>  <r_lp_tautomer_probability>  (65) 
0.393285

>  <r_epik_Ionization_Penalty>  (65) 
0.00320502

>  <r_epik_Ionization_Penalty_Charging>  (65) 
0.000430852

>  <r_epik_Ionization_Penalty_Neutral>  (65) 
0.00277417

>  <r_epik_State_Penalty>  (65) 
0.562897

>  <r_epik_Charging_Adjusted_Penalty>  (65) 
0.563328

>  <i_epik_Tot_Q>  (65) 
0

>  <i_epik_Tot_abs_Q>  (65) 
0

>  <s_lp_Force_Field>  (65) 
OPLS3e

>  <r_lp_Energy>  (65) 
13.5135

>  <b_lp_Chiralities_Consistent>  (65) 
1

>  <s_lp_Variant>  (65) 
18:0-2

>  <s_i_glide_gridfile>  (65) 
pfpi4k_grid

>  <i_i_glide_lignum>  (65) 
30

>  <i_i_glide_rotatable_bonds>  (65) 
2

>  <r_i_docking_score>  (65) 
-4.67341

>  <r_i_glide_ligand_efficiency>  (65) 
-0.389451

>  <r_i_glide_ligand_efficiency_sa>  (65) 
-0.891619

>  <r_i_glide_ligand_efficiency_ln>  (65) 
-1.34104

>  <r_i_glide_gscore>  (65) 
-4.67341

>  <r_i_glide_lipo>  (65) 
-0.26796

>  <r_i_glide_hbond>  (65) 
-0.213354

>  <r_i_glide_metal>  (65) 
-0

>  <r_i_glide_rewards>  (65) 
-2.28387

>  <r_i_glide_evdw>  (65) 
-18.7176

>  <r_i_glide_ecoul>  (65) 
-5.7992

>  <r_i_glide_erotb>  (65) 
0

>  <r_i_glide_esite>  (65) 
-0.102461

>  <r_i_glide_emodel>  (65) 
-32.8677

>  <r_i_glide_energy>  (65) 
-24.5168

>  <r_i_glide_einternal>  (65) 
0.908745

>  <r_i_glide_intrahb_reward>  (65) 
-0

>  <i_i_glide_confnum>  (65) 
1

>  <i_i_glide_posenum>  (65) 
17

>  <r_i_glide_eff_state_penalty>  (65) 
0

>  <ligand_id>  (65) 
18

>  <original_smiles>  (65) 
CCCc1ncnc2[nH]cnc12

>  <smiles>  (65) 
[H]c1nc(C([H])([H])C([H])([H])C([H])([H])[H])c2c(n1)nc([H])n2[H]

$$$$
19:0:0
     RDKit          3D

 46 48  0  0  1  0  0  0  0  0999 V2000
   -0.3916   -1.8972    4.6617 C   0  0  0  0  0  0  0  0  0  0  0  0
    0.6946   -2.2713    5.6799 C   0  0  0  0  0  0  0  0  0  0  0  0
    0.7824   -3.6808    5.8388 O   0  0  0  0  0  0  0  0  0  0  0  0
   -0.0948   -4.3350    6.6242 C   0  0  0  0  0  0  0  0  0  0  0  0
   -1.0135   -3.8131    7.2598 O   0  0  0  0  0  0  0  0  0  0  0  0
    0.1707   -5.8389    6.6922 C   0  0  0  0  0  0  0  0  0  0  0  0
    0.1819   -6.5373    5.3153 C   0  0  2  0  0  0  0  0  0  0  0  0
   -1.1299   -6.4688    4.8019 O   0  0  0  0  0  0  0  0  0  0  0  0
   -1.1144   -7.0650    3.4297 O   0  0  0  0  0  0  0  0  0  0  0  0
   -1.2050   -8.4576    3.6193 C   0  0  1  0  0  0  0  0  0  0  0  0
   -1.6156   -9.1450    2.3113 C   0  0  0  0  0  0  0  0  0  0  0  0
    0.1208   -8.9398    4.2531 C   0  0  2  0  0  0  0  0  0  0  0  0
    0.6164   -8.0247    5.4347 C   0  0  1  0  0  0  0  0  0  0  0  0
    2.1670   -8.0921    5.6266 C   0  0  0  0  0  0  0  0  0  0  0  0
    2.8738   -8.5904    4.3600 C   0  0  2  0  0  0  0  0  0  0  0  0
    2.2661   -8.1148    3.0324 C   0  0  0  0  0  0  0  0  0  0  0  0
    1.2713   -9.2568    3.2729 C   0  0  1  0  0  0  0  0  0  0  0  0
    2.4865  -10.0146    3.8884 C   0  0  0  0  0  0  0  0  0  0  0  0
    3.4446  -10.7373    2.9164 C   0  0  0  0  0  0  0  0  0  0  0  0
    2.1948  -11.0630    4.9830 C   0  0  0  0  0  0  0  0  0  0  0  0
   -0.4412   -0.8177    4.5277 H   0  0  0  0  0  0  0  0  0  0  0  0
   -1.3751   -2.2354    4.9850 H   0  0  0  0  0  0  0  0  0  0  0  0
   -0.1851   -2.3452    3.6899 H   0  0  0  0  0  0  0  0  0  0  0  0
    1.6629   -1.9103    5.3326 H   0  0  0  0  0  0  0  0  0  0  0  0
    0.5102   -1.7905    6.6420 H   0  0  0  0  0  0  0  0  0  0  0  0
    1.1304   -5.9769    7.1908 H   0  0  0  0  0  0  0  0  0  0  0  0
   -0.5858   -6.2940    7.3341 H   0  0  0  0  0  0  0  0  0  0  0  0
    0.8335   -5.9932    4.6350 H   0  0  0  0  0  0  0  0  0  0  0  0
   -2.0071   -8.6353    4.3360 H   0  0  0  0  0  0  0  0  0  0  0  0
   -1.5556  -10.2295    2.3983 H   0  0  0  0  0  0  0  0  0  0  0  0
   -0.9855   -8.8301    1.4812 H   0  0  0  0  0  0  0  0  0  0  0  0
   -2.6422   -8.8978    2.0455 H   0  0  0  0  0  0  0  0  0  0  0  0
   -0.1646   -9.8913    4.6946 H   0  0  0  0  0  0  0  0  0  0  0  0
    0.1399   -8.4089    6.3396 H   0  0  0  0  0  0  0  0  0  0  0  0
    2.5753   -7.1243    5.9053 H   0  0  0  0  0  0  0  0  0  0  0  0
    2.4037   -8.7440    6.4668 H   0  0  0  0  0  0  0  0  0  0  0  0
    3.9592   -8.4599    4.3869 H   0  0  0  0  0  0  0  0  0  0  0  0
    1.8349   -7.1189    3.0418 H   0  0  0  0  0  0  0  0  0  0  0  0
    2.9037   -8.2253    2.1579 H   0  0  0  0  0  0  0  0  0  0  0  0
    0.9610   -9.7386    2.3437 H   0  0  0  0  0  0  0  0  0  0  0  0
    2.9790  -11.6308    2.4951 H   0  0  0  0  0  0  0  0  0  0  0  0
    4.3541  -11.0556    3.4301 H   0  0  0  0  0  0  0  0  0  0  0  0
    3.7652  -10.1313    2.0697 H   0  0  0  0  0  0  0  0  0  0  0  0
    1.7028  -11.9487    4.5781 H   0  0  0  0  0  0  0  0  0  0  0  0
    1.5443  -10.6909    5.7737 H   0  0  0  0  0  0  0  0  0  0  0  0
    3.1073  -11.3893    5.4847 H   0  0  0  0  0  0  0  0  0  0  0  0
  1  2  1  0
  1 21  1  0
  1 22  1  0
  1 23  1  0
  2  3  1  0
  2 24  1  0
  2 25  1  0
  3  4  1  0
  4  5  2  0
  4  6  1  0
  6  7  1  0
  6 26  1  0
  6 27  1  0
  7 13  1  0
  7  8  1  0
  7 28  1  6
  8  9  1  0
  9 10  1  0
 10 11  1  0
 10 12  1  0
 10 29  1  1
 11 30  1  0
 11 31  1  0
 11 32  1  0
 12 17  1  0
 12 13  1  0
 12 33  1  1
 13 14  1  0
 13 34  1  1
 14 15  1  0
 14 35  1  0
 14 36  1  0
 15 18  1  0
 15 16  1  0
 15 37  1  1
 16 17  1  0
 16 38  1  0
 16 39  1  0
 17 18  1  0
 17 40  1  6
 18 19  1  0
 18 20  1  0
 19 41  1  0
 19 42  1  0
 19 43  1  0
 20 44  1  0
 20 45  1  0
 20 46  1  0
M  END
>  <i_m_ct_stereo_status>  (66) 
1

>  <s_m_source_file>  (66) 
/var/tmp/pbs.5076255.sched01/tmp7e7yg0hy/0s0dyhj_r.sdf

>  <i_m_source_file_index>  (66) 
31

>  <i_lp_mmshare_version>  (66) 
48012

>  <i_f3d_flags>  (66) 
0

>  <s_epik_input>  (66) 
W0NIM11bQ0gyXU9DKD1PKVtDSDJdW0NASF0oT09bQ0BIXTFbQ0gzXSlbQ0BASF0oW0NAQEhdMTIpW0NIMl1bQ0BASF0zW0NIMl1bQ0BIXTJDMyhbQ0gzXSlbQ0gzXQ==

>  <s_epik_cmdline>  (66) 
J2VwaWtfcHl0aG9uJywgJy1waHQnLCAnMi4wJywgJy1waCcsICc3LjAnLCAnLXRuJywgJzgnLCAnLW1hJywgJzIwMCcsICctaW1hZScsICc8aW5maWxlLm1hZT4nLCAnLW9tYWUnLCAnPG91dGZpbGUubWFlPic=

>  <r_lp_tautomer_probability>  (66) 
1

>  <r_epik_Ionization_Penalty>  (66) 
0

>  <r_epik_Ionization_Penalty_Charging>  (66) 
0

>  <r_epik_Ionization_Penalty_Neutral>  (66) 
0

>  <r_epik_State_Penalty>  (66) 
-0

>  <r_epik_Charging_Adjusted_Penalty>  (66) 
0

>  <i_epik_Tot_Q>  (66) 
0

>  <i_epik_Tot_abs_Q>  (66) 
0

>  <s_epik_Chemistry_Notes>  (66) 
This compound has an ester and may undergo hydrolysis at high or low pH.

>  <s_lp_Force_Field>  (66) 
OPLS3e

>  <r_lp_Energy>  (66) 
33.9828

>  <b_lp_Chiralities_Consistent>  (66) 
1

>  <s_lp_Variant>  (66) 
19:0-1

>  <s_i_glide_gridfile>  (66) 
pfpi4k_grid

>  <i_i_glide_lignum>  (66) 
31

>  <i_i_glide_rotatable_bonds>  (66) 
4

>  <r_i_docking_score>  (66) 
-2.59233

>  <r_i_glide_ligand_efficiency>  (66) 
-0.129616

>  <r_i_glide_ligand_efficiency_sa>  (66) 
-0.351833

>  <r_i_glide_ligand_efficiency_ln>  (66) 
-0.648774

>  <r_i_glide_gscore>  (66) 
-2.59233

>  <r_i_glide_lipo>  (66) 
-0.268601

>  <r_i_glide_hbond>  (66) 
-0.0998537

>  <r_i_glide_metal>  (66) 
-0

>  <r_i_glide_rewards>  (66) 
-1.48381

>  <r_i_glide_evdw>  (66) 
-18.3396

>  <r_i_glide_ecoul>  (66) 
-3.30549

>  <r_i_glide_erotb>  (66) 
0.680724

>  <r_i_glide_esite>  (66) 
-0.00798459

>  <r_i_glide_emodel>  (66) 
-25.1726

>  <r_i_glide_energy>  (66) 
-21.6451

>  <r_i_glide_einternal>  (66) 
1.06901

>  <r_i_glide_intrahb_reward>  (66) 
-0

>  <i_i_glide_confnum>  (66) 
2

>  <i_i_glide_posenum>  (66) 
7

>  <r_i_glide_eff_state_penalty>  (66) 
0

>  <ligand_id>  (66) 
19

>  <original_smiles>  (66) 
CCOC(=O)CC1OOC(C)C2C1CC1CC2C1(C)C

>  <smiles>  (66) 
[H]C([H])([H])C([H])([H])OC(=O)C([H])([H])C1([H])OOC([H])(C([H])([H])[H])C2([H])C1([H])C([H])([H])C1([H])C([H])([H])C2([H])C1(C([H])([H])[H])C([H])([H])[H]

$$$$
19:0:1
     RDKit          3D

 46 48  0  0  1  0  0  0  0  0999 V2000
    3.6310   -0.8139   -4.2870 C   0  0  0  0  0  0  0  0  0  0  0  0
    3.4468   -0.6637   -2.7719 C   0  0  0  0  0  0  0  0  0  0  0  0
    3.6400   -1.9080   -2.1044 O   0  0  0  0  0  0  0  0  0  0  0  0
    4.8258   -2.2098   -1.5464 C   0  0  0  0  0  0  0  0  0  0  0  0
    5.8168   -1.4821   -1.5303 O   0  0  0  0  0  0  0  0  0  0  0  0
    4.8563   -3.6043   -0.9199 C   0  0  0  0  0  0  0  0  0  0  0  0
    4.3750   -3.6162    0.5462 C   0  0  2  0  0  0  0  0  0  0  0  0
    5.3831   -2.9598    1.2992 O   0  0  0  0  0  0  0  0  0  0  0  0
    4.8395   -2.9134    2.7485 O   0  0  0  0  0  0  0  0  0  0  0  0
    5.1877   -4.1736    3.2804 C   0  0  1  0  0  0  0  0  0  0  0  0
    5.1239   -4.1066    4.8178 C   0  0  0  0  0  0  0  0  0  0  0  0
    4.3052   -5.2380    2.6111 C   0  0  2  0  0  0  0  0  0  0  0  0
    4.1988   -5.0657    1.0697 C   0  0  1  0  0  0  0  0  0  0  0  0
    2.9036   -5.6867    0.4725 C   0  0  0  0  0  0  0  0  0  0  0  0
    1.8254   -5.7865    1.5385 C   0  0  2  0  0  0  0  0  0  0  0  0
    1.7537   -4.6674    2.5893 C   0  0  0  0  0  0  0  0  0  0  0  0
    2.9181   -5.4473    3.2166 C   0  0  1  0  0  0  0  0  0  0  0  0
    2.1293   -6.7120    2.7497 C   0  0  0  0  0  0  0  0  0  0  0  0
    0.9659   -7.2336    3.6146 C   0  0  0  0  0  0  0  0  0  0  0  0
    2.9482   -7.9903    2.4630 C   0  0  0  0  0  0  0  0  0  0  0  0
    3.4631    0.1378   -4.7892 H   0  0  0  0  0  0  0  0  0  0  0  0
    2.9242   -1.5334   -4.6959 H   0  0  0  0  0  0  0  0  0  0  0  0
    4.6339   -1.1491   -4.5307 H   0  0  0  0  0  0  0  0  0  0  0  0
    4.1069    0.1132   -2.3844 H   0  0  0  0  0  0  0  0  0  0  0  0
    2.4290   -0.3327   -2.5635 H   0  0  0  0  0  0  0  0  0  0  0  0
    4.2306   -4.2549   -1.5334 H   0  0  0  0  0  0  0  0  0  0  0  0
    5.8747   -3.9903   -0.9916 H   0  0  0  0  0  0  0  0  0  0  0  0
    3.4474   -3.0564    0.6232 H   0  0  0  0  0  0  0  0  0  0  0  0
    6.2164   -4.3858    3.0098 H   0  0  0  0  0  0  0  0  0  0  0  0
    5.2561   -5.0952    5.2621 H   0  0  0  0  0  0  0  0  0  0  0  0
    4.1771   -3.6978    5.1788 H   0  0  0  0  0  0  0  0  0  0  0  0
    5.9192   -3.4706    5.2156 H   0  0  0  0  0  0  0  0  0  0  0  0
    4.8427   -6.1602    2.8050 H   0  0  0  0  0  0  0  0  0  0  0  0
    5.0443   -5.6307    0.6436 H   0  0  0  0  0  0  0  0  0  0  0  0
    2.5086   -5.0733   -0.3392 H   0  0  0  0  0  0  0  0  0  0  0  0
    3.1263   -6.6551    0.0623 H   0  0  0  0  0  0  0  0  0  0  0  0
    0.8279   -6.0451    1.1548 H   0  0  0  0  0  0  0  0  0  0  0  0
    2.0456   -3.6935    2.2070 H   0  0  0  0  0  0  0  0  0  0  0  0
    0.8424   -4.6077    3.1769 H   0  0  0  0  0  0  0  0  0  0  0  0
    2.8603   -5.4005    4.3123 H   0  0  0  0  0  0  0  0  0  0  0  0
    1.3337   -7.6897    4.5349 H   0  0  0  0  0  0  0  0  0  0  0  0
    0.3870   -7.9907    3.0822 H   0  0  0  0  0  0  0  0  0  0  0  0
    0.2639   -6.4599    3.9135 H   0  0  0  0  0  0  0  0  0  0  0  0
    3.3496   -8.4422    3.3725 H   0  0  0  0  0  0  0  0  0  0  0  0
    3.8235   -7.8091    1.8194 H   0  0  0  0  0  0  0  0  0  0  0  0
    2.3669   -8.7521    1.9376 H   0  0  0  0  0  0  0  0  0  0  0  0
  1  2  1  0
  1 21  1  0
  1 22  1  0
  1 23  1  0
  2  3  1  0
  2 24  1  0
  2 25  1  0
  3  4  1  0
  4  5  2  0
  4  6  1  0
  6  7  1  0
  6 26  1  0
  6 27  1  0
  7 13  1  0
  7  8  1  0
  7 28  1  6
  8  9  1  0
  9 10  1  0
 10 11  1  0
 10 12  1  0
 10 29  1  1
 11 30  1  0
 11 31  1  0
 11 32  1  0
 12 17  1  0
 12 13  1  0
 12 33  1  6
 13 14  1  0
 13 34  1  6
 14 15  1  0
 14 35  1  0
 14 36  1  0
 15 18  1  0
 15 16  1  0
 15 37  1  6
 16 17  1  0
 16 38  1  0
 16 39  1  0
 17 18  1  0
 17 40  1  1
 18 19  1  0
 18 20  1  0
 19 41  1  0
 19 42  1  0
 19 43  1  0
 20 44  1  0
 20 45  1  0
 20 46  1  0
M  END
>  <i_m_ct_stereo_status>  (67) 
1

>  <s_m_source_file>  (67) 
/var/tmp/pbs.5076255.sched01/tmp7e7yg0hy/0s0dyhj_r.sdf

>  <i_m_source_file_index>  (67) 
31

>  <i_lp_mmshare_version>  (67) 
48012

>  <i_f3d_flags>  (67) 
0

>  <s_epik_input>  (67) 
W0NIM11bQ0gyXU9DKD1PKVtDSDJdW0NASF0oT09bQ0BIXTFbQ0gzXSlbQ0BASF0oW0NAQEhdMTIpW0NIMl1bQ0BASF0zW0NIMl1bQ0BIXTJDMyhbQ0gzXSlbQ0gzXQ==

>  <s_epik_cmdline>  (67) 
J2VwaWtfcHl0aG9uJywgJy1waHQnLCAnMi4wJywgJy1waCcsICc3LjAnLCAnLXRuJywgJzgnLCAnLW1hJywgJzIwMCcsICctaW1hZScsICc8aW5maWxlLm1hZT4nLCAnLW9tYWUnLCAnPG91dGZpbGUubWFlPic=

>  <r_lp_tautomer_probability>  (67) 
1

>  <r_epik_Ionization_Penalty>  (67) 
0

>  <r_epik_Ionization_Penalty_Charging>  (67) 
0

>  <r_epik_Ionization_Penalty_Neutral>  (67) 
0

>  <r_epik_State_Penalty>  (67) 
-0

>  <r_epik_Charging_Adjusted_Penalty>  (67) 
0

>  <i_epik_Tot_Q>  (67) 
0

>  <i_epik_Tot_abs_Q>  (67) 
0

>  <s_epik_Chemistry_Notes>  (67) 
This compound has an ester and may undergo hydrolysis at high or low pH.

>  <s_lp_Force_Field>  (67) 
OPLS3e

>  <r_lp_Energy>  (67) 
33.9828

>  <b_lp_Chiralities_Consistent>  (67) 
1

>  <s_lp_Variant>  (67) 
19:0-1

>  <s_i_glide_gridfile>  (67) 
pfpi4k_grid

>  <i_i_glide_lignum>  (67) 
31

>  <i_i_glide_rotatable_bonds>  (67) 
4

>  <r_i_docking_score>  (67) 
-2.36541

>  <r_i_glide_ligand_efficiency>  (67) 
-0.118271

>  <r_i_glide_ligand_efficiency_sa>  (67) 
-0.321036

>  <r_i_glide_ligand_efficiency_ln>  (67) 
-0.591985

>  <r_i_glide_gscore>  (67) 
-2.36541

>  <r_i_glide_lipo>  (67) 
-0.254751

>  <r_i_glide_hbond>  (67) 
-0.0762833

>  <r_i_glide_metal>  (67) 
-0

>  <r_i_glide_rewards>  (67) 
-1.48381

>  <r_i_glide_evdw>  (67) 
-18.7525

>  <r_i_glide_ecoul>  (67) 
-1.78424

>  <r_i_glide_erotb>  (67) 
0.680724

>  <r_i_glide_esite>  (67) 
-0.0260364

>  <r_i_glide_emodel>  (67) 
-23.3041

>  <r_i_glide_energy>  (67) 
-20.5367

>  <r_i_glide_einternal>  (67) 
1.49485

>  <r_i_glide_intrahb_reward>  (67) 
-0

>  <i_i_glide_confnum>  (67) 
2

>  <i_i_glide_posenum>  (67) 
1

>  <r_i_glide_eff_state_penalty>  (67) 
0

>  <ligand_id>  (67) 
19

>  <original_smiles>  (67) 
CCOC(=O)CC1OOC(C)C2C1CC1CC2C1(C)C

>  <smiles>  (67) 
[H]C([H])([H])C([H])([H])OC(=O)C([H])([H])C1([H])OOC([H])(C([H])([H])[H])C2([H])C1([H])C([H])([H])C1([H])C([H])([H])C2([H])C1(C([H])([H])[H])C([H])([H])[H]

$$$$
19:0:2
     RDKit          3D

 46 48  0  0  1  0  0  0  0  0999 V2000
    3.6725   -3.0115   -2.2880 C   0  0  0  0  0  0  0  0  0  0  0  0
    2.7714   -3.4937   -1.1518 C   0  0  0  0  0  0  0  0  0  0  0  0
    3.5427   -4.2284   -0.2102 O   0  0  0  0  0  0  0  0  0  0  0  0
    2.9766   -5.2512    0.4419 C   0  0  0  0  0  0  0  0  0  0  0  0
    1.8104   -5.6237    0.2870 O   0  0  0  0  0  0  0  0  0  0  0  0
    3.9444   -5.9465    1.4122 C   0  0  0  0  0  0  0  0  0  0  0  0
    3.3220   -7.0922    2.2423 C   0  0  2  0  0  0  0  0  0  0  0  0
    2.9432   -8.1162    1.3457 O   0  0  0  0  0  0  0  0  0  0  0  0
    2.4328   -9.2709    2.1538 O   0  0  0  0  0  0  0  0  0  0  0  0
    1.1097   -8.9495    2.5020 C   0  0  1  0  0  0  0  0  0  0  0  0
    0.3417  -10.2102    2.9267 C   0  0  0  0  0  0  0  0  0  0  0  0
    1.1486   -7.7984    3.5336 C   0  0  2  0  0  0  0  0  0  0  0  0
    2.1321   -6.6395    3.1463 C   0  0  1  0  0  0  0  0  0  0  0  0
    2.6831   -5.8597    4.3805 C   0  0  0  0  0  0  0  0  0  0  0  0
    2.5238   -6.6695    5.6688 C   0  0  2  0  0  0  0  0  0  0  0  0
    2.7674   -8.1782    5.5193 C   0  0  0  0  0  0  0  0  0  0  0  0
    1.3209   -8.1972    5.0096 C   0  0  1  0  0  0  0  0  0  0  0  0
    1.0714   -7.0558    6.0403 C   0  0  0  0  0  0  0  0  0  0  0  0
    0.7991   -7.4751    7.4973 C   0  0  0  0  0  0  0  0  0  0  0  0
   -0.0317   -6.0240    5.7164 C   0  0  0  0  0  0  0  0  0  0  0  0
    3.0921   -2.4333   -3.0079 H   0  0  0  0  0  0  0  0  0  0  0  0
    4.1194   -3.8555   -2.8139 H   0  0  0  0  0  0  0  0  0  0  0  0
    4.4730   -2.3808   -1.9028 H   0  0  0  0  0  0  0  0  0  0  0  0
    2.2994   -2.6526   -0.6414 H   0  0  0  0  0  0  0  0  0  0  0  0
    1.9713   -4.1020   -1.5800 H   0  0  0  0  0  0  0  0  0  0  0  0
    4.7870   -6.3326    0.8349 H   0  0  0  0  0  0  0  0  0  0  0  0
    4.3506   -5.1883    2.0831 H   0  0  0  0  0  0  0  0  0  0  0  0
    4.1192   -7.5178    2.8458 H   0  0  0  0  0  0  0  0  0  0  0  0
    0.6279   -8.5755    1.6006 H   0  0  0  0  0  0  0  0  0  0  0  0
   -0.6442   -9.9568    3.3166 H   0  0  0  0  0  0  0  0  0  0  0  0
    0.8752  -10.7725    3.6937 H   0  0  0  0  0  0  0  0  0  0  0  0
    0.1899  -10.8810    2.0801 H   0  0  0  0  0  0  0  0  0  0  0  0
    0.1463   -7.3884    3.4528 H   0  0  0  0  0  0  0  0  0  0  0  0
    1.5103   -5.9311    2.6017 H   0  0  0  0  0  0  0  0  0  0  0  0
    3.7242   -5.5782    4.2471 H   0  0  0  0  0  0  0  0  0  0  0  0
    2.1538   -4.9128    4.4679 H   0  0  0  0  0  0  0  0  0  0  0  0
    3.0643   -6.2416    6.5198 H   0  0  0  0  0  0  0  0  0  0  0  0
    3.5168   -8.4646    4.7841 H   0  0  0  0  0  0  0  0  0  0  0  0
    2.9415   -8.7210    6.4451 H   0  0  0  0  0  0  0  0  0  0  0  0
    0.7858   -9.1053    5.2986 H   0  0  0  0  0  0  0  0  0  0  0  0
   -0.1863   -7.9235    7.5967 H   0  0  0  0  0  0  0  0  0  0  0  0
    0.8485   -6.6132    8.1645 H   0  0  0  0  0  0  0  0  0  0  0  0
    1.5093   -8.2070    7.8831 H   0  0  0  0  0  0  0  0  0  0  0  0
   -1.0206   -6.4705    5.7690 H   0  0  0  0  0  0  0  0  0  0  0  0
    0.0462   -5.6037    4.7149 H   0  0  0  0  0  0  0  0  0  0  0  0
   -0.0004   -5.1758    6.4010 H   0  0  0  0  0  0  0  0  0  0  0  0
  1  2  1  0
  1 21  1  0
  1 22  1  0
  1 23  1  0
  2  3  1  0
  2 24  1  0
  2 25  1  0
  3  4  1  0
  4  5  2  0
  4  6  1  0
  6  7  1  0
  6 26  1  0
  6 27  1  0
  7 13  1  0
  7  8  1  0
  7 28  1  1
  8  9  1  0
  9 10  1  0
 10 11  1  0
 10 12  1  0
 10 29  1  6
 11 30  1  0
 11 31  1  0
 11 32  1  0
 12 17  1  0
 12 13  1  0
 12 33  1  1
 13 14  1  0
 13 34  1  6
 14 15  1  0
 14 35  1  0
 14 36  1  0
 15 18  1  0
 15 16  1  0
 15 37  1  1
 16 17  1  0
 16 38  1  0
 16 39  1  0
 17 18  1  0
 17 40  1  1
 18 19  1  0
 18 20  1  0
 19 41  1  0
 19 42  1  0
 19 43  1  0
 20 44  1  0
 20 45  1  0
 20 46  1  0
M  END
>  <i_m_ct_stereo_status>  (68) 
1

>  <s_m_source_file>  (68) 
/var/tmp/pbs.5076255.sched01/tmp7e7yg0hy/0s0dyhj_r.sdf

>  <i_m_source_file_index>  (68) 
31

>  <i_lp_mmshare_version>  (68) 
48012

>  <i_f3d_flags>  (68) 
0

>  <s_epik_input>  (68) 
W0NIM11bQ0gyXU9DKD1PKVtDSDJdW0NASF0oT09bQ0BIXTFbQ0gzXSlbQ0BASF0oW0NAQEhdMTIpW0NIMl1bQ0BASF0zW0NIMl1bQ0BIXTJDMyhbQ0gzXSlbQ0gzXQ==

>  <s_epik_cmdline>  (68) 
J2VwaWtfcHl0aG9uJywgJy1waHQnLCAnMi4wJywgJy1waCcsICc3LjAnLCAnLXRuJywgJzgnLCAnLW1hJywgJzIwMCcsICctaW1hZScsICc8aW5maWxlLm1hZT4nLCAnLW9tYWUnLCAnPG91dGZpbGUubWFlPic=

>  <r_lp_tautomer_probability>  (68) 
1

>  <r_epik_Ionization_Penalty>  (68) 
0

>  <r_epik_Ionization_Penalty_Charging>  (68) 
0

>  <r_epik_Ionization_Penalty_Neutral>  (68) 
0

>  <r_epik_State_Penalty>  (68) 
-0

>  <r_epik_Charging_Adjusted_Penalty>  (68) 
0

>  <i_epik_Tot_Q>  (68) 
0

>  <i_epik_Tot_abs_Q>  (68) 
0

>  <s_epik_Chemistry_Notes>  (68) 
This compound has an ester and may undergo hydrolysis at high or low pH.

>  <s_lp_Force_Field>  (68) 
OPLS3e

>  <r_lp_Energy>  (68) 
33.9828

>  <b_lp_Chiralities_Consistent>  (68) 
1

>  <s_lp_Variant>  (68) 
19:0-1

>  <s_i_glide_gridfile>  (68) 
pfpi4k_grid

>  <i_i_glide_lignum>  (68) 
31

>  <i_i_glide_rotatable_bonds>  (68) 
4

>  <r_i_docking_score>  (68) 
-2.25486

>  <r_i_glide_ligand_efficiency>  (68) 
-0.112743

>  <r_i_glide_ligand_efficiency_sa>  (68) 
-0.306031

>  <r_i_glide_ligand_efficiency_ln>  (68) 
-0.564316

>  <r_i_glide_gscore>  (68) 
-2.25486

>  <r_i_glide_lipo>  (68) 
-0.153684

>  <r_i_glide_hbond>  (68) 
-0.0816401

>  <r_i_glide_metal>  (68) 
-0

>  <r_i_glide_rewards>  (68) 
-1.48381

>  <r_i_glide_evdw>  (68) 
-16.578

>  <r_i_glide_ecoul>  (68) 
-2.38117

>  <r_i_glide_erotb>  (68) 
0.680724

>  <r_i_glide_esite>  (68) 
-0.0303738

>  <r_i_glide_emodel>  (68) 
-21.8151

>  <r_i_glide_energy>  (68) 
-18.9592

>  <r_i_glide_einternal>  (68) 
0.730735

>  <r_i_glide_intrahb_reward>  (68) 
-0

>  <i_i_glide_confnum>  (68) 
3

>  <i_i_glide_posenum>  (68) 
23

>  <r_i_glide_eff_state_penalty>  (68) 
0

>  <ligand_id>  (68) 
19

>  <original_smiles>  (68) 
CCOC(=O)CC1OOC(C)C2C1CC1CC2C1(C)C

>  <smiles>  (68) 
[H]C([H])([H])C([H])([H])OC(=O)C([H])([H])C1([H])OOC([H])(C([H])([H])[H])C2([H])C1([H])C([H])([H])C1([H])C([H])([H])C2([H])C1(C([H])([H])[H])C([H])([H])[H]

$$$$
20:0:0
     RDKit          3D

 82 88  0  0  1  0  0  0  0  0999 V2000
    5.6369    3.9293    6.4931 C   0  0  0  0  0  0  0  0  0  0  0  0
    4.7220    2.9428    6.5920 C   0  0  0  0  0  0  0  0  0  0  0  0
    4.6848    1.8450    7.5127 C   0  0  2  0  0  0  0  0  0  0  0  0
    4.8577    0.5137    6.5156 C   0  0  0  0  0  0  0  0  0  0  0  0
    4.4613    0.3008    4.8794 C   0  0  1  0  0  0  0  0  0  0  0  0
    4.7131   -1.2136    4.5554 C   0  0  0  0  0  0  0  0  0  0  0  0
    5.1041   -1.5280    3.1727 N   0  0  0  0  0  0  0  0  0  0  0  0
    4.3429   -2.1410    2.2481 C   0  0  0  0  0  0  0  0  0  0  0  0
    3.1899   -2.5245    2.4718 O   0  0  0  0  0  0  0  0  0  0  0  0
    4.9813   -2.3758    0.9026 C   0  0  0  0  0  0  0  0  0  0  0  0
    6.1115   -1.6311    0.4780 C   0  0  0  0  0  0  0  0  0  0  0  0
    6.7055   -1.8608   -0.7232 N   0  0  0  0  0  0  0  0  0  0  0  0
    6.1463   -2.8028   -1.5056 C   0  0  0  0  0  0  0  0  0  0  0  0
    5.0023   -3.5166   -1.1072 C   0  0  0  0  0  0  0  0  0  0  0  0
    4.4194   -3.3028    0.0938 N   0  0  0  0  0  0  0  0  0  0  0  0
    3.2088    0.9128    3.9592 C   0  0  0  0  0  0  0  0  0  0  0  0
    3.1973    0.5311    2.7958 O   0  0  0  0  0  0  0  0  0  0  0  0
    2.0519    2.0974    4.4195 C   0  0  1  0  0  0  0  0  0  0  0  0
    1.0711    2.2496    3.2346 C   0  0  1  0  0  0  0  0  0  0  0  0
    1.6465    2.5476    1.9881 O   0  0  0  0  0  0  0  0  0  0  0  0
    0.2749    0.9043    3.2745 C   0  0  0  0  0  0  0  0  0  0  0  0
    0.5044    0.2656    4.7080 C   0  0  2  0  0  0  0  0  0  0  0  0
   -0.7831   -0.2658    5.4174 C   0  0  1  0  0  0  0  0  0  0  0  0
   -1.7809   -0.9435    4.4680 C   0  0  0  0  0  0  0  0  0  0  0  0
   -0.3923   -1.3833    6.4320 C   0  0  0  0  0  0  0  0  0  0  0  0
   -0.1504   -1.0981    7.6333 O   0  0  0  0  0  0  0  0  0  0  0  0
   -0.3932   -2.5624    6.0442 O   0  0  0  0  0  0  0  0  0  0  0  0
   -1.4067    1.0424    5.9806 C   0  0  1  0  0  0  0  0  0  0  0  0
   -1.9946    1.0066    7.2649 O   0  0  0  0  0  0  0  0  0  0  0  0
   -0.3470    2.1616    5.8136 C   0  0  1  0  0  0  0  0  0  0  0  0
   -0.5959    3.2353    6.6837 O   0  0  0  0  0  0  0  0  0  0  0  0
    1.0822    1.5038    5.4840 C   0  0  2  0  0  0  0  0  0  0  0  0
    2.2765    1.4925    6.4805 C   0  0  1  0  0  0  0  0  0  0  0  0
    3.4413    2.6365    5.8611 C   0  0  1  0  0  0  0  0  0  0  0  0
    2.6191    3.4888    5.1159 C   0  0  1  0  0  0  0  0  0  0  0  0
    3.2416    4.4431    4.0582 C   0  0  0  0  0  0  0  0  0  0  0  0
    2.2347    4.2629    6.4917 C   0  0  0  0  0  0  0  0  0  0  0  0
    2.7414    3.8110    8.0036 C   0  0  0  0  0  0  0  0  0  0  0  0
    3.3354    2.3072    8.3376 C   0  0  1  0  0  0  0  0  0  0  0  0
    2.2124    1.3366    8.0424 C   0  0  0  0  0  0  0  0  0  0  0  0
    0.9210    1.7021    8.8264 C   0  0  0  0  0  0  0  0  0  0  0  0
    2.6091   -0.0745    8.6033 C   0  0  0  0  0  0  0  0  0  0  0  0
    5.5601    4.7176    5.7607 H   0  0  0  0  0  0  0  0  0  0  0  0
    6.4880    3.9571    7.1655 H   0  0  0  0  0  0  0  0  0  0  0  0
    5.5345    1.9061    8.1956 H   0  0  0  0  0  0  0  0  0  0  0  0
    5.9392    0.3992    6.5072 H   0  0  0  0  0  0  0  0  0  0  0  0
    4.5719   -0.3895    7.0463 H   0  0  0  0  0  0  0  0  0  0  0  0
    5.3008    0.7950    4.3911 H   0  0  0  0  0  0  0  0  0  0  0  0
    5.5434   -1.5684    5.1699 H   0  0  0  0  0  0  0  0  0  0  0  0
    3.8489   -1.8092    4.8594 H   0  0  0  0  0  0  0  0  0  0  0  0
    6.0328   -1.2548    2.8875 H   0  0  0  0  0  0  0  0  0  0  0  0
    6.5631   -0.8583    1.0744 H   0  0  0  0  0  0  0  0  0  0  0  0
    6.6195   -2.9901   -2.4632 H   0  0  0  0  0  0  0  0  0  0  0  0
    4.5554   -4.2676   -1.7423 H   0  0  0  0  0  0  0  0  0  0  0  0
    0.4376    3.1274    3.3734 H   0  0  0  0  0  0  0  0  0  0  0  0
    1.0546    3.1363    1.4990 H   0  0  0  0  0  0  0  0  0  0  0  0
   -0.7600    1.1552    3.0576 H   0  0  0  0  0  0  0  0  0  0  0  0
    0.5816    0.2107    2.4868 H   0  0  0  0  0  0  0  0  0  0  0  0
    1.2111   -0.5681    4.6264 H   0  0  0  0  0  0  0  0  0  0  0  0
   -2.1695   -0.2779    3.7017 H   0  0  0  0  0  0  0  0  0  0  0  0
   -2.6286   -1.3416    5.0174 H   0  0  0  0  0  0  0  0  0  0  0  0
   -1.3005   -1.7683    3.9558 H   0  0  0  0  0  0  0  0  0  0  0  0
   -2.2344    1.3435    5.3406 H   0  0  0  0  0  0  0  0  0  0  0  0
   -2.1019    1.9188    7.5310 H   0  0  0  0  0  0  0  0  0  0  0  0
   -0.7076    2.6524    4.9181 H   0  0  0  0  0  0  0  0  0  0  0  0
   -0.3042    2.9806    7.5509 H   0  0  0  0  0  0  0  0  0  0  0  0
    2.5202    0.4585    6.3001 H   0  0  0  0  0  0  0  0  0  0  0  0
    4.2225    2.5726    5.1082 H   0  0  0  0  0  0  0  0  0  0  0  0
    3.8957    5.2075    4.4789 H   0  0  0  0  0  0  0  0  0  0  0  0
    2.4442    4.9711    3.5331 H   0  0  0  0  0  0  0  0  0  0  0  0
    3.8041    3.9021    3.2969 H   0  0  0  0  0  0  0  0  0  0  0  0
    2.7623    5.2153    6.3928 H   0  0  0  0  0  0  0  0  0  0  0  0
    1.2207    4.6432    6.4720 H   0  0  0  0  0  0  0  0  0  0  0  0
    3.5140    4.5219    8.2990 H   0  0  0  0  0  0  0  0  0  0  0  0
    1.9551    4.0795    8.7014 H   0  0  0  0  0  0  0  0  0  0  0  0
    3.5542    2.2774    9.4043 H   0  0  0  0  0  0  0  0  0  0  0  0
    1.1108    1.6549    9.8998 H   0  0  0  0  0  0  0  0  0  0  0  0
    0.1132    1.0111    8.6376 H   0  0  0  0  0  0  0  0  0  0  0  0
    0.5235    2.6869    8.6591 H   0  0  0  0  0  0  0  0  0  0  0  0
    1.9764   -0.3738    9.4357 H   0  0  0  0  0  0  0  0  0  0  0  0
    3.6222   -0.0993    9.0144 H   0  0  0  0  0  0  0  0  0  0  0  0
    2.5194   -0.8889    7.8823 H   0  0  0  0  0  0  0  0  0  0  0  0
  1  2  2  0
  1 43  1  0
  1 44  1  0
  2 34  1  0
  2  3  1  0
  3 39  1  0
  3  4  1  0
  3 45  1  1
  4  5  1  0
  4 46  1  0
  4 47  1  0
  5  6  1  0
  5 16  1  0
  5 48  1  6
  6  7  1  0
  6 49  1  0
  6 50  1  0
  7  8  1  0
  7 51  1  0
  8  9  2  0
  8 10  1  0
 10 15  1  0
 10 11  2  0
 11 12  1  0
 11 52  1  0
 12 13  2  0
 13 14  1  0
 13 53  1  0
 14 15  2  0
 14 54  1  0
 16 17  2  0
 18 16  1  6
 32 18  1  6
 18 35  1  0
 18 19  1  0
 19 20  1  0
 19 21  1  0
 19 55  1  1
 20 56  1  0
 21 22  1  0
 21 57  1  0
 21 58  1  0
 22 32  1  0
 22 23  1  0
 22 59  1  6
 23 24  1  6
 23 25  1  0
 23 28  1  0
 24 60  1  0
 24 61  1  0
 24 62  1  0
 25 26  2  0
 25 27  1  0
 28 29  1  0
 28 30  1  0
 28 63  1  6
 29 64  1  0
 30 31  1  0
 30 32  1  0
 30 65  1  6
 31 66  1  0
 32 33  1  0
 33 40  1  0
 33 34  1  0
 33 67  1  6
 34 35  1  0
 34 68  1  6
 35 36  1  6
 35 37  1  0
 36 69  1  0
 36 70  1  0
 36 71  1  0
 37 38  1  0
 37 72  1  0
 37 73  1  0
 38 39  1  0
 38 74  1  0
 38 75  1  0
 39 40  1  0
 39 76  1  1
 40 41  1  0
 40 42  1  0
 41 77  1  0
 41 78  1  0
 41 79  1  0
 42 80  1  0
 42 81  1  0
 42 82  1  0
M  CHG  1  27  -1
M  END
>  <i_m_ct_stereo_status>  (69) 
1

>  <s_m_source_file>  (69) 
/var/tmp/pbs.5076255.sched01/tmp7e7yg0hy/0s0dyhj_r.sdf

>  <i_m_source_file_index>  (69) 
32

>  <i_lp_mmshare_version>  (69) 
48012

>  <i_f3d_flags>  (69) 
0

>  <s_epik_input>  (69) 
bjFbY0hdW2NIXW5bY0hdYzFDKD1PKVtOSF1bQ0gyXVtDQEBIXShDMj1PKVtDSDJdW0NAQEhdKEMzPVtDSDJdKVtDQEhdKEM0KFtDSDNdKVtDSDNdKVtDSDJdW0NIMl1bQ0BAXTUoW0NIM10pW0NAQEhdM1tDQEBIXTRbQ0BAXTYoW0NAXTI1NylbQ0BIXShbQ0gyXVtDQEBIXTdbT0hdKVtDQEBdKFtDSDNdKShDKD1PKVtPSF0pW0NAQEhdKFtPSF0pW0NASF02W09IXQ==

>  <s_epik_cmdline>  (69) 
J2VwaWtfcHl0aG9uJywgJy1waHQnLCAnMi4wJywgJy1waCcsICc3LjAnLCAnLXRuJywgJzgnLCAnLW1hJywgJzIwMCcsICctaW1hZScsICc8aW5maWxlLm1hZT4nLCAnLW9tYWUnLCAnPG91dGZpbGUubWFlPic=

>  <r_lp_tautomer_probability>  (69) 
0.99995

>  <r_epik_Ionization_Penalty>  (69) 
0.00201189

>  <r_epik_Ionization_Penalty_Charging>  (69) 
0.00200815

>  <r_epik_Ionization_Penalty_Neutral>  (69) 
3.74343e-06

>  <r_epik_State_Penalty>  (69) 
0.00137214

>  <r_epik_Charging_Adjusted_Penalty>  (69) 
0.00338029

>  <i_epik_Tot_Q>  (69) 
-1

>  <i_epik_Tot_abs_Q>  (69) 
1

>  <s_lp_Force_Field>  (69) 
OPLS3e

>  <r_lp_Energy>  (69) 
398.566

>  <b_lp_Chiralities_Consistent>  (69) 
1

>  <s_lp_Variant>  (69) 
20:0-1

>  <s_i_glide_gridfile>  (69) 
pfpi4k_grid

>  <i_i_glide_lignum>  (69) 
32

>  <i_i_glide_rotatable_bonds>  (69) 
8

>  <r_i_docking_score>  (69) 
-3.16707

>  <r_i_glide_ligand_efficiency>  (69) 
-0.0754063

>  <r_i_glide_ligand_efficiency_sa>  (69) 
-0.262114

>  <r_i_glide_ligand_efficiency_ln>  (69) 
-0.668486

>  <r_i_glide_gscore>  (69) 
-3.16707

>  <r_i_glide_lipo>  (69) 
-0.262838

>  <r_i_glide_hbond>  (69) 
-0.186033

>  <r_i_glide_metal>  (69) 
-0

>  <r_i_glide_rewards>  (69) 
-0.0216838

>  <r_i_glide_evdw>  (69) 
-23.3473

>  <r_i_glide_ecoul>  (69) 
-10.4241

>  <r_i_glide_erotb>  (69) 
0.0889886

>  <r_i_glide_esite>  (69) 
-0.0545211

>  <r_i_glide_emodel>  (69) 
-39.7846

>  <r_i_glide_energy>  (69) 
-33.7714

>  <r_i_glide_einternal>  (69) 
5.37508

>  <r_i_glide_intrahb_reward>  (69) 
-0

>  <i_i_glide_confnum>  (69) 
2

>  <i_i_glide_posenum>  (69) 
36

>  <r_i_glide_eff_state_penalty>  (69) 
0

>  <ligand_id>  (69) 
20

>  <original_smiles>  (69) 
C=C1C2CC(CNC(=O)c3cnccn3)C(=O)C34C(O)CC5C(C)(C(=O)O)C(O)C(O)C53C3C1C4(C)CCC2C3(C)C

>  <smiles>  (69) 
[H]OC1([H])C([H])(O[H])C23C([H])(C([H])([H])C([H])(O[H])C24C(=O)C([H])(C([H])([H])N([H])C(=O)c2nc([H])c([H])nc2[H])C([H])([H])C2([H])C(=C([H])[H])C5([H])C3([H])C(C([H])([H])[H])(C([H])([H])[H])C2([H])C([H])([H])C([H])([H])C54C([H])([H])[H])C1(C(=O)[O-])C([H])([H])[H]

$$$$
20:0:1
     RDKit          3D

 82 88  0  0  1  0  0  0  0  0999 V2000
    2.1972   -3.5142    6.7964 C   0  0  0  0  0  0  0  0  0  0  0  0
    1.4962   -2.5102    6.2280 C   0  0  0  0  0  0  0  0  0  0  0  0
    0.1903   -2.5689    5.6389 C   0  0  2  0  0  0  0  0  0  0  0  0
    0.4492   -2.1791    4.0507 C   0  0  0  0  0  0  0  0  0  0  0  0
    1.6933   -1.3013    3.3509 C   0  0  1  0  0  0  0  0  0  0  0  0
    1.4587   -1.2092    1.8394 C   0  0  0  0  0  0  0  0  0  0  0  0
    2.6211   -1.4686    1.0017 N   0  0  0  0  0  0  0  0  0  0  0  0
    3.8598   -1.8720    1.3198 C   0  0  0  0  0  0  0  0  0  0  0  0
    4.3150   -1.9700    2.4693 O   0  0  0  0  0  0  0  0  0  0  0  0
    4.7668   -2.2206    0.1534 C   0  0  0  0  0  0  0  0  0  0  0  0
    6.1215   -1.8793    0.2184 C   0  0  0  0  0  0  0  0  0  0  0  0
    7.0182   -2.2636   -0.7104 N   0  0  0  0  0  0  0  0  0  0  0  0
    6.5198   -3.0071   -1.7162 C   0  0  0  0  0  0  0  0  0  0  0  0
    5.1528   -3.3564   -1.8155 C   0  0  0  0  0  0  0  0  0  0  0  0
    4.2627   -2.9430   -0.8711 N   0  0  0  0  0  0  0  0  0  0  0  0
    2.4852    0.0915    3.8617 C   0  0  0  0  0  0  0  0  0  0  0  0
    3.1858    0.6123    2.9854 O   0  0  0  0  0  0  0  0  0  0  0  0
    2.4220    0.8022    5.4150 C   0  0  1  0  0  0  0  0  0  0  0  0
    3.3360    2.0342    5.3711 C   0  0  1  0  0  0  0  0  0  0  0  0
    4.6510    1.7512    4.9586 O   0  0  0  0  0  0  0  0  0  0  0  0
    2.5518    3.0282    4.4492 C   0  0  0  0  0  0  0  0  0  0  0  0
    1.0576    2.5052    4.3820 C   0  0  2  0  0  0  0  0  0  0  0  0
   -0.0441    3.5969    4.5850 C   0  0  1  0  0  0  0  0  0  0  0  0
    0.2927    4.9490    3.9169 C   0  0  0  0  0  0  0  0  0  0  0  0
   -1.3981    3.1400    3.9557 C   0  0  0  0  0  0  0  0  0  0  0  0
   -1.5375    1.9222    3.7092 O   0  0  0  0  0  0  0  0  0  0  0  0
   -2.2685    4.0066    3.7755 O   0  0  0  0  0  0  0  0  0  0  0  0
   -0.0845    3.7476    6.1281 C   0  0  1  0  0  0  0  0  0  0  0  0
   -1.3665    3.8402    6.7470 O   0  0  0  0  0  0  0  0  0  0  0  0
    0.7867    2.6088    6.7127 C   0  0  1  0  0  0  0  0  0  0  0  0
    0.4938    2.3429    8.0632 O   0  0  0  0  0  0  0  0  0  0  0  0
    1.0414    1.5039    5.5922 C   0  0  2  0  0  0  0  0  0  0  0  0
    0.4387    0.0663    5.6250 C   0  0  1  0  0  0  0  0  0  0  0  0
    1.7299   -1.0286    6.0522 C   0  0  1  0  0  0  0  0  0  0  0  0
    2.5849   -0.1752    6.7585 C   0  0  1  0  0  0  0  0  0  0  0  0
    4.0552   -0.6049    6.9924 C   0  0  0  0  0  0  0  0  0  0  0  0
    1.6602   -0.3847    8.0746 C   0  0  0  0  0  0  0  0  0  0  0  0
    0.2437   -1.2356    8.1079 C   0  0  0  0  0  0  0  0  0  0  0  0
   -0.5774   -1.6485    6.7402 C   0  0  1  0  0  0  0  0  0  0  0  0
   -1.0042   -0.3412    6.0889 C   0  0  0  0  0  0  0  0  0  0  0  0
   -1.8029    0.6591    6.9580 C   0  0  0  0  0  0  0  0  0  0  0  0
   -2.0280   -0.7205    4.9787 C   0  0  0  0  0  0  0  0  0  0  0  0
    3.1704   -3.3524    7.2238 H   0  0  0  0  0  0  0  0  0  0  0  0
    1.7857   -4.5165    6.8345 H   0  0  0  0  0  0  0  0  0  0  0  0
   -0.2164   -3.5799    5.7151 H   0  0  0  0  0  0  0  0  0  0  0  0
    0.6217   -3.1703    3.6266 H   0  0  0  0  0  0  0  0  0  0  0  0
   -0.4988   -1.9498    3.5842 H   0  0  0  0  0  0  0  0  0  0  0  0
    2.4910   -2.0478    3.4724 H   0  0  0  0  0  0  0  0  0  0  0  0
    0.7799   -1.9683    1.5644 H   0  0  0  0  0  0  0  0  0  0  0  0
    1.0907   -0.2180    1.5662 H   0  0  0  0  0  0  0  0  0  0  0  0
    2.3940   -1.4716    0.0075 H   0  0  0  0  0  0  0  0  0  0  0  0
    6.4785   -1.3391    1.0762 H   0  0  0  0  0  0  0  0  0  0  0  0
    7.2218   -3.3049   -2.4735 H   0  0  0  0  0  0  0  0  0  0  0  0
    4.7589   -3.9634   -2.6313 H   0  0  0  0  0  0  0  0  0  0  0  0
    3.4934    2.4417    6.3638 H   0  0  0  0  0  0  0  0  0  0  0  0
    4.6394    1.7464    4.0232 H   0  0  0  0  0  0  0  0  0  0  0  0
    2.6409    4.0206    4.8889 H   0  0  0  0  0  0  0  0  0  0  0  0
    2.9691    3.1156    3.4418 H   0  0  0  0  0  0  0  0  0  0  0  0
    0.8974    2.0276    3.4091 H   0  0  0  0  0  0  0  0  0  0  0  0
    1.1767    5.4450    4.3121 H   0  0  0  0  0  0  0  0  0  0  0  0
   -0.5285    5.6604    3.9842 H   0  0  0  0  0  0  0  0  0  0  0  0
    0.4767    4.7721    2.8739 H   0  0  0  0  0  0  0  0  0  0  0  0
    0.3952    4.6891    6.3825 H   0  0  0  0  0  0  0  0  0  0  0  0
   -1.8505    3.0748    6.5319 H   0  0  0  0  0  0  0  0  0  0  0  0
    1.7103    3.1433    6.8871 H   0  0  0  0  0  0  0  0  0  0  0  0
   -0.3951    2.0813    8.1207 H   0  0  0  0  0  0  0  0  0  0  0  0
    0.1360    0.0912    4.5907 H   0  0  0  0  0  0  0  0  0  0  0  0
    2.5249   -1.5152    5.4800 H   0  0  0  0  0  0  0  0  0  0  0  0
    4.1623   -1.4795    7.6383 H   0  0  0  0  0  0  0  0  0  0  0  0
    4.5870    0.2091    7.4835 H   0  0  0  0  0  0  0  0  0  0  0  0
    4.5915   -0.8138    6.0608 H   0  0  0  0  0  0  0  0  0  0  0  0
    2.2809   -1.0145    8.7144 H   0  0  0  0  0  0  0  0  0  0  0  0
    1.6516    0.4950    8.6983 H   0  0  0  0  0  0  0  0  0  0  0  0
    0.4597   -2.1734    8.6312 H   0  0  0  0  0  0  0  0  0  0  0  0
   -0.4007   -0.7304    8.8210 H   0  0  0  0  0  0  0  0  0  0  0  0
   -1.4172   -2.2834    6.9998 H   0  0  0  0  0  0  0  0  0  0  0  0
   -2.8042    0.2880    7.1165 H   0  0  0  0  0  0  0  0  0  0  0  0
   -1.9693    1.5881    6.4136 H   0  0  0  0  0  0  0  0  0  0  0  0
   -1.3847    0.8765    7.9314 H   0  0  0  0  0  0  0  0  0  0  0  0
   -2.9965   -0.2861    5.1673 H   0  0  0  0  0  0  0  0  0  0  0  0
   -2.2163   -1.7922    4.9581 H   0  0  0  0  0  0  0  0  0  0  0  0
   -1.7909   -0.3720    3.9688 H   0  0  0  0  0  0  0  0  0  0  0  0
  1  2  2  0
  1 43  1  0
  1 44  1  0
  2 34  1  0
  2  3  1  0
  3 39  1  0
  3  4  1  0
  3 45  1  6
  4  5  1  0
  4 46  1  0
  4 47  1  0
  5  6  1  0
  5 16  1  0
  5 48  1  6
  6  7  1  0
  6 49  1  0
  6 50  1  0
  7  8  1  0
  7 51  1  0
  8  9  2  0
  8 10  1  0
 10 15  1  0
 10 11  2  0
 11 12  1  0
 11 52  1  0
 12 13  2  0
 13 14  1  0
 13 53  1  0
 14 15  2  0
 14 54  1  0
 16 17  2  0
 18 16  1  6
 32 18  1  1
 18 35  1  0
 18 19  1  0
 19 20  1  0
 19 21  1  0
 19 55  1  1
 20 56  1  0
 21 22  1  0
 21 57  1  0
 21 58  1  0
 22 32  1  0
 22 23  1  0
 22 59  1  6
 23 24  1  6
 23 25  1  0
 23 28  1  0
 24 60  1  0
 24 61  1  0
 24 62  1  0
 25 26  2  0
 25 27  1  0
 28 29  1  0
 28 30  1  0
 28 63  1  6
 29 64  1  0
 30 31  1  0
 30 32  1  0
 30 65  1  1
 31 66  1  0
 32 33  1  0
 33 40  1  0
 33 34  1  0
 33 67  1  6
 34 35  1  0
 34 68  1  6
 35 36  1  1
 35 37  1  0
 36 69  1  0
 36 70  1  0
 36 71  1  0
 37 38  1  0
 37 72  1  0
 37 73  1  0
 38 39  1  0
 38 74  1  0
 38 75  1  0
 39 40  1  0
 39 76  1  1
 40 41  1  0
 40 42  1  0
 41 77  1  0
 41 78  1  0
 41 79  1  0
 42 80  1  0
 42 81  1  0
 42 82  1  0
M  CHG  1  27  -1
M  END
>  <i_m_ct_stereo_status>  (70) 
1

>  <s_m_source_file>  (70) 
/var/tmp/pbs.5076255.sched01/tmp7e7yg0hy/0s0dyhj_r.sdf

>  <i_m_source_file_index>  (70) 
32

>  <i_lp_mmshare_version>  (70) 
48012

>  <i_f3d_flags>  (70) 
0

>  <s_epik_input>  (70) 
bjFbY0hdW2NIXW5bY0hdYzFDKD1PKVtOSF1bQ0gyXVtDQEBIXShDMj1PKVtDSDJdW0NAQEhdKEMzPVtDSDJdKVtDQEhdKEM0KFtDSDNdKVtDSDNdKVtDSDJdW0NIMl1bQ0BAXTUoW0NIM10pW0NAQEhdM1tDQEBIXTRbQ0BAXTYoW0NAXTI1NylbQ0BIXShbQ0gyXVtDQEBIXTdbT0hdKVtDQEBdKFtDSDNdKShDKD1PKVtPSF0pW0NAQEhdKFtPSF0pW0NASF02W09IXQ==

>  <s_epik_cmdline>  (70) 
J2VwaWtfcHl0aG9uJywgJy1waHQnLCAnMi4wJywgJy1waCcsICc3LjAnLCAnLXRuJywgJzgnLCAnLW1hJywgJzIwMCcsICctaW1hZScsICc8aW5maWxlLm1hZT4nLCAnLW9tYWUnLCAnPG91dGZpbGUubWFlPic=

>  <r_lp_tautomer_probability>  (70) 
0.99995

>  <r_epik_Ionization_Penalty>  (70) 
0.00201189

>  <r_epik_Ionization_Penalty_Charging>  (70) 
0.00200815

>  <r_epik_Ionization_Penalty_Neutral>  (70) 
3.74343e-06

>  <r_epik_State_Penalty>  (70) 
0.00137214

>  <r_epik_Charging_Adjusted_Penalty>  (70) 
0.00338029

>  <i_epik_Tot_Q>  (70) 
-1

>  <i_epik_Tot_abs_Q>  (70) 
1

>  <s_lp_Force_Field>  (70) 
OPLS3e

>  <r_lp_Energy>  (70) 
398.566

>  <b_lp_Chiralities_Consistent>  (70) 
1

>  <s_lp_Variant>  (70) 
20:0-1

>  <s_i_glide_gridfile>  (70) 
pfpi4k_grid

>  <i_i_glide_lignum>  (70) 
32

>  <i_i_glide_rotatable_bonds>  (70) 
8

>  <r_i_docking_score>  (70) 
-3.08285

>  <r_i_glide_ligand_efficiency>  (70) 
-0.0734013

>  <r_i_glide_ligand_efficiency_sa>  (70) 
-0.255145

>  <r_i_glide_ligand_efficiency_ln>  (70) 
-0.650711

>  <r_i_glide_gscore>  (70) 
-3.08285

>  <r_i_glide_lipo>  (70) 
-0.228371

>  <r_i_glide_hbond>  (70) 
-0.287955

>  <r_i_glide_metal>  (70) 
-0

>  <r_i_glide_rewards>  (70) 
-0.5

>  <r_i_glide_evdw>  (70) 
-23.2005

>  <r_i_glide_ecoul>  (70) 
-5.85128

>  <r_i_glide_erotb>  (70) 
0.0889886

>  <r_i_glide_esite>  (70) 
-0.1178

>  <r_i_glide_emodel>  (70) 
-39.074

>  <r_i_glide_energy>  (70) 
-29.0518

>  <r_i_glide_einternal>  (70) 
5.26373

>  <r_i_glide_intrahb_reward>  (70) 
-0.5

>  <i_i_glide_confnum>  (70) 
2

>  <i_i_glide_posenum>  (70) 
16

>  <r_i_glide_eff_state_penalty>  (70) 
0

>  <ligand_id>  (70) 
20

>  <original_smiles>  (70) 
C=C1C2CC(CNC(=O)c3cnccn3)C(=O)C34C(O)CC5C(C)(C(=O)O)C(O)C(O)C53C3C1C4(C)CCC2C3(C)C

>  <smiles>  (70) 
[H]OC1([H])C([H])(O[H])C23C([H])(C([H])([H])C([H])(O[H])C24C(=O)C([H])(C([H])([H])N([H])C(=O)c2nc([H])c([H])nc2[H])C([H])([H])C2([H])C(=C([H])[H])C5([H])C3([H])C(C([H])([H])[H])(C([H])([H])[H])C2([H])C([H])([H])C([H])([H])C54C([H])([H])[H])C1(C(=O)[O-])C([H])([H])[H]

$$$$
20:0:2
     RDKit          3D

 82 88  0  0  1  0  0  0  0  0999 V2000
    5.9208   -0.0957    8.0529 C   0  0  0  0  0  0  0  0  0  0  0  0
    4.6628   -0.2653    7.5927 C   0  0  0  0  0  0  0  0  0  0  0  0
    3.8173   -1.4202    7.7056 C   0  0  2  0  0  0  0  0  0  0  0  0
    3.6199   -1.8971    6.1176 C   0  0  0  0  0  0  0  0  0  0  0  0
    3.6979   -1.0063    4.6820 C   0  0  1  0  0  0  0  0  0  0  0  0
    3.2797   -1.9607    3.5171 C   0  0  0  0  0  0  0  0  0  0  0  0
    4.2146   -1.9488    2.3916 N   0  0  0  0  0  0  0  0  0  0  0  0
    4.0565   -2.6092    1.2300 C   0  0  0  0  0  0  0  0  0  0  0  0
    3.0164   -3.2096    0.9399 O   0  0  0  0  0  0  0  0  0  0  0  0
    5.2382   -2.5978    0.2871 C   0  0  0  0  0  0  0  0  0  0  0  0
    6.5342   -2.2215    0.7295 C   0  0  0  0  0  0  0  0  0  0  0  0
    7.6174   -2.2474   -0.0773 N   0  0  0  0  0  0  0  0  0  0  0  0
    7.4188   -2.6647   -1.3421 C   0  0  0  0  0  0  0  0  0  0  0  0
    6.1440   -3.0518   -1.8015 C   0  0  0  0  0  0  0  0  0  0  0  0
    5.0591   -3.0190   -0.9922 N   0  0  0  0  0  0  0  0  0  0  0  0
    3.2342    0.5611    4.3278 C   0  0  0  0  0  0  0  0  0  0  0  0
    3.3319    0.8579    3.1356 O   0  0  0  0  0  0  0  0  0  0  0  0
    2.7370    1.7811    5.4390 C   0  0  1  0  0  0  0  0  0  0  0  0
    2.3786    3.0283    4.5973 C   0  0  1  0  0  0  0  0  0  0  0  0
    3.3591    3.5552    3.7241 O   0  0  0  0  0  0  0  0  0  0  0  0
    1.0473    2.6162    3.9023 C   0  0  0  0  0  0  0  0  0  0  0  0
    0.4928    1.3643    4.6879 C   0  0  2  0  0  0  0  0  0  0  0  0
   -1.0382    1.3853    5.0313 C   0  0  1  0  0  0  0  0  0  0  0  0
   -1.8945    1.9680    3.8728 C   0  0  0  0  0  0  0  0  0  0  0  0
   -1.5454   -0.0770    5.2400 C   0  0  0  0  0  0  0  0  0  0  0  0
   -2.4359   -0.3078    6.0771 O   0  0  0  0  0  0  0  0  0  0  0  0
   -1.0875   -0.9706    4.4887 O   0  0  0  0  0  0  0  0  0  0  0  0
   -1.0841    2.3238    6.2858 C   0  0  1  0  0  0  0  0  0  0  0  0
   -1.9196    1.9937    7.3913 O   0  0  0  0  0  0  0  0  0  0  0  0
    0.3866    2.5284    6.7244 C   0  0  1  0  0  0  0  0  0  0  0  0
    0.4625    2.9196    8.0720 O   0  0  0  0  0  0  0  0  0  0  0  0
    1.3249    1.4388    6.0079 C   0  0  2  0  0  0  0  0  0  0  0  0
    1.9959    0.2437    6.7494 C   0  0  1  0  0  0  0  0  0  0  0  0
    3.6890    0.6323    6.8730 C   0  0  1  0  0  0  0  0  0  0  0  0
    3.6565    2.0320    6.8048 C   0  0  1  0  0  0  0  0  0  0  0  0
    4.9509    2.8248    6.4935 C   0  0  0  0  0  0  0  0  0  0  0  0
    3.2916    2.0585    8.3910 C   0  0  0  0  0  0  0  0  0  0  0  0
    3.0180    0.7224    9.3302 C   0  0  0  0  0  0  0  0  0  0  0  0
    2.6783   -0.7596    8.6952 C   0  0  1  0  0  0  0  0  0  0  0  0
    1.3836   -0.6088    7.9203 C   0  0  0  0  0  0  0  0  0  0  0  0
    0.2361   -0.0342    8.7787 C   0  0  0  0  0  0  0  0  0  0  0  0
    0.8477   -2.0293    7.5353 C   0  0  0  0  0  0  0  0  0  0  0  0
    6.4661    0.8240    7.9235 H   0  0  0  0  0  0  0  0  0  0  0  0
    6.4219   -0.8995    8.5781 H   0  0  0  0  0  0  0  0  0  0  0  0
    4.3354   -2.2039    8.2585 H   0  0  0  0  0  0  0  0  0  0  0  0
    4.4579   -2.5814    5.9947 H   0  0  0  0  0  0  0  0  0  0  0  0
    2.7809   -2.5813    6.0406 H   0  0  0  0  0  0  0  0  0  0  0  0
    4.7761   -0.9081    4.5591 H   0  0  0  0  0  0  0  0  0  0  0  0
    3.2191   -2.9940    3.8700 H   0  0  0  0  0  0  0  0  0  0  0  0
    2.2795   -1.7076    3.1574 H   0  0  0  0  0  0  0  0  0  0  0  0
    5.0937   -1.4744    2.5354 H   0  0  0  0  0  0  0  0  0  0  0  0
    6.7240   -1.9053    1.7408 H   0  0  0  0  0  0  0  0  0  0  0  0
    8.2864   -2.6745   -1.9927 H   0  0  0  0  0  0  0  0  0  0  0  0
    5.9998   -3.3838   -2.8178 H   0  0  0  0  0  0  0  0  0  0  0  0
    2.2384    3.8816    5.2539 H   0  0  0  0  0  0  0  0  0  0  0  0
    3.5910    2.8901    3.0822 H   0  0  0  0  0  0  0  0  0  0  0  0
    0.3882    3.4779    3.9312 H   0  0  0  0  0  0  0  0  0  0  0  0
    1.1849    2.3793    2.8443 H   0  0  0  0  0  0  0  0  0  0  0  0
    0.7123    0.4773    4.0891 H   0  0  0  0  0  0  0  0  0  0  0  0
   -1.6852    3.0140    3.6576 H   0  0  0  0  0  0  0  0  0  0  0  0
   -2.9588    1.9216    4.0926 H   0  0  0  0  0  0  0  0  0  0  0  0
   -1.7456    1.4126    2.9485 H   0  0  0  0  0  0  0  0  0  0  0  0
   -1.4681    3.2966    5.9735 H   0  0  0  0  0  0  0  0  0  0  0  0
   -1.8706    2.7014    8.0160 H   0  0  0  0  0  0  0  0  0  0  0  0
    0.5907    3.4995    6.2963 H   0  0  0  0  0  0  0  0  0  0  0  0
    0.2996    2.1606    8.6062 H   0  0  0  0  0  0  0  0  0  0  0  0
    1.7423   -0.4798    5.9915 H   0  0  0  0  0  0  0  0  0  0  0  0
    4.5271    0.5218    6.1862 H   0  0  0  0  0  0  0  0  0  0  0  0
    5.7227    2.7383    7.2605 H   0  0  0  0  0  0  0  0  0  0  0  0
    4.7123    3.8857    6.4109 H   0  0  0  0  0  0  0  0  0  0  0  0
    5.3919    2.5211    5.5468 H   0  0  0  0  0  0  0  0  0  0  0  0
    4.2133    2.4240    8.8471 H   0  0  0  0  0  0  0  0  0  0  0  0
    2.6675    2.8999    8.6502 H   0  0  0  0  0  0  0  0  0  0  0  0
    3.9054    0.5949    9.9532 H   0  0  0  0  0  0  0  0  0  0  0  0
    2.2828    0.9948   10.0793 H   0  0  0  0  0  0  0  0  0  0  0  0
    2.5163   -1.4377    9.5330 H   0  0  0  0  0  0  0  0  0  0  0  0
    0.0227   -0.6956    9.6218 H   0  0  0  0  0  0  0  0  0  0  0  0
   -0.6655    0.0298    8.1815 H   0  0  0  0  0  0  0  0  0  0  0  0
    0.4118    0.9197    9.2444 H   0  0  0  0  0  0  0  0  0  0  0  0
   -0.0648   -2.2896    8.0666 H   0  0  0  0  0  0  0  0  0  0  0  0
    1.5427   -2.8233    7.8141 H   0  0  0  0  0  0  0  0  0  0  0  0
    0.5996   -2.1420    6.4787 H   0  0  0  0  0  0  0  0  0  0  0  0
  1  2  2  0
  1 43  1  0
  1 44  1  0
  2 34  1  0
  2  3  1  0
  3 39  1  0
  3  4  1  0
  3 45  1  1
  4  5  1  0
  4 46  1  0
  4 47  1  0
  5  6  1  0
  5 16  1  0
  5 48  1  6
  6  7  1  0
  6 49  1  0
  6 50  1  0
  7  8  1  0
  7 51  1  0
  8  9  2  0
  8 10  1  0
 10 15  1  0
 10 11  2  0
 11 12  1  0
 11 52  1  0
 12 13  2  0
 13 14  1  0
 13 53  1  0
 14 15  2  0
 14 54  1  0
 16 17  2  0
 18 16  1  6
 32 18  1  6
 18 35  1  0
 18 19  1  0
 19 20  1  0
 19 21  1  0
 19 55  1  1
 20 56  1  0
 21 22  1  0
 21 57  1  0
 21 58  1  0
 22 32  1  0
 22 23  1  0
 22 59  1  6
 23 24  1  6
 23 25  1  0
 23 28  1  0
 24 60  1  0
 24 61  1  0
 24 62  1  0
 25 26  2  0
 25 27  1  0
 28 29  1  0
 28 30  1  0
 28 63  1  6
 29 64  1  0
 30 31  1  0
 30 32  1  0
 30 65  1  6
 31 66  1  0
 32 33  1  0
 33 40  1  0
 33 34  1  0
 33 67  1  6
 34 35  1  0
 34 68  1  6
 35 36  1  6
 35 37  1  0
 36 69  1  0
 36 70  1  0
 36 71  1  0
 37 38  1  0
 37 72  1  0
 37 73  1  0
 38 39  1  0
 38 74  1  0
 38 75  1  0
 39 40  1  0
 39 76  1  1
 40 41  1  0
 40 42  1  0
 41 77  1  0
 41 78  1  0
 41 79  1  0
 42 80  1  0
 42 81  1  0
 42 82  1  0
M  CHG  1  27  -1
M  END
>  <i_m_ct_stereo_status>  (71) 
1

>  <s_m_source_file>  (71) 
/var/tmp/pbs.5076255.sched01/tmp7e7yg0hy/0s0dyhj_r.sdf

>  <i_m_source_file_index>  (71) 
32

>  <i_lp_mmshare_version>  (71) 
48012

>  <i_f3d_flags>  (71) 
0

>  <s_epik_input>  (71) 
bjFbY0hdW2NIXW5bY0hdYzFDKD1PKVtOSF1bQ0gyXVtDQEBIXShDMj1PKVtDSDJdW0NAQEhdKEMzPVtDSDJdKVtDQEhdKEM0KFtDSDNdKVtDSDNdKVtDSDJdW0NIMl1bQ0BAXTUoW0NIM10pW0NAQEhdM1tDQEBIXTRbQ0BAXTYoW0NAXTI1NylbQ0BIXShbQ0gyXVtDQEBIXTdbT0hdKVtDQEBdKFtDSDNdKShDKD1PKVtPSF0pW0NAQEhdKFtPSF0pW0NASF02W09IXQ==

>  <s_epik_cmdline>  (71) 
J2VwaWtfcHl0aG9uJywgJy1waHQnLCAnMi4wJywgJy1waCcsICc3LjAnLCAnLXRuJywgJzgnLCAnLW1hJywgJzIwMCcsICctaW1hZScsICc8aW5maWxlLm1hZT4nLCAnLW9tYWUnLCAnPG91dGZpbGUubWFlPic=

>  <r_lp_tautomer_probability>  (71) 
0.99995

>  <r_epik_Ionization_Penalty>  (71) 
0.00201189

>  <r_epik_Ionization_Penalty_Charging>  (71) 
0.00200815

>  <r_epik_Ionization_Penalty_Neutral>  (71) 
3.74343e-06

>  <r_epik_State_Penalty>  (71) 
0.00137214

>  <r_epik_Charging_Adjusted_Penalty>  (71) 
0.00338029

>  <i_epik_Tot_Q>  (71) 
-1

>  <i_epik_Tot_abs_Q>  (71) 
1

>  <s_lp_Force_Field>  (71) 
OPLS3e

>  <r_lp_Energy>  (71) 
398.566

>  <b_lp_Chiralities_Consistent>  (71) 
1

>  <s_lp_Variant>  (71) 
20:0-1

>  <s_i_glide_gridfile>  (71) 
pfpi4k_grid

>  <i_i_glide_lignum>  (71) 
32

>  <i_i_glide_rotatable_bonds>  (71) 
8

>  <r_i_docking_score>  (71) 
-2.7318

>  <r_i_glide_ligand_efficiency>  (71) 
-0.0650428

>  <r_i_glide_ligand_efficiency_sa>  (71) 
-0.22609

>  <r_i_glide_ligand_efficiency_ln>  (71) 
-0.576612

>  <r_i_glide_gscore>  (71) 
-2.7318

>  <r_i_glide_lipo>  (71) 
-0.208635

>  <r_i_glide_hbond>  (71) 
-0.229338

>  <r_i_glide_metal>  (71) 
-0

>  <r_i_glide_rewards>  (71) 
-0.500516

>  <r_i_glide_evdw>  (71) 
-25.5349

>  <r_i_glide_ecoul>  (71) 
-3.71378

>  <r_i_glide_erotb>  (71) 
0.0889886

>  <r_i_glide_esite>  (71) 
-0.0484838

>  <r_i_glide_emodel>  (71) 
-40.4117

>  <r_i_glide_energy>  (71) 
-29.2487

>  <r_i_glide_einternal>  (71) 
4.01157

>  <r_i_glide_intrahb_reward>  (71) 
-0.5

>  <i_i_glide_confnum>  (71) 
2

>  <i_i_glide_posenum>  (71) 
26

>  <r_i_glide_eff_state_penalty>  (71) 
0

>  <ligand_id>  (71) 
20

>  <original_smiles>  (71) 
C=C1C2CC(CNC(=O)c3cnccn3)C(=O)C34C(O)CC5C(C)(C(=O)O)C(O)C(O)C53C3C1C4(C)CCC2C3(C)C

>  <smiles>  (71) 
[H]OC1([H])C([H])(O[H])C23C([H])(C([H])([H])C([H])(O[H])C24C(=O)C([H])(C([H])([H])N([H])C(=O)c2nc([H])c([H])nc2[H])C([H])([H])C2([H])C(=C([H])[H])C5([H])C3([H])C(C([H])([H])[H])(C([H])([H])[H])C2([H])C([H])([H])C([H])([H])C54C([H])([H])[H])C1(C(=O)[O-])C([H])([H])[H]

$$$$
21:0:0
     RDKit          3D

 58 62  0  0  1  0  0  0  0  0999 V2000
    1.1815   -1.7597    5.5015 C   0  0  0  0  0  0  0  0  0  0  0  0
    1.5281   -3.1536    4.9998 C   0  0  0  0  0  0  0  0  0  0  0  0
    0.6491   -3.8970    4.5541 O   0  0  0  0  0  0  0  0  0  0  0  0
    2.8548   -3.4326    5.1156 O   0  0  0  0  0  0  0  0  0  0  0  0
    3.2818   -4.6580    4.5933 C   0  0  2  0  0  0  0  0  0  0  0  0
    4.5670   -5.0149    5.0600 O   0  0  0  0  0  0  0  0  0  0  0  0
    5.4801   -5.1575    3.9952 C   0  0  1  0  0  0  0  0  0  0  0  0
    5.5362   -6.5007    3.5666 O   0  0  0  0  0  0  0  0  0  0  0  0
    4.8857   -4.2328    2.9293 C   0  0  2  0  0  0  0  0  0  0  0  0
    3.4323   -4.5400    3.0947 C   0  0  1  0  0  0  0  0  0  0  0  0
    2.8998   -5.7373    2.5015 O   0  0  0  0  0  0  0  0  0  0  0  0
    2.4776   -4.5076    1.9468 C   0  0  2  0  0  0  0  0  0  0  0  0
    3.0052   -4.1955    0.5665 C   0  0  0  0  0  0  0  0  0  0  0  0
    4.4931   -4.6209    0.3165 C   0  0  1  0  0  0  0  0  0  0  0  0
    4.5309   -6.1820    0.2780 C   0  0  0  0  0  0  0  0  0  0  0  0
    4.9269   -4.2030   -1.1161 C   0  0  2  0  0  0  0  0  0  0  0  0
    5.8863   -3.0460   -1.3234 C   0  0  2  0  0  0  0  0  0  0  0  0
    6.2860   -2.1467   -0.1679 C   0  0  0  0  0  0  0  0  0  0  0  0
    5.7626   -2.5593    1.2298 C   0  0  1  0  0  0  0  0  0  0  0  0
    4.6430   -1.7348    1.5635 O   0  0  0  0  0  0  0  0  0  0  0  0
    4.7706   -0.6621    2.3709 C   0  0  0  0  0  0  0  0  0  0  0  0
    3.4495    0.0603    2.5863 C   0  0  0  0  0  0  0  0  0  0  0  0
    5.8080   -0.2771    2.9085 O   0  0  0  0  0  0  0  0  0  0  0  0
    5.4851   -4.0930    1.4520 C   0  0  1  0  0  0  0  0  0  0  0  0
    6.8872   -4.7706    1.3301 C   0  0  0  0  0  0  0  0  0  0  0  0
    4.5370   -3.0002   -1.9875 C   0  0  0  0  0  0  0  0  0  0  0  0
    4.4481   -3.2491   -3.4843 C   0  0  0  0  0  0  0  0  0  0  0  0
    3.5447   -1.9080   -1.6377 C   0  0  0  0  0  0  0  0  0  0  0  0
    1.6497   -1.0041    4.8718 H   0  0  0  0  0  0  0  0  0  0  0  0
    1.5411   -1.6314    6.5223 H   0  0  0  0  0  0  0  0  0  0  0  0
    0.1031   -1.5967    5.4848 H   0  0  0  0  0  0  0  0  0  0  0  0
    2.5880   -5.4533    4.8747 H   0  0  0  0  0  0  0  0  0  0  0  0
    6.4768   -4.8742    4.3305 H   0  0  0  0  0  0  0  0  0  0  0  0
    4.7010   -6.7144    3.1789 H   0  0  0  0  0  0  0  0  0  0  0  0
    5.0202   -3.2659    3.4110 H   0  0  0  0  0  0  0  0  0  0  0  0
    1.4378   -4.2543    2.1306 H   0  0  0  0  0  0  0  0  0  0  0  0
    2.3413   -4.6314   -0.1794 H   0  0  0  0  0  0  0  0  0  0  0  0
    2.8847   -3.1232    0.4796 H   0  0  0  0  0  0  0  0  0  0  0  0
    5.4183   -6.5622   -0.2114 H   0  0  0  0  0  0  0  0  0  0  0  0
    3.6839   -6.5842   -0.2771 H   0  0  0  0  0  0  0  0  0  0  0  0
    4.5459   -6.6693    1.2464 H   0  0  0  0  0  0  0  0  0  0  0  0
    5.1211   -5.0701   -1.7382 H   0  0  0  0  0  0  0  0  0  0  0  0
    6.7210   -3.2432   -1.9936 H   0  0  0  0  0  0  0  0  0  0  0  0
    7.3759   -2.1564   -0.1286 H   0  0  0  0  0  0  0  0  0  0  0  0
    6.0178   -1.1161   -0.4007 H   0  0  0  0  0  0  0  0  0  0  0  0
    6.5675   -2.3044    1.9232 H   0  0  0  0  0  0  0  0  0  0  0  0
    3.0471    0.4060    1.6338 H   0  0  0  0  0  0  0  0  0  0  0  0
    3.5891    0.9228    3.2394 H   0  0  0  0  0  0  0  0  0  0  0  0
    2.7273   -0.6125    3.0461 H   0  0  0  0  0  0  0  0  0  0  0  0
    7.3157   -4.6363    0.3364 H   0  0  0  0  0  0  0  0  0  0  0  0
    6.8743   -5.8483    1.5054 H   0  0  0  0  0  0  0  0  0  0  0  0
    7.6045   -4.3464    2.0349 H   0  0  0  0  0  0  0  0  0  0  0  0
    4.6111   -2.3251   -4.0386 H   0  0  0  0  0  0  0  0  0  0  0  0
    3.4629   -3.6416   -3.7391 H   0  0  0  0  0  0  0  0  0  0  0  0
    5.1963   -3.9755   -3.8073 H   0  0  0  0  0  0  0  0  0  0  0  0
    2.5291   -2.2976   -1.7207 H   0  0  0  0  0  0  0  0  0  0  0  0
    3.6456   -1.0635   -2.3215 H   0  0  0  0  0  0  0  0  0  0  0  0
    3.6919   -1.5150   -0.6367 H   0  0  0  0  0  0  0  0  0  0  0  0
  1  2  1  0
  1 29  1  0
  1 30  1  0
  1 31  1  0
  2  3  2  0
  2  4  1  0
  4  5  1  0
  5 10  1  0
  5  6  1  0
  5 32  1  6
  6  7  1  0
  7  8  1  0
  7  9  1  0
  7 33  1  1
  8 34  1  0
  9 24  1  0
  9 10  1  0
  9 35  1  1
 10 12  1  0
 10 11  1  6
 11 12  1  0
 12 13  1  0
 12 36  1  1
 13 14  1  0
 13 37  1  0
 13 38  1  0
 14 24  1  0
 14 15  1  6
 14 16  1  0
 15 39  1  0
 15 40  1  0
 15 41  1  0
 16 26  1  0
 16 17  1  0
 16 42  1  6
 17 18  1  0
 17 26  1  0
 17 43  1  6
 18 19  1  0
 18 44  1  0
 18 45  1  0
 19 20  1  0
 19 24  1  0
 19 46  1  1
 20 21  1  0
 21 22  1  0
 21 23  2  0
 22 47  1  0
 22 48  1  0
 22 49  1  0
 24 25  1  1
 25 50  1  0
 25 51  1  0
 25 52  1  0
 26 27  1  0
 26 28  1  0
 27 53  1  0
 27 54  1  0
 27 55  1  0
 28 56  1  0
 28 57  1  0
 28 58  1  0
M  END
>  <i_m_ct_stereo_status>  (72) 
1

>  <s_m_source_file>  (72) 
/var/tmp/pbs.5076255.sched01/tmp7e7yg0hy/0s0dyhj_r.sdf

>  <i_m_source_file_index>  (72) 
33

>  <i_lp_mmshare_version>  (72) 
48012

>  <i_f3d_flags>  (72) 
0

>  <s_epik_input>  (72) 
W0NIM11DKD1PKU9bQ0BASF0xT1tDQEBIXShbT0hdKVtDQEhdKFtDQF0xMjMpW0NAQF00KFtDSDNdKVtDQEBdKFtDSDNdKShbQ0gyXVtDQEhdM08yKVtDQEBIXTVbQ0BASF0oQzUoW0NIM10pW0NIM10pW0NIMl1bQ0BIXTRPQyg9TylbQ0gzXQ==

>  <s_epik_cmdline>  (72) 
J2VwaWtfcHl0aG9uJywgJy1waHQnLCAnMi4wJywgJy1waCcsICc3LjAnLCAnLXRuJywgJzgnLCAnLW1hJywgJzIwMCcsICctaW1hZScsICc8aW5maWxlLm1hZT4nLCAnLW9tYWUnLCAnPG91dGZpbGUubWFlPic=

>  <r_lp_tautomer_probability>  (72) 
1

>  <r_epik_Ionization_Penalty>  (72) 
5.3347e-07

>  <r_epik_Ionization_Penalty_Charging>  (72) 
0

>  <r_epik_Ionization_Penalty_Neutral>  (72) 
5.3347e-07

>  <r_epik_State_Penalty>  (72) 
-0

>  <r_epik_Charging_Adjusted_Penalty>  (72) 
0

>  <i_epik_Tot_Q>  (72) 
0

>  <i_epik_Tot_abs_Q>  (72) 
0

>  <s_epik_Chemistry_Notes>  (72) 
This compound has an ester and may undergo hydrolysis at high or low pH. This compound contains an acetal/aminal-like group ( X-CH(R)-Y where X, Y are N, S, or O) that may be acid/base labile, releasing an aldehyde.

>  <s_lp_Force_Field>  (72) 
OPLS3e

>  <r_lp_Energy>  (72) 
80.3014

>  <b_lp_Chiralities_Consistent>  (72) 
1

>  <s_lp_Variant>  (72) 
21:0-1

>  <s_i_glide_gridfile>  (72) 
pfpi4k_grid

>  <i_i_glide_lignum>  (72) 
33

>  <i_i_glide_rotatable_bonds>  (72) 
5

>  <r_i_docking_score>  (72) 
-2.78322

>  <r_i_glide_ligand_efficiency>  (72) 
-0.0994006

>  <r_i_glide_ligand_efficiency_sa>  (72) 
-0.301839

>  <r_i_glide_ligand_efficiency_ln>  (72) 
-0.642448

>  <r_i_glide_gscore>  (72) 
-2.78322

>  <r_i_glide_lipo>  (72) 
-0.692057

>  <r_i_glide_hbond>  (72) 
-0.0870442

>  <r_i_glide_metal>  (72) 
-0

>  <r_i_glide_rewards>  (72) 
-0.866557

>  <r_i_glide_evdw>  (72) 
-27.9883

>  <r_i_glide_ecoul>  (72) 
0.0708791

>  <r_i_glide_erotb>  (72) 
0.251226

>  <r_i_glide_esite>  (72) 
0

>  <r_i_glide_emodel>  (72) 
-31.2752

>  <r_i_glide_energy>  (72) 
-27.9175

>  <r_i_glide_einternal>  (72) 
3.49033

>  <r_i_glide_intrahb_reward>  (72) 
-0

>  <i_i_glide_confnum>  (72) 
2

>  <i_i_glide_posenum>  (72) 
11

>  <r_i_glide_eff_state_penalty>  (72) 
0

>  <ligand_id>  (72) 
21

>  <original_smiles>  (72) 
CC(=O)OC1OC(O)C2C13OC3CC1(C)C3C(CC(OC(C)=O)C21C)C3(C)C

>  <smiles>  (72) 
[H]OC1([H])OC([H])(OC(=O)C([H])([H])[H])C23OC2([H])C([H])([H])C2(C([H])([H])[H])C4([H])C([H])(C([H])([H])C([H])(OC(=O)C([H])([H])[H])C2(C([H])([H])[H])C13[H])C4(C([H])([H])[H])C([H])([H])[H]

$$$$
21:0:1
     RDKit          3D

 58 62  0  0  1  0  0  0  0  0999 V2000
    1.1951   -1.6030    5.4613 C   0  0  0  0  0  0  0  0  0  0  0  0
    1.5354   -3.0092    4.9864 C   0  0  0  0  0  0  0  0  0  0  0  0
    0.6518   -3.7539    4.5528 O   0  0  0  0  0  0  0  0  0  0  0  0
    2.8606   -3.2978    5.1122 O   0  0  0  0  0  0  0  0  0  0  0  0
    3.2821   -4.5392    4.6194 C   0  0  2  0  0  0  0  0  0  0  0  0
    4.5646   -4.8915    5.0988 O   0  0  0  0  0  0  0  0  0  0  0  0
    5.4882   -5.0499    4.0462 C   0  0  1  0  0  0  0  0  0  0  0  0
    5.5832   -6.4030    3.6604 O   0  0  0  0  0  0  0  0  0  0  0  0
    4.8901   -4.1619    2.9500 C   0  0  2  0  0  0  0  0  0  0  0  0
    3.4333   -4.4567    3.1187 C   0  0  1  0  0  0  0  0  0  0  0  0
    2.8741   -5.6497    2.5413 O   0  0  0  0  0  0  0  0  0  0  0  0
    2.4784   -4.4215    1.9691 C   0  0  2  0  0  0  0  0  0  0  0  0
    3.0133   -4.1491    0.5835 C   0  0  0  0  0  0  0  0  0  0  0  0
    4.4987   -4.5915    0.3470 C   0  0  1  0  0  0  0  0  0  0  0  0
    4.5316   -6.1535    0.3452 C   0  0  0  0  0  0  0  0  0  0  0  0
    4.9383   -4.2059   -1.0928 C   0  0  2  0  0  0  0  0  0  0  0  0
    5.9022   -3.0550   -1.3234 C   0  0  2  0  0  0  0  0  0  0  0  0
    6.3036   -2.1358   -0.1855 C   0  0  0  0  0  0  0  0  0  0  0  0
    5.7771   -2.5191    1.2192 C   0  0  1  0  0  0  0  0  0  0  0  0
    4.6617   -1.6838    1.5338 O   0  0  0  0  0  0  0  0  0  0  0  0
    4.7794   -0.6379    2.3759 C   0  0  0  0  0  0  0  0  0  0  0  0
    3.4645    0.1045    2.5672 C   0  0  0  0  0  0  0  0  0  0  0  0
    5.8032   -0.2852    2.9584 O   0  0  0  0  0  0  0  0  0  0  0  0
    5.4926   -4.0474    1.4725 C   0  0  1  0  0  0  0  0  0  0  0  0
    6.8931   -4.7305    1.3641 C   0  0  0  0  0  0  0  0  0  0  0  0
    4.5541   -3.0197   -1.9909 C   0  0  0  0  0  0  0  0  0  0  0  0
    4.4645   -3.2994   -3.4816 C   0  0  0  0  0  0  0  0  0  0  0  0
    3.5673   -1.9138   -1.6659 C   0  0  0  0  0  0  0  0  0  0  0  0
    1.6711   -0.8605    4.8227 H   0  0  0  0  0  0  0  0  0  0  0  0
    1.5464   -1.4576    6.4824 H   0  0  0  0  0  0  0  0  0  0  0  0
    0.1179   -1.4329    5.4332 H   0  0  0  0  0  0  0  0  0  0  0  0
    2.5821   -5.3231    4.9163 H   0  0  0  0  0  0  0  0  0  0  0  0
    6.4740   -4.7292    4.3869 H   0  0  0  0  0  0  0  0  0  0  0  0
    6.1918   -6.4626    2.9433 H   0  0  0  0  0  0  0  0  0  0  0  0
    5.0227   -3.1848    3.4089 H   0  0  0  0  0  0  0  0  0  0  0  0
    1.4399   -4.1556    2.1426 H   0  0  0  0  0  0  0  0  0  0  0  0
    2.3474   -4.6008   -0.1527 H   0  0  0  0  0  0  0  0  0  0  0  0
    2.8984   -3.0787    0.4690 H   0  0  0  0  0  0  0  0  0  0  0  0
    5.4198   -6.5499   -0.1317 H   0  0  0  0  0  0  0  0  0  0  0  0
    3.6828   -6.5636   -0.2020 H   0  0  0  0  0  0  0  0  0  0  0  0
    4.5374   -6.6138    1.3282 H   0  0  0  0  0  0  0  0  0  0  0  0
    5.1292   -5.0869   -1.6956 H   0  0  0  0  0  0  0  0  0  0  0  0
    6.7372   -3.2709   -1.9885 H   0  0  0  0  0  0  0  0  0  0  0  0
    7.3937   -2.1491   -0.1453 H   0  0  0  0  0  0  0  0  0  0  0  0
    6.0400   -1.1081   -0.4392 H   0  0  0  0  0  0  0  0  0  0  0  0
    6.5857   -2.2526    1.9035 H   0  0  0  0  0  0  0  0  0  0  0  0
    3.1012    0.4881    1.6135 H   0  0  0  0  0  0  0  0  0  0  0  0
    3.5981    0.9444    3.2512 H   0  0  0  0  0  0  0  0  0  0  0  0
    2.7149   -0.5676    2.9813 H   0  0  0  0  0  0  0  0  0  0  0  0
    7.3233   -4.6111    0.3688 H   0  0  0  0  0  0  0  0  0  0  0  0
    6.8810   -5.8055    1.5487 H   0  0  0  0  0  0  0  0  0  0  0  0
    7.6104   -4.2947    2.0625 H   0  0  0  0  0  0  0  0  0  0  0  0
    4.6211   -2.3864   -4.0560 H   0  0  0  0  0  0  0  0  0  0  0  0
    3.4790   -3.6960   -3.7294 H   0  0  0  0  0  0  0  0  0  0  0  0
    5.2127   -4.0334   -3.7897 H   0  0  0  0  0  0  0  0  0  0  0  0
    2.5489   -2.2985   -1.7424 H   0  0  0  0  0  0  0  0  0  0  0  0
    3.6747   -1.0843   -2.3675 H   0  0  0  0  0  0  0  0  0  0  0  0
    3.7151   -1.4994   -0.6741 H   0  0  0  0  0  0  0  0  0  0  0  0
  1  2  1  0
  1 29  1  0
  1 30  1  0
  1 31  1  0
  2  3  2  0
  2  4  1  0
  4  5  1  0
  5 10  1  0
  5  6  1  0
  5 32  1  6
  6  7  1  0
  7  8  1  0
  7  9  1  0
  7 33  1  1
  8 34  1  0
  9 24  1  0
  9 10  1  0
  9 35  1  1
 10 12  1  0
 10 11  1  6
 11 12  1  0
 12 13  1  0
 12 36  1  1
 13 14  1  0
 13 37  1  0
 13 38  1  0
 14 24  1  0
 14 15  1  6
 14 16  1  0
 15 39  1  0
 15 40  1  0
 15 41  1  0
 16 26  1  0
 16 17  1  0
 16 42  1  6
 17 18  1  0
 17 26  1  0
 17 43  1  6
 18 19  1  0
 18 44  1  0
 18 45  1  0
 19 20  1  0
 19 24  1  0
 19 46  1  1
 20 21  1  0
 21 22  1  0
 21 23  2  0
 22 47  1  0
 22 48  1  0
 22 49  1  0
 24 25  1  1
 25 50  1  0
 25 51  1  0
 25 52  1  0
 26 27  1  0
 26 28  1  0
 27 53  1  0
 27 54  1  0
 27 55  1  0
 28 56  1  0
 28 57  1  0
 28 58  1  0
M  END
>  <i_m_ct_stereo_status>  (73) 
1

>  <s_m_source_file>  (73) 
/var/tmp/pbs.5076255.sched01/tmp7e7yg0hy/0s0dyhj_r.sdf

>  <i_m_source_file_index>  (73) 
33

>  <i_lp_mmshare_version>  (73) 
48012

>  <i_f3d_flags>  (73) 
0

>  <s_epik_input>  (73) 
W0NIM11DKD1PKU9bQ0BASF0xT1tDQEBIXShbT0hdKVtDQEhdKFtDQF0xMjMpW0NAQF00KFtDSDNdKVtDQEBdKFtDSDNdKShbQ0gyXVtDQEhdM08yKVtDQEBIXTVbQ0BASF0oQzUoW0NIM10pW0NIM10pW0NIMl1bQ0BIXTRPQyg9TylbQ0gzXQ==

>  <s_epik_cmdline>  (73) 
J2VwaWtfcHl0aG9uJywgJy1waHQnLCAnMi4wJywgJy1waCcsICc3LjAnLCAnLXRuJywgJzgnLCAnLW1hJywgJzIwMCcsICctaW1hZScsICc8aW5maWxlLm1hZT4nLCAnLW9tYWUnLCAnPG91dGZpbGUubWFlPic=

>  <r_lp_tautomer_probability>  (73) 
1

>  <r_epik_Ionization_Penalty>  (73) 
5.3347e-07

>  <r_epik_Ionization_Penalty_Charging>  (73) 
0

>  <r_epik_Ionization_Penalty_Neutral>  (73) 
5.3347e-07

>  <r_epik_State_Penalty>  (73) 
-0

>  <r_epik_Charging_Adjusted_Penalty>  (73) 
0

>  <i_epik_Tot_Q>  (73) 
0

>  <i_epik_Tot_abs_Q>  (73) 
0

>  <s_epik_Chemistry_Notes>  (73) 
This compound has an ester and may undergo hydrolysis at high or low pH. This compound contains an acetal/aminal-like group ( X-CH(R)-Y where X, Y are N, S, or O) that may be acid/base labile, releasing an aldehyde.

>  <s_lp_Force_Field>  (73) 
OPLS3e

>  <r_lp_Energy>  (73) 
80.3014

>  <b_lp_Chiralities_Consistent>  (73) 
1

>  <s_lp_Variant>  (73) 
21:0-1

>  <s_i_glide_gridfile>  (73) 
pfpi4k_grid

>  <i_i_glide_lignum>  (73) 
33

>  <i_i_glide_rotatable_bonds>  (73) 
5

>  <r_i_docking_score>  (73) 
-2.77336

>  <r_i_glide_ligand_efficiency>  (73) 
-0.0990485

>  <r_i_glide_ligand_efficiency_sa>  (73) 
-0.30077

>  <r_i_glide_ligand_efficiency_ln>  (73) 
-0.640172

>  <r_i_glide_gscore>  (73) 
-2.77336

>  <r_i_glide_lipo>  (73) 
-0.726018

>  <r_i_glide_hbond>  (73) 
-0.0681336

>  <r_i_glide_metal>  (73) 
-0

>  <r_i_glide_rewards>  (73) 
-0.868115

>  <r_i_glide_evdw>  (73) 
-27.9712

>  <r_i_glide_ecoul>  (73) 
0.241608

>  <r_i_glide_erotb>  (73) 
0.251226

>  <r_i_glide_esite>  (73) 
0

>  <r_i_glide_emodel>  (73) 
-30.0553

>  <r_i_glide_energy>  (73) 
-27.7295

>  <r_i_glide_einternal>  (73) 
5.48067

>  <r_i_glide_intrahb_reward>  (73) 
-0

>  <i_i_glide_confnum>  (73) 
2

>  <i_i_glide_posenum>  (73) 
8

>  <r_i_glide_eff_state_penalty>  (73) 
0

>  <ligand_id>  (73) 
21

>  <original_smiles>  (73) 
CC(=O)OC1OC(O)C2C13OC3CC1(C)C3C(CC(OC(C)=O)C21C)C3(C)C

>  <smiles>  (73) 
[H]OC1([H])OC([H])(OC(=O)C([H])([H])[H])C23OC2([H])C([H])([H])C2(C([H])([H])[H])C4([H])C([H])(C([H])([H])C([H])(OC(=O)C([H])([H])[H])C2(C([H])([H])[H])C13[H])C4(C([H])([H])[H])C([H])([H])[H]

$$$$
21:0:2
     RDKit          3D

 58 62  0  0  1  0  0  0  0  0999 V2000
    1.1855   -1.8177    5.5015 C   0  0  0  0  0  0  0  0  0  0  0  0
    1.5337   -3.2067    4.9828 C   0  0  0  0  0  0  0  0  0  0  0  0
    0.6533   -3.9465    4.5365 O   0  0  0  0  0  0  0  0  0  0  0  0
    2.8641   -3.4852    5.0865 O   0  0  0  0  0  0  0  0  0  0  0  0
    3.2911   -4.7066    4.5490 C   0  0  2  0  0  0  0  0  0  0  0  0
    4.5779   -5.0717    5.0106 O   0  0  0  0  0  0  0  0  0  0  0  0
    5.4958   -5.1864    3.9455 C   0  0  1  0  0  0  0  0  0  0  0  0
    5.5823   -6.5243    3.5045 O   0  0  0  0  0  0  0  0  0  0  0  0
    4.8895   -4.2585    2.8901 C   0  0  2  0  0  0  0  0  0  0  0  0
    3.4359   -4.5713    3.0519 C   0  0  1  0  0  0  0  0  0  0  0  0
    2.8809   -5.7487    2.4385 O   0  0  0  0  0  0  0  0  0  0  0  0
    2.4772   -4.5046    1.9074 C   0  0  2  0  0  0  0  0  0  0  0  0
    3.0069   -4.1845    0.5307 C   0  0  0  0  0  0  0  0  0  0  0  0
    4.4950   -4.6089    0.2776 C   0  0  1  0  0  0  0  0  0  0  0  0
    4.5357   -6.1679    0.2265 C   0  0  0  0  0  0  0  0  0  0  0  0
    4.9300   -4.1784   -1.1498 C   0  0  2  0  0  0  0  0  0  0  0  0
    5.8875   -3.0170   -1.3458 C   0  0  2  0  0  0  0  0  0  0  0  0
    6.2860   -2.1288   -0.1813 C   0  0  0  0  0  0  0  0  0  0  0  0
    5.7628   -2.5568    1.2120 C   0  0  1  0  0  0  0  0  0  0  0  0
    4.6430   -1.7369    1.5526 O   0  0  0  0  0  0  0  0  0  0  0  0
    4.7724   -0.6634    2.3589 C   0  0  0  0  0  0  0  0  0  0  0  0
    3.4523    0.0630    2.5714 C   0  0  0  0  0  0  0  0  0  0  0  0
    5.8100   -0.2791    2.8954 O   0  0  0  0  0  0  0  0  0  0  0  0
    5.4885   -4.0937    1.4154 C   0  0  1  0  0  0  0  0  0  0  0  0
    6.8919   -4.7658    1.2861 C   0  0  0  0  0  0  0  0  0  0  0  0
    4.5386   -2.9661   -2.0085 C   0  0  0  0  0  0  0  0  0  0  0  0
    4.4473   -3.1961   -3.5069 C   0  0  0  0  0  0  0  0  0  0  0  0
    3.5440   -1.8802   -1.6472 C   0  0  0  0  0  0  0  0  0  0  0  0
    1.6443   -1.0540    4.8746 H   0  0  0  0  0  0  0  0  0  0  0  0
    1.5519   -1.6968    6.5205 H   0  0  0  0  0  0  0  0  0  0  0  0
    0.1060   -1.6587    5.4960 H   0  0  0  0  0  0  0  0  0  0  0  0
    2.5970   -5.5037    4.8225 H   0  0  0  0  0  0  0  0  0  0  0  0
    6.4884   -4.8849    4.2840 H   0  0  0  0  0  0  0  0  0  0  0  0
    5.9523   -7.0459    4.1975 H   0  0  0  0  0  0  0  0  0  0  0  0
    5.0171   -3.2953    3.3799 H   0  0  0  0  0  0  0  0  0  0  0  0
    1.4383   -4.2506    2.0937 H   0  0  0  0  0  0  0  0  0  0  0  0
    2.3428   -4.6162   -0.2184 H   0  0  0  0  0  0  0  0  0  0  0  0
    2.8862   -3.1121    0.4523 H   0  0  0  0  0  0  0  0  0  0  0  0
    5.4185   -6.5441   -0.2730 H   0  0  0  0  0  0  0  0  0  0  0  0
    3.6824   -6.5668   -0.3173 H   0  0  0  0  0  0  0  0  0  0  0  0
    4.5501   -6.6614    1.1910 H   0  0  0  0  0  0  0  0  0  0  0  0
    5.1230   -5.0417   -1.7800 H   0  0  0  0  0  0  0  0  0  0  0  0
    6.7206   -3.2031   -2.0212 H   0  0  0  0  0  0  0  0  0  0  0  0
    7.3760   -2.1364   -0.1436 H   0  0  0  0  0  0  0  0  0  0  0  0
    6.0155   -1.0959   -0.4047 H   0  0  0  0  0  0  0  0  0  0  0  0
    6.5674   -2.3077    1.9078 H   0  0  0  0  0  0  0  0  0  0  0  0
    3.0523    0.4058    1.6170 H   0  0  0  0  0  0  0  0  0  0  0  0
    3.5941    0.9286    3.2200 H   0  0  0  0  0  0  0  0  0  0  0  0
    2.7273   -0.6049    3.0342 H   0  0  0  0  0  0  0  0  0  0  0  0
    7.3195   -4.6199    0.2941 H   0  0  0  0  0  0  0  0  0  0  0  0
    6.8803   -5.8455    1.4468 H   0  0  0  0  0  0  0  0  0  0  0  0
    7.6094   -4.3488    1.9955 H   0  0  0  0  0  0  0  0  0  0  0  0
    4.6086   -2.2640   -4.0496 H   0  0  0  0  0  0  0  0  0  0  0  0
    3.4612   -3.5852   -3.7650 H   0  0  0  0  0  0  0  0  0  0  0  0
    5.1962   -3.9176   -3.8392 H   0  0  0  0  0  0  0  0  0  0  0  0
    2.5312   -2.2755   -1.7342 H   0  0  0  0  0  0  0  0  0  0  0  0
    3.6402   -1.0280   -2.3213 H   0  0  0  0  0  0  0  0  0  0  0  0
    3.6887   -1.4951   -0.6431 H   0  0  0  0  0  0  0  0  0  0  0  0
  1  2  1  0
  1 29  1  0
  1 30  1  0
  1 31  1  0
  2  3  2  0
  2  4  1  0
  4  5  1  0
  5 10  1  0
  5  6  1  0
  5 32  1  6
  6  7  1  0
  7  8  1  0
  7  9  1  0
  7 33  1  1
  8 34  1  0
  9 24  1  0
  9 10  1  0
  9 35  1  1
 10 12  1  0
 10 11  1  6
 11 12  1  0
 12 13  1  0
 12 36  1  1
 13 14  1  0
 13 37  1  0
 13 38  1  0
 14 24  1  0
 14 15  1  6
 14 16  1  0
 15 39  1  0
 15 40  1  0
 15 41  1  0
 16 26  1  0
 16 17  1  0
 16 42  1  6
 17 18  1  0
 17 26  1  0
 17 43  1  6
 18 19  1  0
 18 44  1  0
 18 45  1  0
 19 20  1  0
 19 24  1  0
 19 46  1  1
 20 21  1  0
 21 22  1  0
 21 23  2  0
 22 47  1  0
 22 48  1  0
 22 49  1  0
 24 25  1  1
 25 50  1  0
 25 51  1  0
 25 52  1  0
 26 27  1  0
 26 28  1  0
 27 53  1  0
 27 54  1  0
 27 55  1  0
 28 56  1  0
 28 57  1  0
 28 58  1  0
M  END
>  <i_m_ct_stereo_status>  (74) 
1

>  <s_m_source_file>  (74) 
/var/tmp/pbs.5076255.sched01/tmp7e7yg0hy/0s0dyhj_r.sdf

>  <i_m_source_file_index>  (74) 
33

>  <i_lp_mmshare_version>  (74) 
48012

>  <i_f3d_flags>  (74) 
0

>  <s_epik_input>  (74) 
W0NIM11DKD1PKU9bQ0BASF0xT1tDQEBIXShbT0hdKVtDQEhdKFtDQF0xMjMpW0NAQF00KFtDSDNdKVtDQEBdKFtDSDNdKShbQ0gyXVtDQEhdM08yKVtDQEBIXTVbQ0BASF0oQzUoW0NIM10pW0NIM10pW0NIMl1bQ0BIXTRPQyg9TylbQ0gzXQ==

>  <s_epik_cmdline>  (74) 
J2VwaWtfcHl0aG9uJywgJy1waHQnLCAnMi4wJywgJy1waCcsICc3LjAnLCAnLXRuJywgJzgnLCAnLW1hJywgJzIwMCcsICctaW1hZScsICc8aW5maWxlLm1hZT4nLCAnLW9tYWUnLCAnPG91dGZpbGUubWFlPic=

>  <r_lp_tautomer_probability>  (74) 
1

>  <r_epik_Ionization_Penalty>  (74) 
5.3347e-07

>  <r_epik_Ionization_Penalty_Charging>  (74) 
0

>  <r_epik_Ionization_Penalty_Neutral>  (74) 
5.3347e-07

>  <r_epik_State_Penalty>  (74) 
-0

>  <r_epik_Charging_Adjusted_Penalty>  (74) 
0

>  <i_epik_Tot_Q>  (74) 
0

>  <i_epik_Tot_abs_Q>  (74) 
0

>  <s_epik_Chemistry_Notes>  (74) 
This compound has an ester and may undergo hydrolysis at high or low pH. This compound contains an acetal/aminal-like group ( X-CH(R)-Y where X, Y are N, S, or O) that may be acid/base labile, releasing an aldehyde.

>  <s_lp_Force_Field>  (74) 
OPLS3e

>  <r_lp_Energy>  (74) 
80.3014

>  <b_lp_Chiralities_Consistent>  (74) 
1

>  <s_lp_Variant>  (74) 
21:0-1

>  <s_i_glide_gridfile>  (74) 
pfpi4k_grid

>  <i_i_glide_lignum>  (74) 
33

>  <i_i_glide_rotatable_bonds>  (74) 
5

>  <r_i_docking_score>  (74) 
-2.75353

>  <r_i_glide_ligand_efficiency>  (74) 
-0.0983405

>  <r_i_glide_ligand_efficiency_sa>  (74) 
-0.29862

>  <r_i_glide_ligand_efficiency_ln>  (74) 
-0.635596

>  <r_i_glide_gscore>  (74) 
-2.75353

>  <r_i_glide_lipo>  (74) 
-0.67067

>  <r_i_glide_hbond>  (74) 
-0.089998

>  <r_i_glide_metal>  (74) 
-0

>  <r_i_glide_rewards>  (74) 
-0.867928

>  <r_i_glide_evdw>  (74) 
-28.0556

>  <r_i_glide_ecoul>  (74) 
0.177444

>  <r_i_glide_erotb>  (74) 
0.251226

>  <r_i_glide_esite>  (74) 
0

>  <r_i_glide_emodel>  (74) 
-31.0705

>  <r_i_glide_energy>  (74) 
-27.8782

>  <r_i_glide_einternal>  (74) 
3.75578

>  <r_i_glide_intrahb_reward>  (74) 
-0

>  <i_i_glide_confnum>  (74) 
2

>  <i_i_glide_posenum>  (74) 
37

>  <r_i_glide_eff_state_penalty>  (74) 
0

>  <ligand_id>  (74) 
21

>  <original_smiles>  (74) 
CC(=O)OC1OC(O)C2C13OC3CC1(C)C3C(CC(OC(C)=O)C21C)C3(C)C

>  <smiles>  (74) 
[H]OC1([H])OC([H])(OC(=O)C([H])([H])[H])C23OC2([H])C([H])([H])C2(C([H])([H])[H])C4([H])C([H])(C([H])([H])C([H])(OC(=O)C([H])([H])[H])C2(C([H])([H])[H])C13[H])C4(C([H])([H])[H])C([H])([H])[H]

$$$$
22:0:0
     RDKit          3D

 63 67  0  0  1  0  0  0  0  0999 V2000
    1.1290   -4.4491   -1.5217 C   0  0  0  0  0  0  0  0  0  0  0  0
    1.8164   -4.7143   -0.3122 O   0  0  0  0  0  0  0  0  0  0  0  0
    2.5940   -3.6695    0.1292 C   0  0  2  0  0  0  0  0  0  0  0  0
    3.8256   -3.5895   -0.7944 C   0  0  0  0  0  0  0  0  0  0  0  0
    5.1467   -3.2025   -0.1486 C   0  0  2  0  0  0  0  0  0  0  0  0
    5.9674   -4.1718    0.7567 C   0  0  1  0  0  0  0  0  0  0  0  0
    7.4478   -3.8421    0.3991 C   0  0  0  0  0  0  0  0  0  0  0  0
    8.4326   -4.7736    0.3902 C   0  0  0  0  0  0  0  0  0  0  0  0
    8.2337   -6.1977    0.9879 C   0  0  0  0  0  0  0  0  0  0  0  0
    6.8536   -6.3040    1.7442 C   0  0  2  0  0  0  0  0  0  0  0  0
    7.6757   -5.5314    2.6227 O   0  0  0  0  0  0  0  0  0  0  0  0
    6.0862   -6.1790    3.1227 C   0  0  0  0  0  0  0  0  0  0  0  0
    5.3069   -4.8013    3.2721 C   0  0  0  0  0  0  0  0  0  0  0  0
    5.6651   -3.6809    2.2003 C   0  0  2  0  0  0  0  0  0  0  0  0
    4.7864   -2.4059    2.0838 C   0  0  2  0  0  0  0  0  0  0  0  0
    5.0531   -1.3817    3.2129 C   0  0  0  0  0  0  0  0  0  0  0  0
    3.2856   -2.7800    2.2010 C   0  0  0  0  0  0  0  0  0  0  0  0
    2.9532   -3.9218    1.4330 O   0  0  0  0  0  0  0  0  0  0  0  0
    5.1995   -1.8895    0.6639 C   0  0  2  0  0  0  0  0  0  0  0  0
    4.3089   -0.7561    0.1100 C   0  0  0  0  0  0  0  0  0  0  0  0
    6.6933   -1.3893    0.5855 C   0  0  0  0  0  0  0  0  0  0  0  0
    7.7440   -2.3933    0.0244 C   0  0  0  0  0  0  0  0  0  0  0  0
    5.8678   -5.7180    0.6706 C   0  0  1  0  0  0  0  0  0  0  0  0
    4.5046   -6.4590    0.6426 C   0  0  0  0  0  0  0  0  0  0  0  0
    4.6182   -8.0046    0.6581 C   0  0  0  0  0  0  0  0  0  0  0  0
    3.5314   -8.7044    1.4913 C   0  0  0  0  0  0  0  0  0  0  0  0
    4.0627   -9.8747    2.0581 O   0  0  0  0  0  0  0  0  0  0  0  0
    0.6303   -5.3713   -1.8014 H   0  0  0  0  0  0  0  0  0  0  0  0
    1.8035   -4.2273   -2.3518 H   0  0  0  0  0  0  0  0  0  0  0  0
    0.4031   -3.6284   -1.5040 H   0  0  0  0  0  0  0  0  0  0  0  0
    1.9701   -2.7623    0.1047 H   0  0  0  0  0  0  0  0  0  0  0  0
    3.9590   -4.5179   -1.3405 H   0  0  0  0  0  0  0  0  0  0  0  0
    3.5802   -2.8655   -1.5673 H   0  0  0  0  0  0  0  0  0  0  0  0
    5.6965   -3.0704   -1.0708 H   0  0  0  0  0  0  0  0  0  0  0  0
    9.4122   -4.5315    0.0388 H   0  0  0  0  0  0  0  0  0  0  0  0
    8.1905   -6.8700    0.1305 H   0  0  0  0  0  0  0  0  0  0  0  0
    9.1157   -6.5883    1.5048 H   0  0  0  0  0  0  0  0  0  0  0  0
    8.3081   -6.1120    3.0423 H   0  0  0  0  0  0  0  0  0  0  0  0
    5.3118   -6.9429    3.0781 H   0  0  0  0  0  0  0  0  0  0  0  0
    6.5506   -6.5350    4.0657 H   0  0  0  0  0  0  0  0  0  0  0  0
    4.2412   -5.0277    3.2816 H   0  0  0  0  0  0  0  0  0  0  0  0
    5.5191   -4.4221    4.2700 H   0  0  0  0  0  0  0  0  0  0  0  0
    6.6037   -3.2565    2.4905 H   0  0  0  0  0  0  0  0  0  0  0  0
    4.5731   -0.4301    2.9892 H   0  0  0  0  0  0  0  0  0  0  0  0
    6.1070   -1.1780    3.3714 H   0  0  0  0  0  0  0  0  0  0  0  0
    4.6641   -1.7269    4.1706 H   0  0  0  0  0  0  0  0  0  0  0  0
    3.0831   -3.0777    3.2267 H   0  0  0  0  0  0  0  0  0  0  0  0
    2.6126   -1.9350    2.0277 H   0  0  0  0  0  0  0  0  0  0  0  0
    4.4585    0.1636    0.6777 H   0  0  0  0  0  0  0  0  0  0  0  0
    3.2458   -0.9777    0.1373 H   0  0  0  0  0  0  0  0  0  0  0  0
    4.5594   -0.5411   -0.9283 H   0  0  0  0  0  0  0  0  0  0  0  0
    6.7361   -0.4823   -0.0118 H   0  0  0  0  0  0  0  0  0  0  0  0
    7.0581   -1.0602    1.5534 H   0  0  0  0  0  0  0  0  0  0  0  0
    8.7440   -2.1253    0.3749 H   0  0  0  0  0  0  0  0  0  0  0  0
    7.7845   -2.3390   -1.0663 H   0  0  0  0  0  0  0  0  0  0  0  0
    6.2368   -5.9541   -0.3227 H   0  0  0  0  0  0  0  0  0  0  0  0
    3.8817   -6.1235    1.4657 H   0  0  0  0  0  0  0  0  0  0  0  0
    3.9383   -6.2202   -0.2527 H   0  0  0  0  0  0  0  0  0  0  0  0
    4.6136   -8.3789   -0.3651 H   0  0  0  0  0  0  0  0  0  0  0  0
    5.5911   -8.3149    1.0416 H   0  0  0  0  0  0  0  0  0  0  0  0
    3.2130   -8.0831    2.3303 H   0  0  0  0  0  0  0  0  0  0  0  0
    2.6527   -8.9323    0.8889 H   0  0  0  0  0  0  0  0  0  0  0  0
    4.1333  -10.5564    1.3856 H   0  0  0  0  0  0  0  0  0  0  0  0
  1  2  1  0
  1 28  1  0
  1 29  1  0
  1 30  1  0
  2  3  1  0
  3 18  1  0
  3  4  1  0
  3 31  1  1
  4  5  1  0
  4 32  1  0
  4 33  1  0
  5 19  1  0
  5  6  1  0
  5 34  1  6
  6 14  1  0
  6 23  1  0
  6  7  1  6
  7 22  1  0
  7  8  2  0
  8  9  1  0
  8 35  1  0
  9 10  1  0
  9 36  1  0
  9 37  1  0
 10 11  1  1
 10 12  1  0
 10 23  1  0
 11 38  1  0
 12 13  1  0
 12 39  1  0
 12 40  1  0
 13 14  1  0
 13 41  1  0
 13 42  1  0
 14 15  1  0
 14 43  1  1
 15 16  1  1
 15 17  1  0
 15 19  1  0
 16 44  1  0
 16 45  1  0
 16 46  1  0
 17 18  1  0
 17 47  1  0
 17 48  1  0
 19 20  1  6
 19 21  1  0
 20 49  1  0
 20 50  1  0
 20 51  1  0
 21 22  1  0
 21 52  1  0
 21 53  1  0
 22 54  1  0
 22 55  1  0
 23 24  1  0
 23 56  1  6
 24 25  1  0
 24 57  1  0
 24 58  1  0
 25 26  1  0
 25 59  1  0
 25 60  1  0
 26 27  1  0
 26 61  1  0
 26 62  1  0
 27 63  1  0
M  END
>  <i_m_ct_stereo_status>  (75) 
1

>  <s_m_source_file>  (75) 
/var/tmp/pbs.5076255.sched01/tmp7e7yg0hy/0s0dyhj_r.sdf

>  <i_m_source_file_index>  (75) 
34

>  <i_lp_mmshare_version>  (75) 
48012

>  <i_f3d_flags>  (75) 
2

>  <s_epik_input>  (75) 
W0NIM11PW0NASF0oW0NIMl0xKU9bQ0gyXVtDQF0oW0NIM10pKFtDQEBdMihbQ0BIXTFDMzQ1KVtDSDNdKVtDQEhdNFtDSDJdW0NIMl1bQ0BAXShbT0hdKShbQ0gyXVtDSF09QzNbQ0gyXVtDSDJdMilbQ0BIXTVbQ0gyXVtDSDJdW0NIMl1bT0hd

>  <s_epik_cmdline>  (75) 
J2VwaWtfcHl0aG9uJywgJy1waHQnLCAnMi4wJywgJy1waCcsICc3LjAnLCAnLXRuJywgJzgnLCAnLW1hJywgJzIwMCcsICctaW1hZScsICc8aW5maWxlLm1hZT4nLCAnLW9tYWUnLCAnPG91dGZpbGUubWFlPic=

>  <r_lp_tautomer_probability>  (75) 
1

>  <r_epik_Ionization_Penalty>  (75) 
2.60401e-06

>  <r_epik_Ionization_Penalty_Charging>  (75) 
0

>  <r_epik_Ionization_Penalty_Neutral>  (75) 
2.60401e-06

>  <r_epik_State_Penalty>  (75) 
-0

>  <r_epik_Charging_Adjusted_Penalty>  (75) 
0

>  <i_epik_Tot_Q>  (75) 
0

>  <i_epik_Tot_abs_Q>  (75) 
0

>  <s_epik_Chemistry_Notes>  (75) 
This compound contains an acetal/aminal-like group ( X-CH(R)-Y where X, Y are N, S, or O) that may be acid/base labile, releasing an aldehyde.

>  <s_lp_Force_Field>  (75) 
OPLS3e

>  <r_lp_Energy>  (75) 
197.93

>  <b_lp_Chiralities_Consistent>  (75) 
0

>  <s_lp_Variant>  (75) 
22:0-1

>  <s_i_glide_gridfile>  (75) 
pfpi4k_grid

>  <i_i_glide_lignum>  (75) 
34

>  <i_i_glide_rotatable_bonds>  (75) 
6

>  <r_i_docking_score>  (75) 
-3.21459

>  <r_i_glide_ligand_efficiency>  (75) 
-0.119059

>  <r_i_glide_ligand_efficiency_sa>  (75) 
-0.357177

>  <r_i_glide_ligand_efficiency_ln>  (75) 
-0.748304

>  <r_i_glide_gscore>  (75) 
-3.21459

>  <r_i_glide_lipo>  (75) 
-0.948589

>  <r_i_glide_hbond>  (75) 
-0.187616

>  <r_i_glide_metal>  (75) 
-0

>  <r_i_glide_rewards>  (75) 
-0.841844

>  <r_i_glide_evdw>  (75) 
-19.924

>  <r_i_glide_ecoul>  (75) 
-4.10444

>  <r_i_glide_erotb>  (75) 
0.409636

>  <r_i_glide_esite>  (75) 
-0.0343111

>  <r_i_glide_emodel>  (75) 
-22.9174

>  <r_i_glide_energy>  (75) 
-24.0284

>  <r_i_glide_einternal>  (75) 
7.99349

>  <r_i_glide_intrahb_reward>  (75) 
-0

>  <i_i_glide_confnum>  (75) 
2

>  <i_i_glide_posenum>  (75) 
1

>  <r_i_glide_eff_state_penalty>  (75) 
0

>  <ligand_id>  (75) 
22

>  <original_smiles>  (75) 
COC1CC2C34C5=CCC(O)(CCC3C(C)(CO1)C2(C)CC5)C4CCCO

>  <smiles>  (75) 
[H]OC([H])([H])C([H])([H])C([H])([H])C1([H])C2(O[H])C([H])([H])C([H])=C3C([H])([H])C([H])([H])C4(C([H])([H])[H])C5([H])C([H])([H])C([H])(OC([H])([H])[H])OC([H])([H])C4(C([H])([H])[H])C([H])(C([H])([H])C2([H])[H])C315

$$$$
22:0:1
     RDKit          3D

 63 67  0  0  1  0  0  0  0  0999 V2000
    1.5972   -3.3797   -2.0874 C   0  0  0  0  0  0  0  0  0  0  0  0
    1.9260   -3.4597   -0.7212 O   0  0  0  0  0  0  0  0  0  0  0  0
    3.0286   -2.7124   -0.3468 C   0  0  2  0  0  0  0  0  0  0  0  0
    4.2527   -3.3908   -1.0012 C   0  0  0  0  0  0  0  0  0  0  0  0
    5.5542   -3.3781   -0.2158 C   0  0  2  0  0  0  0  0  0  0  0  0
    5.8099   -4.2855    1.0360 C   0  0  1  0  0  0  0  0  0  0  0  0
    7.3069   -4.6656    0.9042 C   0  0  0  0  0  0  0  0  0  0  0  0
    7.8173   -5.8573    1.3169 C   0  0  0  0  0  0  0  0  0  0  0  0
    6.9740   -6.8549    2.1747 C   0  0  0  0  0  0  0  0  0  0  0  0
    5.5986   -6.2199    2.6592 C   0  0  2  0  0  0  0  0  0  0  0  0
    6.5992   -5.6124    3.4767 O   0  0  0  0  0  0  0  0  0  0  0  0
    4.8648   -5.3530    3.7875 C   0  0  0  0  0  0  0  0  0  0  0  0
    4.7448   -3.8176    3.4425 C   0  0  0  0  0  0  0  0  0  0  0  0
    5.6162   -3.3116    2.2324 C   0  0  2  0  0  0  0  0  0  0  0  0
    5.3643   -1.8965    1.6578 C   0  0  2  0  0  0  0  0  0  0  0  0
    5.9225   -0.7620    2.5372 C   0  0  0  0  0  0  0  0  0  0  0  0
    3.8349   -1.6047    1.5562 C   0  0  0  0  0  0  0  0  0  0  0  0
    3.1162   -2.7081    1.0262 O   0  0  0  0  0  0  0  0  0  0  0  0
    6.0764   -2.0109    0.2679 C   0  0  2  0  0  0  0  0  0  0  0  0
    5.7704   -0.8477   -0.6908 C   0  0  0  0  0  0  0  0  0  0  0  0
    7.6392   -2.1632    0.3360 C   0  0  0  0  0  0  0  0  0  0  0  0
    8.2128   -3.6064    0.2723 C   0  0  0  0  0  0  0  0  0  0  0  0
    5.0571   -5.6386    1.2882 C   0  0  1  0  0  0  0  0  0  0  0  0
    3.5210   -5.7413    1.1822 C   0  0  0  0  0  0  0  0  0  0  0  0
    2.9681   -7.1282    1.5589 C   0  0  0  0  0  0  0  0  0  0  0  0
    1.4409   -7.2540    1.4039 C   0  0  0  0  0  0  0  0  0  0  0  0
    0.7484   -6.3532    2.2528 O   0  0  0  0  0  0  0  0  0  0  0  0
    0.6371   -3.8427   -2.0990 H   0  0  0  0  0  0  0  0  0  0  0  0
    2.2986   -3.8818   -2.7573 H   0  0  0  0  0  0  0  0  0  0  0  0
    1.4963   -2.3687   -2.4524 H   0  0  0  0  0  0  0  0  0  0  0  0
    2.8497   -1.6889   -0.6988 H   0  0  0  0  0  0  0  0  0  0  0  0
    4.0266   -4.4262   -1.2642 H   0  0  0  0  0  0  0  0  0  0  0  0
    4.4028   -2.8950   -1.9582 H   0  0  0  0  0  0  0  0  0  0  0  0
    6.1698   -3.7419   -1.0311 H   0  0  0  0  0  0  0  0  0  0  0  0
    8.8385   -6.1402    1.1475 H   0  0  0  0  0  0  0  0  0  0  0  0
    6.7180   -7.6582    1.4778 H   0  0  0  0  0  0  0  0  0  0  0  0
    7.5864   -7.4105    2.8963 H   0  0  0  0  0  0  0  0  0  0  0  0
    7.4179   -5.6146    2.9587 H   0  0  0  0  0  0  0  0  0  0  0  0
    3.8357   -5.7046    3.8012 H   0  0  0  0  0  0  0  0  0  0  0  0
    5.0497   -5.5393    4.8677 H   0  0  0  0  0  0  0  0  0  0  0  0
    3.6864   -3.5976    3.3013 H   0  0  0  0  0  0  0  0  0  0  0  0
    5.0310   -3.2663    4.3386 H   0  0  0  0  0  0  0  0  0  0  0  0
    6.6130   -3.1844    2.6027 H   0  0  0  0  0  0  0  0  0  0  0  0
    5.8567    0.1694    1.9895 H   0  0  0  0  0  0  0  0  0  0  0  0
    6.9620   -0.8754    2.8299 H   0  0  0  0  0  0  0  0  0  0  0  0
    5.3654   -0.6378    3.4659 H   0  0  0  0  0  0  0  0  0  0  0  0
    3.4493   -1.4695    2.5645 H   0  0  0  0  0  0  0  0  0  0  0  0
    3.6111   -0.6528    1.0546 H   0  0  0  0  0  0  0  0  0  0  0  0
    6.2328    0.0592   -0.2982 H   0  0  0  0  0  0  0  0  0  0  0  0
    4.7140   -0.6208   -0.8205 H   0  0  0  0  0  0  0  0  0  0  0  0
    6.1759   -1.0550   -1.6770 H   0  0  0  0  0  0  0  0  0  0  0  0
    8.1154   -1.6141   -0.4673 H   0  0  0  0  0  0  0  0  0  0  0  0
    8.0016   -1.6442    1.2095 H   0  0  0  0  0  0  0  0  0  0  0  0
    9.1923   -3.6405    0.7358 H   0  0  0  0  0  0  0  0  0  0  0  0
    8.3498   -3.8861   -0.7706 H   0  0  0  0  0  0  0  0  0  0  0  0
    5.3636   -6.2844    0.4631 H   0  0  0  0  0  0  0  0  0  0  0  0
    3.0154   -4.9898    1.7729 H   0  0  0  0  0  0  0  0  0  0  0  0
    3.1916   -5.5803    0.1679 H   0  0  0  0  0  0  0  0  0  0  0  0
    3.4495   -7.8820    0.9270 H   0  0  0  0  0  0  0  0  0  0  0  0
    3.2209   -7.4206    2.5834 H   0  0  0  0  0  0  0  0  0  0  0  0
    1.1280   -7.0537    0.3748 H   0  0  0  0  0  0  0  0  0  0  0  0
    1.1371   -8.2777    1.6537 H   0  0  0  0  0  0  0  0  0  0  0  0
    1.0592   -6.5088    3.1415 H   0  0  0  0  0  0  0  0  0  0  0  0
  1  2  1  0
  1 28  1  0
  1 29  1  0
  1 30  1  0
  2  3  1  0
  3 18  1  0
  3  4  1  0
  3 31  1  6
  4  5  1  0
  4 32  1  0
  4 33  1  0
  5 19  1  0
  5  6  1  0
  5 34  1  6
  6 14  1  0
  6 23  1  0
  6  7  1  6
  7 22  1  0
  7  8  2  0
  8  9  1  0
  8 35  1  0
  9 10  1  0
  9 36  1  0
  9 37  1  0
 10 11  1  6
 10 12  1  0
 10 23  1  0
 11 38  1  0
 12 13  1  0
 12 39  1  0
 12 40  1  0
 13 14  1  0
 13 41  1  0
 13 42  1  0
 14 15  1  0
 14 43  1  1
 15 16  1  1
 15 17  1  0
 15 19  1  0
 16 44  1  0
 16 45  1  0
 16 46  1  0
 17 18  1  0
 17 47  1  0
 17 48  1  0
 19 20  1  6
 19 21  1  0
 20 49  1  0
 20 50  1  0
 20 51  1  0
 21 22  1  0
 21 52  1  0
 21 53  1  0
 22 54  1  0
 22 55  1  0
 23 24  1  0
 23 56  1  6
 24 25  1  0
 24 57  1  0
 24 58  1  0
 25 26  1  0
 25 59  1  0
 25 60  1  0
 26 27  1  0
 26 61  1  0
 26 62  1  0
 27 63  1  0
M  END
>  <i_m_ct_stereo_status>  (76) 
1

>  <s_m_source_file>  (76) 
/var/tmp/pbs.5076255.sched01/tmp7e7yg0hy/0s0dyhj_r.sdf

>  <i_m_source_file_index>  (76) 
34

>  <i_lp_mmshare_version>  (76) 
48012

>  <i_f3d_flags>  (76) 
2

>  <s_epik_input>  (76) 
W0NIM11PW0NASF0oW0NIMl0xKU9bQ0gyXVtDQF0oW0NIM10pKFtDQEBdMihbQ0BIXTFDMzQ1KVtDSDNdKVtDQEhdNFtDSDJdW0NIMl1bQ0BAXShbT0hdKShbQ0gyXVtDSF09QzNbQ0gyXVtDSDJdMilbQ0BIXTVbQ0gyXVtDSDJdW0NIMl1bT0hd

>  <s_epik_cmdline>  (76) 
J2VwaWtfcHl0aG9uJywgJy1waHQnLCAnMi4wJywgJy1waCcsICc3LjAnLCAnLXRuJywgJzgnLCAnLW1hJywgJzIwMCcsICctaW1hZScsICc8aW5maWxlLm1hZT4nLCAnLW9tYWUnLCAnPG91dGZpbGUubWFlPic=

>  <r_lp_tautomer_probability>  (76) 
1

>  <r_epik_Ionization_Penalty>  (76) 
2.60401e-06

>  <r_epik_Ionization_Penalty_Charging>  (76) 
0

>  <r_epik_Ionization_Penalty_Neutral>  (76) 
2.60401e-06

>  <r_epik_State_Penalty>  (76) 
-0

>  <r_epik_Charging_Adjusted_Penalty>  (76) 
0

>  <i_epik_Tot_Q>  (76) 
0

>  <i_epik_Tot_abs_Q>  (76) 
0

>  <s_epik_Chemistry_Notes>  (76) 
This compound contains an acetal/aminal-like group ( X-CH(R)-Y where X, Y are N, S, or O) that may be acid/base labile, releasing an aldehyde.

>  <s_lp_Force_Field>  (76) 
OPLS3e

>  <r_lp_Energy>  (76) 
197.93

>  <b_lp_Chiralities_Consistent>  (76) 
0

>  <s_lp_Variant>  (76) 
22:0-1

>  <s_i_glide_gridfile>  (76) 
pfpi4k_grid

>  <i_i_glide_lignum>  (76) 
34

>  <i_i_glide_rotatable_bonds>  (76) 
6

>  <r_i_docking_score>  (76) 
-2.82223

>  <r_i_glide_ligand_efficiency>  (76) 
-0.104527

>  <r_i_glide_ligand_efficiency_sa>  (76) 
-0.313581

>  <r_i_glide_ligand_efficiency_ln>  (76) 
-0.656969

>  <r_i_glide_gscore>  (76) 
-2.82223

>  <r_i_glide_lipo>  (76) 
-1.03265

>  <r_i_glide_hbond>  (76) 
-0.0404662

>  <r_i_glide_metal>  (76) 
-0

>  <r_i_glide_rewards>  (76) 
-0.841844

>  <r_i_glide_evdw>  (76) 
-16.1627

>  <r_i_glide_ecoul>  (76) 
-3.08746

>  <r_i_glide_erotb>  (76) 
0.409636

>  <r_i_glide_esite>  (76) 
-0.0456558

>  <r_i_glide_emodel>  (76) 
-19.5239

>  <r_i_glide_energy>  (76) 
-19.2501

>  <r_i_glide_einternal>  (76) 
5.31487

>  <r_i_glide_intrahb_reward>  (76) 
-0

>  <i_i_glide_confnum>  (76) 
5

>  <i_i_glide_posenum>  (76) 
4

>  <r_i_glide_eff_state_penalty>  (76) 
0

>  <ligand_id>  (76) 
22

>  <original_smiles>  (76) 
COC1CC2C34C5=CCC(O)(CCC3C(C)(CO1)C2(C)CC5)C4CCCO

>  <smiles>  (76) 
[H]OC([H])([H])C([H])([H])C([H])([H])C1([H])C2(O[H])C([H])([H])C([H])=C3C([H])([H])C([H])([H])C4(C([H])([H])[H])C5([H])C([H])([H])C([H])(OC([H])([H])[H])OC([H])([H])C4(C([H])([H])[H])C([H])(C([H])([H])C2([H])[H])C315

$$$$
22:0:2
     RDKit          3D

 63 67  0  0  1  0  0  0  0  0999 V2000
    1.1112   -4.4402   -1.5170 C   0  0  0  0  0  0  0  0  0  0  0  0
    1.8162   -4.7113   -0.3212 O   0  0  0  0  0  0  0  0  0  0  0  0
    2.5804   -3.6518    0.1316 C   0  0  2  0  0  0  0  0  0  0  0  0
    3.7995   -3.5690   -0.8010 C   0  0  0  0  0  0  0  0  0  0  0  0
    5.1235   -3.1976   -0.1524 C   0  0  2  0  0  0  0  0  0  0  0  0
    5.9493   -4.1702    0.7439 C   0  0  1  0  0  0  0  0  0  0  0  0
    7.4205   -3.8349    0.3792 C   0  0  0  0  0  0  0  0  0  0  0  0
    8.4032   -4.7693    0.3635 C   0  0  0  0  0  0  0  0  0  0  0  0
    8.2049   -6.1930    0.9428 C   0  0  0  0  0  0  0  0  0  0  0  0
    6.8327   -6.3377    1.7126 C   0  0  2  0  0  0  0  0  0  0  0  0
    7.6755   -5.5790    2.5909 O   0  0  0  0  0  0  0  0  0  0  0  0
    6.0928   -6.1634    3.1024 C   0  0  0  0  0  0  0  0  0  0  0  0
    5.3119   -4.7887    3.2517 C   0  0  0  0  0  0  0  0  0  0  0  0
    5.6675   -3.6719    2.1877 C   0  0  2  0  0  0  0  0  0  0  0  0
    4.7835   -2.4006    2.0730 C   0  0  2  0  0  0  0  0  0  0  0  0
    5.0615   -1.3724    3.1964 C   0  0  0  0  0  0  0  0  0  0  0  0
    3.2819   -2.7694    2.1936 C   0  0  0  0  0  0  0  0  0  0  0  0
    2.9530   -3.9152    1.4297 O   0  0  0  0  0  0  0  0  0  0  0  0
    5.1851   -1.8827    0.6501 C   0  0  2  0  0  0  0  0  0  0  0  0
    4.2923   -0.7447    0.1024 C   0  0  0  0  0  0  0  0  0  0  0  0
    6.6768   -1.3861    0.5567 C   0  0  0  0  0  0  0  0  0  0  0  0
    7.7172   -2.3956   -0.0108 C   0  0  0  0  0  0  0  0  0  0  0  0
    5.8371   -5.7210    0.6679 C   0  0  1  0  0  0  0  0  0  0  0  0
    4.4693   -6.4523    0.6564 C   0  0  0  0  0  0  0  0  0  0  0  0
    4.5979   -7.9876    0.5202 C   0  0  0  0  0  0  0  0  0  0  0  0
    3.4677   -8.7798    1.1962 C   0  0  0  0  0  0  0  0  0  0  0  0
    3.5890   -8.6807    2.5940 O   0  0  0  0  0  0  0  0  0  0  0  0
    0.6039   -5.3567   -1.7829 H   0  0  0  0  0  0  0  0  0  0  0  0
    1.7710   -4.2318   -2.3507 H   0  0  0  0  0  0  0  0  0  0  0  0
    0.3953   -3.6127   -1.4911 H   0  0  0  0  0  0  0  0  0  0  0  0
    1.9406   -2.7572    0.1207 H   0  0  0  0  0  0  0  0  0  0  0  0
    3.9314   -4.4931   -1.3571 H   0  0  0  0  0  0  0  0  0  0  0  0
    3.5459   -2.8365   -1.5685 H   0  0  0  0  0  0  0  0  0  0  0  0
    5.6638   -3.0658   -1.0780 H   0  0  0  0  0  0  0  0  0  0  0  0
    9.3851   -4.5408    0.0016 H   0  0  0  0  0  0  0  0  0  0  0  0
    8.1655   -6.8607    0.0855 H   0  0  0  0  0  0  0  0  0  0  0  0
    9.1087   -6.5658    1.4361 H   0  0  0  0  0  0  0  0  0  0  0  0
    8.3009   -6.1672    2.9889 H   0  0  0  0  0  0  0  0  0  0  0  0
    5.3164   -6.9186    3.0668 H   0  0  0  0  0  0  0  0  0  0  0  0
    6.5425   -6.5229    4.0511 H   0  0  0  0  0  0  0  0  0  0  0  0
    4.2453   -5.0109    3.2743 H   0  0  0  0  0  0  0  0  0  0  0  0
    5.5308   -4.4118    4.2453 H   0  0  0  0  0  0  0  0  0  0  0  0
    6.6060   -3.2512    2.4906 H   0  0  0  0  0  0  0  0  0  0  0  0
    4.5833   -0.4188    2.9761 H   0  0  0  0  0  0  0  0  0  0  0  0
    6.1178   -1.1704    3.3438 H   0  0  0  0  0  0  0  0  0  0  0  0
    4.6791   -1.7145    4.1582 H   0  0  0  0  0  0  0  0  0  0  0  0
    3.0876   -3.0613    3.2220 H   0  0  0  0  0  0  0  0  0  0  0  0
    2.6081   -1.9206    2.0306 H   0  0  0  0  0  0  0  0  0  0  0  0
    4.4488    0.1744    0.6654 H   0  0  0  0  0  0  0  0  0  0  0  0
    3.2299   -0.9631    0.1373 H   0  0  0  0  0  0  0  0  0  0  0  0
    4.5339   -0.5315   -0.9387 H   0  0  0  0  0  0  0  0  0  0  0  0
    6.7103   -0.4804   -0.0456 H   0  0  0  0  0  0  0  0  0  0  0  0
    7.0524   -1.0575    1.5176 H   0  0  0  0  0  0  0  0  0  0  0  0
    8.7195   -2.1300    0.3261 H   0  0  0  0  0  0  0  0  0  0  0  0
    7.7485   -2.3442   -1.1022 H   0  0  0  0  0  0  0  0  0  0  0  0
    6.2037   -5.9528   -0.3203 H   0  0  0  0  0  0  0  0  0  0  0  0
    3.8729   -6.1980    1.5238 H   0  0  0  0  0  0  0  0  0  0  0  0
    3.8607   -6.1525   -0.1837 H   0  0  0  0  0  0  0  0  0  0  0  0
    4.6174   -8.2246   -0.5431 H   0  0  0  0  0  0  0  0  0  0  0  0
    5.5462   -8.3645    0.9024 H   0  0  0  0  0  0  0  0  0  0  0  0
    2.4883   -8.4132    0.8845 H   0  0  0  0  0  0  0  0  0  0  0  0
    3.5537   -9.8326    0.9236 H   0  0  0  0  0  0  0  0  0  0  0  0
    2.9834   -9.2934    2.9932 H   0  0  0  0  0  0  0  0  0  0  0  0
  1  2  1  0
  1 28  1  0
  1 29  1  0
  1 30  1  0
  2  3  1  0
  3 18  1  0
  3  4  1  0
  3 31  1  1
  4  5  1  0
  4 32  1  0
  4 33  1  0
  5 19  1  0
  5  6  1  0
  5 34  1  6
  6 14  1  0
  6 23  1  0
  6  7  1  6
  7 22  1  0
  7  8  2  0
  8  9  1  0
  8 35  1  0
  9 10  1  0
  9 36  1  0
  9 37  1  0
 10 11  1  1
 10 12  1  0
 10 23  1  0
 11 38  1  0
 12 13  1  0
 12 39  1  0
 12 40  1  0
 13 14  1  0
 13 41  1  0
 13 42  1  0
 14 15  1  0
 14 43  1  1
 15 16  1  1
 15 17  1  0
 15 19  1  0
 16 44  1  0
 16 45  1  0
 16 46  1  0
 17 18  1  0
 17 47  1  0
 17 48  1  0
 19 20  1  6
 19 21  1  0
 20 49  1  0
 20 50  1  0
 20 51  1  0
 21 22  1  0
 21 52  1  0
 21 53  1  0
 22 54  1  0
 22 55  1  0
 23 24  1  0
 23 56  1  6
 24 25  1  0
 24 57  1  0
 24 58  1  0
 25 26  1  0
 25 59  1  0
 25 60  1  0
 26 27  1  0
 26 61  1  0
 26 62  1  0
 27 63  1  0
M  END
>  <i_m_ct_stereo_status>  (77) 
1

>  <s_m_source_file>  (77) 
/var/tmp/pbs.5076255.sched01/tmp7e7yg0hy/0s0dyhj_r.sdf

>  <i_m_source_file_index>  (77) 
34

>  <i_lp_mmshare_version>  (77) 
48012

>  <i_f3d_flags>  (77) 
2

>  <s_epik_input>  (77) 
W0NIM11PW0NASF0oW0NIMl0xKU9bQ0gyXVtDQF0oW0NIM10pKFtDQEBdMihbQ0BIXTFDMzQ1KVtDSDNdKVtDQEhdNFtDSDJdW0NIMl1bQ0BAXShbT0hdKShbQ0gyXVtDSF09QzNbQ0gyXVtDSDJdMilbQ0BIXTVbQ0gyXVtDSDJdW0NIMl1bT0hd

>  <s_epik_cmdline>  (77) 
J2VwaWtfcHl0aG9uJywgJy1waHQnLCAnMi4wJywgJy1waCcsICc3LjAnLCAnLXRuJywgJzgnLCAnLW1hJywgJzIwMCcsICctaW1hZScsICc8aW5maWxlLm1hZT4nLCAnLW9tYWUnLCAnPG91dGZpbGUubWFlPic=

>  <r_lp_tautomer_probability>  (77) 
1

>  <r_epik_Ionization_Penalty>  (77) 
2.60401e-06

>  <r_epik_Ionization_Penalty_Charging>  (77) 
0

>  <r_epik_Ionization_Penalty_Neutral>  (77) 
2.60401e-06

>  <r_epik_State_Penalty>  (77) 
-0

>  <r_epik_Charging_Adjusted_Penalty>  (77) 
0

>  <i_epik_Tot_Q>  (77) 
0

>  <i_epik_Tot_abs_Q>  (77) 
0

>  <s_epik_Chemistry_Notes>  (77) 
This compound contains an acetal/aminal-like group ( X-CH(R)-Y where X, Y are N, S, or O) that may be acid/base labile, releasing an aldehyde.

>  <s_lp_Force_Field>  (77) 
OPLS3e

>  <r_lp_Energy>  (77) 
197.93

>  <b_lp_Chiralities_Consistent>  (77) 
0

>  <s_lp_Variant>  (77) 
22:0-1

>  <s_i_glide_gridfile>  (77) 
pfpi4k_grid

>  <i_i_glide_lignum>  (77) 
34

>  <i_i_glide_rotatable_bonds>  (77) 
6

>  <r_i_docking_score>  (77) 
-2.78222

>  <r_i_glide_ligand_efficiency>  (77) 
-0.103045

>  <r_i_glide_ligand_efficiency_sa>  (77) 
-0.309135

>  <r_i_glide_ligand_efficiency_ln>  (77) 
-0.647655

>  <r_i_glide_gscore>  (77) 
-2.78222

>  <r_i_glide_lipo>  (77) 
-0.947711

>  <r_i_glide_hbond>  (77) 
-0.0269883

>  <r_i_glide_metal>  (77) 
-0

>  <r_i_glide_rewards>  (77) 
-0.841844

>  <r_i_glide_evdw>  (77) 
-20.1608

>  <r_i_glide_ecoul>  (77) 
-2.21674

>  <r_i_glide_erotb>  (77) 
0.409636

>  <r_i_glide_esite>  (77) 
-0.0347613

>  <r_i_glide_emodel>  (77) 
-22.0281

>  <r_i_glide_energy>  (77) 
-22.3775

>  <r_i_glide_einternal>  (77) 
6.66331

>  <r_i_glide_intrahb_reward>  (77) 
-0

>  <i_i_glide_confnum>  (77) 
5

>  <i_i_glide_posenum>  (77) 
13

>  <r_i_glide_eff_state_penalty>  (77) 
0

>  <ligand_id>  (77) 
22

>  <original_smiles>  (77) 
COC1CC2C34C5=CCC(O)(CCC3C(C)(CO1)C2(C)CC5)C4CCCO

>  <smiles>  (77) 
[H]OC([H])([H])C([H])([H])C([H])([H])C1([H])C2(O[H])C([H])([H])C([H])=C3C([H])([H])C([H])([H])C4(C([H])([H])[H])C5([H])C([H])([H])C([H])(OC([H])([H])[H])OC([H])([H])C4(C([H])([H])[H])C([H])(C([H])([H])C2([H])[H])C315

$$$$
23:0:0
     RDKit          3D

 34 36  0  0  1  0  0  0  0  0999 V2000
   -3.8190    3.4325    9.1115 C   0  0  0  0  0  0  0  0  0  0  0  0
   -2.4272    2.7874    9.0910 C   0  0  0  0  0  0  0  0  0  0  0  0
   -1.7291    2.8849    7.7356 C   0  0  0  0  0  0  0  0  0  0  0  0
   -2.5424    2.2740    6.5871 C   0  0  0  0  0  0  0  0  0  0  0  0
   -1.8433    2.3583    5.3180 N   0  0  0  0  0  0  0  0  0  0  0  0
   -1.4797    3.6510    4.7405 C   0  0  0  0  0  0  0  0  0  0  0  0
   -0.6869    3.3748    3.4632 C   0  0  0  0  0  0  0  0  0  0  0  0
   -0.3628    1.9242    3.6617 C   0  0  0  0  0  0  0  0  0  0  0  0
    0.4902    1.0749    2.9257 C   0  0  0  0  0  0  0  0  0  0  0  0
    1.2585    1.5209    1.7042 C   0  0  0  0  0  0  0  0  0  0  0  0
    0.6649   -0.1950    3.2733 N   0  0  0  0  0  0  0  0  0  0  0  0
   -0.0194   -0.6659    4.3311 C   0  0  0  0  0  0  0  0  0  0  0  0
    0.0171   -1.8979    4.8251 N   0  0  0  0  0  0  0  0  0  0  0  0
   -0.8542   -1.8010    5.8785 C   0  0  0  0  0  0  0  0  0  0  0  0
   -1.4451   -0.6161    6.0761 N   0  0  0  0  0  0  0  0  0  0  0  0
   -0.8770    0.0823    5.0698 N   0  0  0  0  0  0  0  0  0  0  0  0
   -1.0212    1.3915    4.7161 C   0  0  0  0  0  0  0  0  0  0  0  0
   -4.2626    3.3421   10.1019 H   0  0  0  0  0  0  0  0  0  0  0  0
   -4.5044    2.9468    8.4155 H   0  0  0  0  0  0  0  0  0  0  0  0
   -3.7651    4.4942    8.8576 H   0  0  0  0  0  0  0  0  0  0  0  0
   -1.7953    3.2637    9.8413 H   0  0  0  0  0  0  0  0  0  0  0  0
   -2.5020    1.7452    9.3762 H   0  0  0  0  0  0  0  0  0  0  0  0
   -1.5236    3.9388    7.5355 H   0  0  0  0  0  0  0  0  0  0  0  0
   -0.7631    2.3859    7.7806 H   0  0  0  0  0  0  0  0  0  0  0  0
   -2.8940    1.2647    6.8139 H   0  0  0  0  0  0  0  0  0  0  0  0
   -3.4338    2.8751    6.4351 H   0  0  0  0  0  0  0  0  0  0  0  0
   -2.3457    4.2883    4.5725 H   0  0  0  0  0  0  0  0  0  0  0  0
   -0.8184    4.1433    5.4471 H   0  0  0  0  0  0  0  0  0  0  0  0
   -1.3126    3.4867    2.5797 H   0  0  0  0  0  0  0  0  0  0  0  0
    0.2056    3.9962    3.3771 H   0  0  0  0  0  0  0  0  0  0  0  0
    1.0248    2.5447    1.4509 H   0  0  0  0  0  0  0  0  0  0  0  0
    0.9863    0.8923    0.8562 H   0  0  0  0  0  0  0  0  0  0  0  0
    2.3354    1.4352    1.8647 H   0  0  0  0  0  0  0  0  0  0  0  0
   -1.0514   -2.6507    6.5134 H   0  0  0  0  0  0  0  0  0  0  0  0
  1  2  1  0
  1 18  1  0
  1 19  1  0
  1 20  1  0
  2  3  1  0
  2 21  1  0
  2 22  1  0
  3  4  1  0
  3 23  1  0
  3 24  1  0
  4  5  1  0
  4 25  1  0
  4 26  1  0
  5 17  1  0
  5  6  1  0
  6  7  1  0
  6 27  1  0
  6 28  1  0
  7  8  1  0
  7 29  1  0
  7 30  1  0
  8 17  2  0
  8  9  1  0
  9 10  1  0
  9 11  2  0
 10 31  1  0
 10 32  1  0
 10 33  1  0
 11 12  1  0
 12 16  1  0
 12 13  2  0
 13 14  1  0
 14 15  2  0
 14 34  1  0
 15 16  1  0
 16 17  1  0
M  END
>  <i_m_ct_stereo_status>  (78) 
1

>  <s_m_source_file>  (78) 
/var/tmp/pbs.5076255.sched01/tmp7e7yg0hy/0s0dyhj_r.sdf

>  <i_m_source_file_index>  (78) 
35

>  <i_lp_mmshare_version>  (78) 
48012

>  <i_f3d_flags>  (78) 
0

>  <s_epik_input>  (78) 
W0NIM11bQ0gyXVtDSDJdW0NIMl1OKFtDSDJdW0NIMl0xKWMoYzEyKW4zYyhuW2NIXW4zKW5jMltDSDNd

>  <s_epik_cmdline>  (78) 
J2VwaWtfcHl0aG9uJywgJy1waHQnLCAnMi4wJywgJy1waCcsICc3LjAnLCAnLXRuJywgJzgnLCAnLW1hJywgJzIwMCcsICctaW1hZScsICc8aW5maWxlLm1hZT4nLCAnLW9tYWUnLCAnPG91dGZpbGUubWFlPic=

>  <r_lp_tautomer_probability>  (78) 
1

>  <r_epik_Ionization_Penalty>  (78) 
6.86361e-05

>  <r_epik_Ionization_Penalty_Charging>  (78) 
0

>  <r_epik_Ionization_Penalty_Neutral>  (78) 
6.86361e-05

>  <r_epik_State_Penalty>  (78) 
-0

>  <r_epik_Charging_Adjusted_Penalty>  (78) 
0

>  <i_epik_Tot_Q>  (78) 
0

>  <i_epik_Tot_abs_Q>  (78) 
0

>  <s_lp_Force_Field>  (78) 
OPLS3e

>  <r_lp_Energy>  (78) 
18.123

>  <b_lp_Chiralities_Consistent>  (78) 
1

>  <s_lp_Variant>  (78) 
23:0-1

>  <s_i_glide_gridfile>  (78) 
pfpi4k_grid

>  <i_i_glide_lignum>  (78) 
35

>  <i_i_glide_rotatable_bonds>  (78) 
3

>  <r_i_docking_score>  (78) 
-2.71501

>  <r_i_glide_ligand_efficiency>  (78) 
-0.159706

>  <r_i_glide_ligand_efficiency_sa>  (78) 
-0.41065

>  <r_i_glide_ligand_efficiency_ln>  (78) 
-0.708285

>  <r_i_glide_gscore>  (78) 
-2.71501

>  <r_i_glide_lipo>  (78) 
-0.199959

>  <r_i_glide_hbond>  (78) 
-0.0942646

>  <r_i_glide_metal>  (78) 
-0

>  <r_i_glide_rewards>  (78) 
-1.85048

>  <r_i_glide_evdw>  (78) 
-19.8172

>  <r_i_glide_ecoul>  (78) 
-0.871794

>  <r_i_glide_erotb>  (78) 
0.639453

>  <r_i_glide_esite>  (78) 
-0.0881331

>  <r_i_glide_emodel>  (78) 
-23.6672

>  <r_i_glide_energy>  (78) 
-20.689

>  <r_i_glide_einternal>  (78) 
1.75028

>  <r_i_glide_intrahb_reward>  (78) 
-0

>  <i_i_glide_confnum>  (78) 
1

>  <i_i_glide_posenum>  (78) 
19

>  <r_i_glide_eff_state_penalty>  (78) 
0

>  <ligand_id>  (78) 
23

>  <original_smiles>  (78) 
CCCCN1CCc2c(C)nc3ncnn3c21

>  <smiles>  (78) 
[H]c1nc2nc(C([H])([H])[H])c3c(n2n1)N(C([H])([H])C([H])([H])C([H])([H])C([H])([H])[H])C([H])([H])C3([H])[H]

$$$$
23:0:1
     RDKit          3D

 34 36  0  0  1  0  0  0  0  0999 V2000
    4.7577   -0.6847    0.6059 C   0  0  0  0  0  0  0  0  0  0  0  0
    3.4301   -1.3810    0.9419 C   0  0  0  0  0  0  0  0  0  0  0  0
    2.3866   -0.4410    1.5580 C   0  0  0  0  0  0  0  0  0  0  0  0
    2.8080    0.1071    2.9282 C   0  0  0  0  0  0  0  0  0  0  0  0
    1.8634    1.0756    3.4586 N   0  0  0  0  0  0  0  0  0  0  0  0
    1.7601    2.4112    2.8726 C   0  0  0  0  0  0  0  0  0  0  0  0
    0.6083    3.1210    3.5913 C   0  0  0  0  0  0  0  0  0  0  0  0
   -0.0751    1.9480    4.2320 C   0  0  0  0  0  0  0  0  0  0  0  0
   -1.3021    1.8718    4.9227 C   0  0  0  0  0  0  0  0  0  0  0  0
   -2.1877    3.0805    5.1652 C   0  0  0  0  0  0  0  0  0  0  0  0
   -1.7467    0.7226    5.4201 N   0  0  0  0  0  0  0  0  0  0  0  0
   -0.9854   -0.3818    5.2437 C   0  0  0  0  0  0  0  0  0  0  0  0
   -1.2575   -1.6124    5.6648 N   0  0  0  0  0  0  0  0  0  0  0  0
   -0.1518   -2.3029    5.2216 C   0  0  0  0  0  0  0  0  0  0  0  0
    0.7757   -1.5948    4.5658 N   0  0  0  0  0  0  0  0  0  0  0  0
    0.2062   -0.3772    4.6022 N   0  0  0  0  0  0  0  0  0  0  0  0
    0.6505    0.8090    4.1052 C   0  0  0  0  0  0  0  0  0  0  0  0
    5.4594   -1.3824    0.1497 H   0  0  0  0  0  0  0  0  0  0  0  0
    5.2410   -0.2744    1.4919 H   0  0  0  0  0  0  0  0  0  0  0  0
    4.5973    0.1362   -0.0957 H   0  0  0  0  0  0  0  0  0  0  0  0
    3.0135   -1.8018    0.0275 H   0  0  0  0  0  0  0  0  0  0  0  0
    3.6064   -2.2183    1.6156 H   0  0  0  0  0  0  0  0  0  0  0  0
    2.1935    0.3792    0.8691 H   0  0  0  0  0  0  0  0  0  0  0  0
    1.4407   -0.9685    1.6714 H   0  0  0  0  0  0  0  0  0  0  0  0
    3.0359   -0.6824    3.6480 H   0  0  0  0  0  0  0  0  0  0  0  0
    3.7264    0.6783    2.8021 H   0  0  0  0  0  0  0  0  0  0  0  0
    2.6985    2.9676    2.9283 H   0  0  0  0  0  0  0  0  0  0  0  0
    1.5001    2.2989    1.8191 H   0  0  0  0  0  0  0  0  0  0  0  0
    0.9875    3.7912    4.3632 H   0  0  0  0  0  0  0  0  0  0  0  0
   -0.0390    3.6650    2.9031 H   0  0  0  0  0  0  0  0  0  0  0  0
   -1.7297    3.9968    4.7936 H   0  0  0  0  0  0  0  0  0  0  0  0
   -2.3676    3.1993    6.2364 H   0  0  0  0  0  0  0  0  0  0  0  0
   -3.1572    2.9483    4.6776 H   0  0  0  0  0  0  0  0  0  0  0  0
   -0.0427   -3.3628    5.4045 H   0  0  0  0  0  0  0  0  0  0  0  0
  1  2  1  0
  1 18  1  0
  1 19  1  0
  1 20  1  0
  2  3  1  0
  2 21  1  0
  2 22  1  0
  3  4  1  0
  3 23  1  0
  3 24  1  0
  4  5  1  0
  4 25  1  0
  4 26  1  0
  5 17  1  0
  5  6  1  0
  6  7  1  0
  6 27  1  0
  6 28  1  0
  7  8  1  0
  7 29  1  0
  7 30  1  0
  8 17  2  0
  8  9  1  0
  9 10  1  0
  9 11  2  0
 10 31  1  0
 10 32  1  0
 10 33  1  0
 11 12  1  0
 12 16  1  0
 12 13  2  0
 13 14  1  0
 14 15  2  0
 14 34  1  0
 15 16  1  0
 16 17  1  0
M  END
>  <i_m_ct_stereo_status>  (79) 
1

>  <s_m_source_file>  (79) 
/var/tmp/pbs.5076255.sched01/tmp7e7yg0hy/0s0dyhj_r.sdf

>  <i_m_source_file_index>  (79) 
35

>  <i_lp_mmshare_version>  (79) 
48012

>  <i_f3d_flags>  (79) 
0

>  <s_epik_input>  (79) 
W0NIM11bQ0gyXVtDSDJdW0NIMl1OKFtDSDJdW0NIMl0xKWMoYzEyKW4zYyhuW2NIXW4zKW5jMltDSDNd

>  <s_epik_cmdline>  (79) 
J2VwaWtfcHl0aG9uJywgJy1waHQnLCAnMi4wJywgJy1waCcsICc3LjAnLCAnLXRuJywgJzgnLCAnLW1hJywgJzIwMCcsICctaW1hZScsICc8aW5maWxlLm1hZT4nLCAnLW9tYWUnLCAnPG91dGZpbGUubWFlPic=

>  <r_lp_tautomer_probability>  (79) 
1

>  <r_epik_Ionization_Penalty>  (79) 
6.86361e-05

>  <r_epik_Ionization_Penalty_Charging>  (79) 
0

>  <r_epik_Ionization_Penalty_Neutral>  (79) 
6.86361e-05

>  <r_epik_State_Penalty>  (79) 
-0

>  <r_epik_Charging_Adjusted_Penalty>  (79) 
0

>  <i_epik_Tot_Q>  (79) 
0

>  <i_epik_Tot_abs_Q>  (79) 
0

>  <s_lp_Force_Field>  (79) 
OPLS3e

>  <r_lp_Energy>  (79) 
18.123

>  <b_lp_Chiralities_Consistent>  (79) 
1

>  <s_lp_Variant>  (79) 
23:0-1

>  <s_i_glide_gridfile>  (79) 
pfpi4k_grid

>  <i_i_glide_lignum>  (79) 
35

>  <i_i_glide_rotatable_bonds>  (79) 
3

>  <r_i_docking_score>  (79) 
-2.68785

>  <r_i_glide_ligand_efficiency>  (79) 
-0.158109

>  <r_i_glide_ligand_efficiency_sa>  (79) 
-0.406542

>  <r_i_glide_ligand_efficiency_ln>  (79) 
-0.701199

>  <r_i_glide_gscore>  (79) 
-2.68785

>  <r_i_glide_lipo>  (79) 
-0.119179

>  <r_i_glide_hbond>  (79) 
0

>  <r_i_glide_metal>  (79) 
-0

>  <r_i_glide_rewards>  (79) 
-1.83207

>  <r_i_glide_evdw>  (79) 
-18.5345

>  <r_i_glide_ecoul>  (79) 
-2.56037

>  <r_i_glide_erotb>  (79) 
0.639453

>  <r_i_glide_esite>  (79) 
-0.0652719

>  <r_i_glide_emodel>  (79) 
-24.5591

>  <r_i_glide_energy>  (79) 
-21.0949

>  <r_i_glide_einternal>  (79) 
0.969111

>  <r_i_glide_intrahb_reward>  (79) 
-0

>  <i_i_glide_confnum>  (79) 
1

>  <i_i_glide_posenum>  (79) 
2

>  <r_i_glide_eff_state_penalty>  (79) 
0

>  <ligand_id>  (79) 
23

>  <original_smiles>  (79) 
CCCCN1CCc2c(C)nc3ncnn3c21

>  <smiles>  (79) 
[H]c1nc2nc(C([H])([H])[H])c3c(n2n1)N(C([H])([H])C([H])([H])C([H])([H])C([H])([H])[H])C([H])([H])C3([H])[H]

$$$$
23:0:2
     RDKit          3D

 34 36  0  0  1  0  0  0  0  0999 V2000
   -1.5406    3.1517   10.2832 C   0  0  0  0  0  0  0  0  0  0  0  0
   -2.4349    2.7748    9.0984 C   0  0  0  0  0  0  0  0  0  0  0  0
   -1.6410    2.6747    7.7950 C   0  0  0  0  0  0  0  0  0  0  0  0
   -2.5105    2.2409    6.6080 C   0  0  0  0  0  0  0  0  0  0  0  0
   -1.7999    2.3320    5.3400 N   0  0  0  0  0  0  0  0  0  0  0  0
   -1.3995    3.6272    4.7919 C   0  0  0  0  0  0  0  0  0  0  0  0
   -0.5948    3.3566    3.5187 C   0  0  0  0  0  0  0  0  0  0  0  0
   -0.2967    1.9016    3.6987 C   0  0  0  0  0  0  0  0  0  0  0  0
    0.5520    1.0515    2.9621 C   0  0  0  0  0  0  0  0  0  0  0  0
    1.3455    1.5076    1.7543 C   0  0  0  0  0  0  0  0  0  0  0  0
    0.7020   -0.2255    3.2875 N   0  0  0  0  0  0  0  0  0  0  0  0
    0.0002   -0.7030    4.3350 C   0  0  0  0  0  0  0  0  0  0  0  0
    0.0072   -1.9450    4.8049 N   0  0  0  0  0  0  0  0  0  0  0  0
   -0.8651   -1.8449    5.8597 C   0  0  0  0  0  0  0  0  0  0  0  0
   -1.4214   -0.6471    6.0751 N   0  0  0  0  0  0  0  0  0  0  0  0
   -0.8414    0.0541    5.0789 N   0  0  0  0  0  0  0  0  0  0  0  0
   -0.9768    1.3653    4.7411 C   0  0  0  0  0  0  0  0  0  0  0  0
   -2.1272    3.2197   11.2002 H   0  0  0  0  0  0  0  0  0  0  0  0
   -1.0532    4.1157   10.1260 H   0  0  0  0  0  0  0  0  0  0  0  0
   -0.7619    2.4044   10.4432 H   0  0  0  0  0  0  0  0  0  0  0  0
   -2.9311    1.8270    9.2985 H   0  0  0  0  0  0  0  0  0  0  0  0
   -3.2210    3.5247    8.9913 H   0  0  0  0  0  0  0  0  0  0  0  0
   -1.1982    3.6511    7.6024 H   0  0  0  0  0  0  0  0  0  0  0  0
   -0.8182    1.9689    7.8937 H   0  0  0  0  0  0  0  0  0  0  0  0
   -2.9567    1.2550    6.7593 H   0  0  0  0  0  0  0  0  0  0  0  0
   -3.3473    2.9316    6.5179 H   0  0  0  0  0  0  0  0  0  0  0  0
   -2.2539    4.2811    4.6166 H   0  0  0  0  0  0  0  0  0  0  0  0
   -0.7384    4.1052    5.5131 H   0  0  0  0  0  0  0  0  0  0  0  0
   -1.2041    3.4938    2.6254 H   0  0  0  0  0  0  0  0  0  0  0  0
    0.3087    3.9653    3.4531 H   0  0  0  0  0  0  0  0  0  0  0  0
    1.1368    2.5434    1.5126 H   0  0  0  0  0  0  0  0  0  0  0  0
    1.0779    0.9021    0.8878 H   0  0  0  0  0  0  0  0  0  0  0  0
    2.4191    1.4063    1.9251 H   0  0  0  0  0  0  0  0  0  0  0  0
   -1.0885   -2.7102    6.4688 H   0  0  0  0  0  0  0  0  0  0  0  0
  1  2  1  0
  1 18  1  0
  1 19  1  0
  1 20  1  0
  2  3  1  0
  2 21  1  0
  2 22  1  0
  3  4  1  0
  3 23  1  0
  3 24  1  0
  4  5  1  0
  4 25  1  0
  4 26  1  0
  5 17  1  0
  5  6  1  0
  6  7  1  0
  6 27  1  0
  6 28  1  0
  7  8  1  0
  7 29  1  0
  7 30  1  0
  8 17  2  0
  8  9  1  0
  9 10  1  0
  9 11  2  0
 10 31  1  0
 10 32  1  0
 10 33  1  0
 11 12  1  0
 12 16  1  0
 12 13  2  0
 13 14  1  0
 14 15  2  0
 14 34  1  0
 15 16  1  0
 16 17  1  0
M  END
>  <i_m_ct_stereo_status>  (80) 
1

>  <s_m_source_file>  (80) 
/var/tmp/pbs.5076255.sched01/tmp7e7yg0hy/0s0dyhj_r.sdf

>  <i_m_source_file_index>  (80) 
35

>  <i_lp_mmshare_version>  (80) 
48012

>  <i_f3d_flags>  (80) 
0

>  <s_epik_input>  (80) 
W0NIM11bQ0gyXVtDSDJdW0NIMl1OKFtDSDJdW0NIMl0xKWMoYzEyKW4zYyhuW2NIXW4zKW5jMltDSDNd

>  <s_epik_cmdline>  (80) 
J2VwaWtfcHl0aG9uJywgJy1waHQnLCAnMi4wJywgJy1waCcsICc3LjAnLCAnLXRuJywgJzgnLCAnLW1hJywgJzIwMCcsICctaW1hZScsICc8aW5maWxlLm1hZT4nLCAnLW9tYWUnLCAnPG91dGZpbGUubWFlPic=

>  <r_lp_tautomer_probability>  (80) 
1

>  <r_epik_Ionization_Penalty>  (80) 
6.86361e-05

>  <r_epik_Ionization_Penalty_Charging>  (80) 
0

>  <r_epik_Ionization_Penalty_Neutral>  (80) 
6.86361e-05

>  <r_epik_State_Penalty>  (80) 
-0

>  <r_epik_Charging_Adjusted_Penalty>  (80) 
0

>  <i_epik_Tot_Q>  (80) 
0

>  <i_epik_Tot_abs_Q>  (80) 
0

>  <s_lp_Force_Field>  (80) 
OPLS3e

>  <r_lp_Energy>  (80) 
18.123

>  <b_lp_Chiralities_Consistent>  (80) 
1

>  <s_lp_Variant>  (80) 
23:0-1

>  <s_i_glide_gridfile>  (80) 
pfpi4k_grid

>  <i_i_glide_lignum>  (80) 
35

>  <i_i_glide_rotatable_bonds>  (80) 
3

>  <r_i_docking_score>  (80) 
-2.49298

>  <r_i_glide_ligand_efficiency>  (80) 
-0.146646

>  <r_i_glide_ligand_efficiency_sa>  (80) 
-0.377068

>  <r_i_glide_ligand_efficiency_ln>  (80) 
-0.650364

>  <r_i_glide_gscore>  (80) 
-2.49298

>  <r_i_glide_lipo>  (80) 
-0.0674371

>  <r_i_glide_hbond>  (80) 
-0.0881311

>  <r_i_glide_metal>  (80) 
-0

>  <r_i_glide_rewards>  (80) 
-1.84689

>  <r_i_glide_evdw>  (80) 
-18.1887

>  <r_i_glide_ecoul>  (80) 
-0.891923

>  <r_i_glide_erotb>  (80) 
0.639453

>  <r_i_glide_esite>  (80) 
-0.0867525

>  <r_i_glide_emodel>  (80) 
-22.5567

>  <r_i_glide_energy>  (80) 
-19.0806

>  <r_i_glide_einternal>  (80) 
0.175495

>  <r_i_glide_intrahb_reward>  (80) 
-0

>  <i_i_glide_confnum>  (80) 
1

>  <i_i_glide_posenum>  (80) 
16

>  <r_i_glide_eff_state_penalty>  (80) 
0

>  <ligand_id>  (80) 
23

>  <original_smiles>  (80) 
CCCCN1CCc2c(C)nc3ncnn3c21

>  <smiles>  (80) 
[H]c1nc2nc(C([H])([H])[H])c3c(n2n1)N(C([H])([H])C([H])([H])C([H])([H])C([H])([H])[H])C([H])([H])C3([H])[H]

$$$$
25:0:0
     RDKit          3D

 64 69  0  0  1  0  0  0  0  0999 V2000
    5.9246   -5.1872    2.9323 C   0  0  0  0  0  0  0  0  0  0  0  0
    4.4937   -4.7501    2.4792 C   0  0  2  0  0  0  0  0  0  0  0  0
    3.9460   -3.9465    3.7039 C   0  0  0  0  0  0  0  0  0  0  0  0
    3.5512   -4.8115    4.9135 C   0  0  0  0  0  0  0  0  0  0  0  0
    2.6030   -5.9583    4.5182 C   0  0  1  0  0  0  0  0  0  0  0  0
    1.3547   -5.3775    4.1772 O   0  0  0  0  0  0  0  0  0  0  0  0
    3.1653   -6.8883    3.3999 C   0  0  0  0  0  0  0  0  0  0  0  0
    4.3115   -7.7507    3.9985 C   0  0  0  0  0  0  0  0  0  0  0  0
    2.0730   -7.9217    3.0109 C   0  0  0  0  0  0  0  0  0  0  0  0
    3.6551   -6.0422    2.1495 C   0  0  1  0  0  0  0  0  0  0  0  0
    2.5294   -5.8250    1.0904 C   0  0  0  0  0  0  0  0  0  0  0  0
    2.7440   -4.8245   -0.0690 C   0  0  1  0  0  0  0  0  0  0  0  0
    1.4632   -4.8852   -0.7202 O   0  0  0  0  0  0  0  0  0  0  0  0
    3.2876   -3.4367    0.4038 C   0  0  1  0  0  0  0  0  0  0  0  0
    2.2196   -2.7912    1.3197 C   0  0  0  0  0  0  0  0  0  0  0  0
    4.6039   -3.9001    1.1588 C   0  0  0  0  0  0  0  0  0  0  0  0
    5.8000   -3.8096    0.5164 C   0  0  0  0  0  0  0  0  0  0  0  0
    5.9190   -3.3807   -0.8526 C   0  0  0  0  0  0  0  0  0  0  0  0
    4.9161   -2.7354   -1.3960 C   0  0  0  0  0  0  0  0  0  0  0  0
    4.5258   -2.4018   -2.8044 C   0  0  2  0  0  0  0  0  0  0  0  0
    4.9853   -1.0419   -3.3235 C   0  0  0  0  0  0  0  0  0  0  0  0
    3.8109   -0.1159   -3.3473 C   0  0  1  0  0  0  0  0  0  0  0  0
    2.6168   -0.5080   -4.2025 C   0  0  0  0  0  0  0  0  0  0  0  0
    2.6694   -0.8702   -2.7321 C   0  0  1  0  0  0  0  0  0  0  0  0
    3.1215   -2.2325   -2.2117 C   0  0  1  0  0  0  0  0  0  0  0  0
    2.2008   -3.1961   -2.6577 O   0  0  0  0  0  0  0  0  0  0  0  0
    3.6517   -2.3273   -0.7150 C   0  0  1  0  0  0  0  0  0  0  0  0
    3.9151   -0.9629   -0.0171 C   0  0  0  0  0  0  0  0  0  0  0  0
    5.9639   -5.6033    3.9335 H   0  0  0  0  0  0  0  0  0  0  0  0
    6.5735   -4.3133    2.9677 H   0  0  0  0  0  0  0  0  0  0  0  0
    6.3857   -5.9211    2.2622 H   0  0  0  0  0  0  0  0  0  0  0  0
    4.6771   -3.1991    4.0152 H   0  0  0  0  0  0  0  0  0  0  0  0
    3.0614   -3.3695    3.5028 H   0  0  0  0  0  0  0  0  0  0  0  0
    4.4359   -5.1975    5.4121 H   0  0  0  0  0  0  0  0  0  0  0  0
    3.0778   -4.1771    5.6658 H   0  0  0  0  0  0  0  0  0  0  0  0
    2.4237   -6.5571    5.4059 H   0  0  0  0  0  0  0  0  0  0  0  0
    1.0483   -4.8674    4.9171 H   0  0  0  0  0  0  0  0  0  0  0  0
    4.9610   -8.1470    3.2191 H   0  0  0  0  0  0  0  0  0  0  0  0
    3.9066   -8.6042    4.5473 H   0  0  0  0  0  0  0  0  0  0  0  0
    4.9229   -7.2184    4.7245 H   0  0  0  0  0  0  0  0  0  0  0  0
    2.4359   -8.6014    2.2398 H   0  0  0  0  0  0  0  0  0  0  0  0
    1.1498   -7.4623    2.6536 H   0  0  0  0  0  0  0  0  0  0  0  0
    1.7868   -8.5206    3.8768 H   0  0  0  0  0  0  0  0  0  0  0  0
    4.3491   -6.6896    1.6068 H   0  0  0  0  0  0  0  0  0  0  0  0
    2.3805   -6.7881    0.6067 H   0  0  0  0  0  0  0  0  0  0  0  0
    1.5958   -5.6098    1.6022 H   0  0  0  0  0  0  0  0  0  0  0  0
    3.5462   -5.2555   -0.6659 H   0  0  0  0  0  0  0  0  0  0  0  0
    1.5022   -4.4039   -1.5411 H   0  0  0  0  0  0  0  0  0  0  0  0
    1.4489   -2.3253    0.7206 H   0  0  0  0  0  0  0  0  0  0  0  0
    2.6276   -2.0005    1.9539 H   0  0  0  0  0  0  0  0  0  0  0  0
    1.7190   -3.5119    1.9637 H   0  0  0  0  0  0  0  0  0  0  0  0
    6.7324   -4.1901    0.8886 H   0  0  0  0  0  0  0  0  0  0  0  0
    6.7001   -3.7430   -1.5021 H   0  0  0  0  0  0  0  0  0  0  0  0
    4.5668   -3.2105   -3.5432 H   0  0  0  0  0  0  0  0  0  0  0  0
    5.7584   -0.6038   -2.6847 H   0  0  0  0  0  0  0  0  0  0  0  0
    5.1740   -1.1160   -4.3981 H   0  0  0  0  0  0  0  0  0  0  0  0
    3.9821    0.9473   -3.0848 H   0  0  0  0  0  0  0  0  0  0  0  0
    1.9631    0.3109   -4.4533 H   0  0  0  0  0  0  0  0  0  0  0  0
    2.6978   -1.3369   -4.9353 H   0  0  0  0  0  0  0  0  0  0  0  0
    2.2105   -0.2571   -1.9604 H   0  0  0  0  0  0  0  0  0  0  0  0
    2.6750   -4.0262   -2.6596 H   0  0  0  0  0  0  0  0  0  0  0  0
    2.9729   -0.4547    0.2454 H   0  0  0  0  0  0  0  0  0  0  0  0
    4.4789   -0.2887   -0.6667 H   0  0  0  0  0  0  0  0  0  0  0  0
    4.5094   -1.0857    0.8968 H   0  0  0  0  0  0  0  0  0  0  0  0
  2  1  1  1
  1 29  1  0
  1 30  1  0
  1 31  1  0
  2 10  1  0
  2 16  1  0
  2  3  1  0
  3  4  1  0
  3 32  1  0
  3 33  1  0
  4  5  1  0
  4 34  1  0
  4 35  1  0
  5  6  1  0
  5  7  1  0
  5 36  1  1
  6 37  1  0
  7  8  1  0
  7  9  1  0
  7 10  1  0
  8 38  1  0
  8 39  1  0
  8 40  1  0
  9 41  1  0
  9 42  1  0
  9 43  1  0
 10 11  1  0
 10 44  1  6
 11 12  1  0
 11 45  1  0
 11 46  1  0
 12 13  1  0
 12 14  1  0
 12 47  1  6
 13 48  1  0
 14 27  1  0
 14 15  1  1
 14 16  1  0
 15 49  1  0
 15 50  1  0
 15 51  1  0
 16 17  2  0
 17 18  1  0
 17 52  1  0
 18 19  2  0
 18 53  1  0
 19 27  1  0
 19 20  1  0
 20 25  1  0
 20 21  1  0
 20 54  1  6
 21 22  1  0
 21 55  1  0
 21 56  1  0
 22 24  1  0
 22 23  1  0
 22 57  1  1
 23 24  1  0
 23 58  1  0
 23 59  1  0
 24 25  1  0
 24 60  1  1
 25 26  1  6
 25 27  1  0
 26 61  1  0
 27 28  1  1
 28 62  1  0
 28 63  1  0
 28 64  1  0
M  END
>  <i_m_ct_stereo_status>  (81) 
1

>  <s_m_source_file>  (81) 
/var/tmp/pbs.5076255.sched01/tmp7e7yg0hy/0s0dyhj_r.sdf

>  <i_m_source_file_index>  (81) 
37

>  <i_lp_mmshare_version>  (81) 
48012

>  <i_f3d_flags>  (81) 
0

>  <s_epik_input>  (81) 
W0NIMl0xW0NIMl1bQ0BASF0oW09IXSlDKFtDSDNdKShbQ0gzXSlbQ0BIXShbQ0BdMTJbQ0gzXSlbQ0gyXVtDQEBIXShbT0hdKVtDQEBdMyhbQ0gzXSlDMj1bQ0hdW0NIXT1DNFtDQEhdNVtDQEBdKFtPSF0pKFtDQEBdMzRbQ0gzXSlbQ0BIXTZbQ0BASF0oW0NIMl01KVtDSDJdNg==

>  <s_epik_cmdline>  (81) 
J2VwaWtfcHl0aG9uJywgJy1waHQnLCAnMi4wJywgJy1waCcsICc3LjAnLCAnLXRuJywgJzgnLCAnLW1hJywgJzIwMCcsICctaW1hZScsICc8aW5maWxlLm1hZT4nLCAnLW9tYWUnLCAnPG91dGZpbGUubWFlPic=

>  <r_lp_tautomer_probability>  (81) 
1

>  <r_epik_Ionization_Penalty>  (81) 
3.97387e-06

>  <r_epik_Ionization_Penalty_Charging>  (81) 
0

>  <r_epik_Ionization_Penalty_Neutral>  (81) 
3.97387e-06

>  <r_epik_State_Penalty>  (81) 
-0

>  <r_epik_Charging_Adjusted_Penalty>  (81) 
0

>  <i_epik_Tot_Q>  (81) 
0

>  <i_epik_Tot_abs_Q>  (81) 
0

>  <s_lp_Force_Field>  (81) 
OPLS3e

>  <r_lp_Energy>  (81) 
96.7256

>  <b_lp_Chiralities_Consistent>  (81) 
1

>  <s_lp_Variant>  (81) 
25:0-1

>  <s_i_glide_gridfile>  (81) 
pfpi4k_grid

>  <i_i_glide_lignum>  (81) 
37

>  <i_i_glide_rotatable_bonds>  (81) 
3

>  <r_i_docking_score>  (81) 
-2.3699

>  <r_i_glide_ligand_efficiency>  (81) 
-0.0846393

>  <r_i_glide_ligand_efficiency_sa>  (81) 
-0.257015

>  <r_i_glide_ligand_efficiency_ln>  (81) 
-0.547042

>  <r_i_glide_gscore>  (81) 
-2.3699

>  <r_i_glide_lipo>  (81) 
-0.613931

>  <r_i_glide_hbond>  (81) 
0

>  <r_i_glide_metal>  (81) 
-0

>  <r_i_glide_rewards>  (81) 
-0.787149

>  <r_i_glide_evdw>  (81) 
-4.90108

>  <r_i_glide_ecoul>  (81) 
-4.8251

>  <r_i_glide_erotb>  (81) 
0

>  <r_i_glide_esite>  (81) 
0

>  <r_i_glide_emodel>  (81) 
-9.47075

>  <r_i_glide_energy>  (81) 
-9.72619

>  <r_i_glide_einternal>  (81) 
1.14448

>  <r_i_glide_intrahb_reward>  (81) 
-0

>  <i_i_glide_confnum>  (81) 
2

>  <i_i_glide_posenum>  (81) 
1

>  <r_i_glide_eff_state_penalty>  (81) 
0

>  <ligand_id>  (81) 
25

>  <original_smiles>  (81) 
CC12CCC(O)C(C)(C)C1CC(O)C1(C)C2=CC=C2C3CC4CC4C3(O)C21C

>  <smiles>  (81) 
[H]OC1([H])C([H])([H])C2([H])C(C([H])([H])[H])(C3=C([H])C([H])=C4C5([H])C([H])([H])C6([H])C([H])([H])C6([H])C5(O[H])C4(C([H])([H])[H])C31C([H])([H])[H])C([H])([H])C([H])([H])C([H])(O[H])C2(C([H])([H])[H])C([H])([H])[H]

$$$$
25:0:1
     RDKit          3D

 64 69  0  0  1  0  0  0  0  0999 V2000
    5.8255   -5.1623    2.9826 C   0  0  0  0  0  0  0  0  0  0  0  0
    4.4162   -4.7186    2.4890 C   0  0  2  0  0  0  0  0  0  0  0  0
    3.8400   -3.9152    3.7093 C   0  0  0  0  0  0  0  0  0  0  0  0
    3.4164   -4.7787    4.9089 C   0  0  0  0  0  0  0  0  0  0  0  0
    2.4704   -5.9213    4.4991 C   0  0  1  0  0  0  0  0  0  0  0  0
    1.2337   -5.3473    4.1416 O   0  0  0  0  0  0  0  0  0  0  0  0
    3.0554   -6.8466    3.3871 C   0  0  0  0  0  0  0  0  0  0  0  0
    4.1811   -7.7191    4.0038 C   0  0  0  0  0  0  0  0  0  0  0  0
    1.9686   -7.8811    2.9764 C   0  0  0  0  0  0  0  0  0  0  0  0
    3.5862   -6.0124    2.1460 C   0  0  1  0  0  0  0  0  0  0  0  0
    2.4778   -5.7884    1.0726 C   0  0  0  0  0  0  0  0  0  0  0  0
    2.7168   -4.7708   -0.0753 C   0  0  1  0  0  0  0  0  0  0  0  0
    1.4430   -4.8046   -0.7184 O   0  0  0  0  0  0  0  0  0  0  0  0
    3.2780   -3.4012    0.4094 C   0  0  1  0  0  0  0  0  0  0  0  0
    2.2087   -2.7422    1.2999 C   0  0  0  0  0  0  0  0  0  0  0  0
    4.5702   -3.8745    1.1792 C   0  0  0  0  0  0  0  0  0  0  0  0
    5.7767   -3.7925    0.5437 C   0  0  0  0  0  0  0  0  0  0  0  0
    5.9077   -3.3676   -0.8186 C   0  0  0  0  0  0  0  0  0  0  0  0
    4.9140   -2.6880   -1.3702 C   0  0  0  0  0  0  0  0  0  0  0  0
    4.5413   -2.3632   -2.7842 C   0  0  2  0  0  0  0  0  0  0  0  0
    5.0068   -1.0297   -3.2968 C   0  0  0  0  0  0  0  0  0  0  0  0
    3.8294   -0.1328   -3.3389 C   0  0  1  0  0  0  0  0  0  0  0  0
    2.6599   -0.4667   -4.2178 C   0  0  0  0  0  0  0  0  0  0  0  0
    2.6747   -0.8425   -2.7594 C   0  0  1  0  0  0  0  0  0  0  0  0
    3.1263   -2.1991   -2.2158 C   0  0  1  0  0  0  0  0  0  0  0  0
    2.2187   -3.1403   -2.7024 O   0  0  0  0  0  0  0  0  0  0  0  0
    3.6388   -2.2916   -0.7070 C   0  0  1  0  0  0  0  0  0  0  0  0
    3.8993   -0.9390   -0.0154 C   0  0  0  0  0  0  0  0  0  0  0  0
    5.8444   -5.5820    3.9799 H   0  0  0  0  0  0  0  0  0  0  0  0
    6.4587   -4.2871    3.0415 H   0  0  0  0  0  0  0  0  0  0  0  0
    6.3083   -5.8825    2.3178 H   0  0  0  0  0  0  0  0  0  0  0  0
    4.5672   -3.1727    4.0377 H   0  0  0  0  0  0  0  0  0  0  0  0
    2.9658   -3.3297    3.4994 H   0  0  0  0  0  0  0  0  0  0  0  0
    4.2878   -5.1690    5.4252 H   0  0  0  0  0  0  0  0  0  0  0  0
    2.9250   -4.1462    5.6538 H   0  0  0  0  0  0  0  0  0  0  0  0
    2.2717   -6.5287    5.3845 H   0  0  0  0  0  0  0  0  0  0  0  0
    1.3979   -4.7254    3.4350 H   0  0  0  0  0  0  0  0  0  0  0  0
    4.8533   -8.1164    3.2429 H   0  0  0  0  0  0  0  0  0  0  0  0
    3.7763   -8.5717    4.5472 H   0  0  0  0  0  0  0  0  0  0  0  0
    4.7851   -7.1935    4.7384 H   0  0  0  0  0  0  0  0  0  0  0  0
    2.3355   -8.5643    2.2095 H   0  0  0  0  0  0  0  0  0  0  0  0
    1.0535   -7.4243    2.6015 H   0  0  0  0  0  0  0  0  0  0  0  0
    1.6565   -8.4820    3.8299 H   0  0  0  0  0  0  0  0  0  0  0  0
    4.2871   -6.6638    1.6195 H   0  0  0  0  0  0  0  0  0  0  0  0
    2.3383   -6.7449    0.5690 H   0  0  0  0  0  0  0  0  0  0  0  0
    1.5275   -5.5808    1.5499 H   0  0  0  0  0  0  0  0  0  0  0  0
    3.4992   -5.1672   -0.7064 H   0  0  0  0  0  0  0  0  0  0  0  0
    1.4941   -4.3853   -1.5784 H   0  0  0  0  0  0  0  0  0  0  0  0
    1.4718   -2.2726    0.6740 H   0  0  0  0  0  0  0  0  0  0  0  0
    2.6021   -1.9569    1.9462 H   0  0  0  0  0  0  0  0  0  0  0  0
    1.6749   -3.4629    1.9175 H   0  0  0  0  0  0  0  0  0  0  0  0
    6.6973   -4.1770    0.9533 H   0  0  0  0  0  0  0  0  0  0  0  0
    6.7012   -3.7275   -1.4477 H   0  0  0  0  0  0  0  0  0  0  0  0
    4.5994   -3.1648   -3.5281 H   0  0  0  0  0  0  0  0  0  0  0  0
    5.7703   -0.5767   -2.6505 H   0  0  0  0  0  0  0  0  0  0  0  0
    5.2029   -1.1010   -4.3654 H   0  0  0  0  0  0  0  0  0  0  0  0
    3.9793    0.9133   -3.0825 H   0  0  0  0  0  0  0  0  0  0  0  0
    1.9751    0.3546   -4.4648 H   0  0  0  0  0  0  0  0  0  0  0  0
    2.7434   -1.2750   -4.9278 H   0  0  0  0  0  0  0  0  0  0  0  0
    2.1538   -0.2106   -2.0974 H   0  0  0  0  0  0  0  0  0  0  0  0
    2.6745   -3.9855   -2.7032 H   0  0  0  0  0  0  0  0  0  0  0  0
    2.9598   -0.4222    0.2200 H   0  0  0  0  0  0  0  0  0  0  0  0
    4.4705   -0.2598   -0.6495 H   0  0  0  0  0  0  0  0  0  0  0  0
    4.4659   -1.0432    0.9100 H   0  0  0  0  0  0  0  0  0  0  0  0
  2  1  1  1
  1 29  1  0
  1 30  1  0
  1 31  1  0
  2 10  1  0
  2 16  1  0
  2  3  1  0
  3  4  1  0
  3 32  1  0
  3 33  1  0
  4  5  1  0
  4 34  1  0
  4 35  1  0
  5  6  1  0
  5  7  1  0
  5 36  1  1
  6 37  1  0
  7  8  1  0
  7  9  1  0
  7 10  1  0
  8 38  1  0
  8 39  1  0
  8 40  1  0
  9 41  1  0
  9 42  1  0
  9 43  1  0
 10 11  1  0
 10 44  1  6
 11 12  1  0
 11 45  1  0
 11 46  1  0
 12 13  1  0
 12 14  1  0
 12 47  1  6
 13 48  1  0
 14 27  1  0
 14 15  1  1
 14 16  1  0
 15 49  1  0
 15 50  1  0
 15 51  1  0
 16 17  2  0
 17 18  1  0
 17 52  1  0
 18 19  2  0
 18 53  1  0
 19 27  1  0
 19 20  1  0
 20 25  1  0
 20 21  1  0
 20 54  1  6
 21 22  1  0
 21 55  1  0
 21 56  1  0
 22 24  1  0
 22 23  1  0
 22 57  1  1
 23 24  1  0
 23 58  1  0
 23 59  1  0
 24 25  1  0
 24 60  1  1
 25 26  1  6
 25 27  1  0
 26 61  1  0
 27 28  1  1
 28 62  1  0
 28 63  1  0
 28 64  1  0
M  END
>  <i_m_ct_stereo_status>  (82) 
1

>  <s_m_source_file>  (82) 
/var/tmp/pbs.5076255.sched01/tmp7e7yg0hy/0s0dyhj_r.sdf

>  <i_m_source_file_index>  (82) 
37

>  <i_lp_mmshare_version>  (82) 
48012

>  <i_f3d_flags>  (82) 
0

>  <s_epik_input>  (82) 
W0NIMl0xW0NIMl1bQ0BASF0oW09IXSlDKFtDSDNdKShbQ0gzXSlbQ0BIXShbQ0BdMTJbQ0gzXSlbQ0gyXVtDQEBIXShbT0hdKVtDQEBdMyhbQ0gzXSlDMj1bQ0hdW0NIXT1DNFtDQEhdNVtDQEBdKFtPSF0pKFtDQEBdMzRbQ0gzXSlbQ0BIXTZbQ0BASF0oW0NIMl01KVtDSDJdNg==

>  <s_epik_cmdline>  (82) 
J2VwaWtfcHl0aG9uJywgJy1waHQnLCAnMi4wJywgJy1waCcsICc3LjAnLCAnLXRuJywgJzgnLCAnLW1hJywgJzIwMCcsICctaW1hZScsICc8aW5maWxlLm1hZT4nLCAnLW9tYWUnLCAnPG91dGZpbGUubWFlPic=

>  <r_lp_tautomer_probability>  (82) 
1

>  <r_epik_Ionization_Penalty>  (82) 
3.97387e-06

>  <r_epik_Ionization_Penalty_Charging>  (82) 
0

>  <r_epik_Ionization_Penalty_Neutral>  (82) 
3.97387e-06

>  <r_epik_State_Penalty>  (82) 
-0

>  <r_epik_Charging_Adjusted_Penalty>  (82) 
0

>  <i_epik_Tot_Q>  (82) 
0

>  <i_epik_Tot_abs_Q>  (82) 
0

>  <s_lp_Force_Field>  (82) 
OPLS3e

>  <r_lp_Energy>  (82) 
96.7256

>  <b_lp_Chiralities_Consistent>  (82) 
1

>  <s_lp_Variant>  (82) 
25:0-1

>  <s_i_glide_gridfile>  (82) 
pfpi4k_grid

>  <i_i_glide_lignum>  (82) 
37

>  <i_i_glide_rotatable_bonds>  (82) 
3

>  <r_i_docking_score>  (82) 
-2.3642

>  <r_i_glide_ligand_efficiency>  (82) 
-0.0844358

>  <r_i_glide_ligand_efficiency_sa>  (82) 
-0.256397

>  <r_i_glide_ligand_efficiency_ln>  (82) 
-0.545727

>  <r_i_glide_gscore>  (82) 
-2.3642

>  <r_i_glide_lipo>  (82) 
-0.639453

>  <r_i_glide_hbond>  (82) 
0

>  <r_i_glide_metal>  (82) 
-0

>  <r_i_glide_rewards>  (82) 
-0.787149

>  <r_i_glide_evdw>  (82) 
-2.14684

>  <r_i_glide_ecoul>  (82) 
-5.53506

>  <r_i_glide_erotb>  (82) 
0

>  <r_i_glide_esite>  (82) 
0

>  <r_i_glide_emodel>  (82) 
-7.24652

>  <r_i_glide_energy>  (82) 
-7.6819

>  <r_i_glide_einternal>  (82) 
0.829125

>  <r_i_glide_intrahb_reward>  (82) 
-0

>  <i_i_glide_confnum>  (82) 
1

>  <i_i_glide_posenum>  (82) 
32

>  <r_i_glide_eff_state_penalty>  (82) 
0

>  <ligand_id>  (82) 
25

>  <original_smiles>  (82) 
CC12CCC(O)C(C)(C)C1CC(O)C1(C)C2=CC=C2C3CC4CC4C3(O)C21C

>  <smiles>  (82) 
[H]OC1([H])C([H])([H])C2([H])C(C([H])([H])[H])(C3=C([H])C([H])=C4C5([H])C([H])([H])C6([H])C([H])([H])C6([H])C5(O[H])C4(C([H])([H])[H])C31C([H])([H])[H])C([H])([H])C([H])([H])C([H])(O[H])C2(C([H])([H])[H])C([H])([H])[H]

$$$$
25:0:2
     RDKit          3D

 64 69  0  0  1  0  0  0  0  0999 V2000
    7.0478   -4.9516    0.9859 C   0  0  0  0  0  0  0  0  0  0  0  0
    5.6321   -4.2943    1.0529 C   0  0  2  0  0  0  0  0  0  0  0  0
    5.6986   -3.3863    2.3111 C   0  0  0  0  0  0  0  0  0  0  0  0
    5.6692   -4.1409    3.6483 C   0  0  0  0  0  0  0  0  0  0  0  0
    4.4868   -5.1079    3.7492 C   0  0  1  0  0  0  0  0  0  0  0  0
    3.3034   -4.3424    3.8565 O   0  0  0  0  0  0  0  0  0  0  0  0
    4.4363   -6.1467    2.5896 C   0  0  0  0  0  0  0  0  0  0  0  0
    5.5710   -7.1846    2.7905 C   0  0  0  0  0  0  0  0  0  0  0  0
    3.1356   -6.9881    2.7322 C   0  0  0  0  0  0  0  0  0  0  0  0
    4.5496   -5.4468    1.1708 C   0  0  1  0  0  0  0  0  0  0  0  0
    3.1495   -5.0553    0.6087 C   0  0  0  0  0  0  0  0  0  0  0  0
    3.1108   -4.1243   -0.6359 C   0  0  1  0  0  0  0  0  0  0  0  0
    1.7536   -3.8962   -0.8228 O   0  0  0  0  0  0  0  0  0  0  0  0
    3.9515   -2.8442   -0.5147 C   0  0  1  0  0  0  0  0  0  0  0  0
    3.3967   -2.0079    0.6554 C   0  0  0  0  0  0  0  0  0  0  0  0
    5.3535   -3.4793   -0.2565 C   0  0  0  0  0  0  0  0  0  0  0  0
    6.2173   -3.5748   -1.3074 C   0  0  0  0  0  0  0  0  0  0  0  0
    5.8418   -3.2844   -2.6660 C   0  0  0  0  0  0  0  0  0  0  0  0
    4.8362   -2.4716   -2.8834 C   0  0  0  0  0  0  0  0  0  0  0  0
    4.0026   -2.1558   -4.0938 C   0  0  2  0  0  0  0  0  0  0  0  0
    4.3451   -0.9177   -4.8969 C   0  0  0  0  0  0  0  0  0  0  0  0
    3.4839    0.2203   -4.4536 C   0  0  1  0  0  0  0  0  0  0  0  0
    2.0122    0.1815   -4.7299 C   0  0  0  0  0  0  0  0  0  0  0  0
    2.6164   -0.3433   -3.4144 C   0  0  1  0  0  0  0  0  0  0  0  0
    3.0084   -1.7659   -3.0388 C   0  0  1  0  0  0  0  0  0  0  0  0
    1.8904   -2.6365   -3.0962 O   0  0  0  0  0  0  0  0  0  0  0  0
    4.0117   -1.8660   -1.8094 C   0  0  1  0  0  0  0  0  0  0  0  0
    4.7768   -0.5930   -1.3976 C   0  0  0  0  0  0  0  0  0  0  0  0
    7.3835   -5.3717    1.9228 H   0  0  0  0  0  0  0  0  0  0  0  0
    7.8190   -4.2148    0.7541 H   0  0  0  0  0  0  0  0  0  0  0  0
    7.1066   -5.7539    0.2474 H   0  0  0  0  0  0  0  0  0  0  0  0
    6.5893   -2.7660    2.2384 H   0  0  0  0  0  0  0  0  0  0  0  0
    4.9030   -2.6731    2.3958 H   0  0  0  0  0  0  0  0  0  0  0  0
    6.5929   -4.6859    3.8157 H   0  0  0  0  0  0  0  0  0  0  0  0
    5.6196   -3.4180    4.4625 H   0  0  0  0  0  0  0  0  0  0  0  0
    4.5819   -5.6464    4.6920 H   0  0  0  0  0  0  0  0  0  0  0  0
    2.6084   -4.9146    4.1401 H   0  0  0  0  0  0  0  0  0  0  0  0
    5.8159   -7.7060    1.8652 H   0  0  0  0  0  0  0  0  0  0  0  0
    5.2993   -7.9445    3.5240 H   0  0  0  0  0  0  0  0  0  0  0  0
    6.4887   -6.7562    3.1757 H   0  0  0  0  0  0  0  0  0  0  0  0
    3.0565   -7.7421    1.9480 H   0  0  0  0  0  0  0  0  0  0  0  0
    2.2255   -6.3934    2.6979 H   0  0  0  0  0  0  0  0  0  0  0  0
    3.1031   -7.5071    3.6914 H   0  0  0  0  0  0  0  0  0  0  0  0
    4.8719   -6.2233    0.4684 H   0  0  0  0  0  0  0  0  0  0  0  0
    2.6762   -5.9768    0.2736 H   0  0  0  0  0  0  0  0  0  0  0  0
    2.4963   -4.6753    1.4015 H   0  0  0  0  0  0  0  0  0  0  0  0
    3.5161   -4.6125   -1.5115 H   0  0  0  0  0  0  0  0  0  0  0  0
    1.6288   -3.1240   -1.3684 H   0  0  0  0  0  0  0  0  0  0  0  0
    2.5373   -1.4402    0.3303 H   0  0  0  0  0  0  0  0  0  0  0  0
    4.1184   -1.2771    1.0229 H   0  0  0  0  0  0  0  0  0  0  0  0
    3.0461   -2.6104    1.4880 H   0  0  0  0  0  0  0  0  0  0  0  0
    7.1662   -4.0424   -1.1954 H   0  0  0  0  0  0  0  0  0  0  0  0
    6.2504   -3.8239   -3.5042 H   0  0  0  0  0  0  0  0  0  0  0  0
    3.5905   -2.9925   -4.6645 H   0  0  0  0  0  0  0  0  0  0  0  0
    5.3815   -0.6964   -4.7197 H   0  0  0  0  0  0  0  0  0  0  0  0
    4.0927   -1.0242   -5.9391 H   0  0  0  0  0  0  0  0  0  0  0  0
    3.9392    1.2248   -4.3537 H   0  0  0  0  0  0  0  0  0  0  0  0
    1.4590    1.1286   -4.6422 H   0  0  0  0  0  0  0  0  0  0  0  0
    1.5513   -0.5700   -5.3558 H   0  0  0  0  0  0  0  0  0  0  0  0
    2.0743    0.1405   -2.6096 H   0  0  0  0  0  0  0  0  0  0  0  0
    2.2134   -3.5223   -2.9316 H   0  0  0  0  0  0  0  0  0  0  0  0
    4.2149    0.0546   -0.7475 H   0  0  0  0  0  0  0  0  0  0  0  0
    5.0576   -0.0044   -2.2674 H   0  0  0  0  0  0  0  0  0  0  0  0
    5.6600   -0.7965   -0.8050 H   0  0  0  0  0  0  0  0  0  0  0  0
  2  1  1  6
  1 29  1  0
  1 30  1  0
  1 31  1  0
  2 10  1  0
  2 16  1  0
  2  3  1  0
  3  4  1  0
  3 32  1  0
  3 33  1  0
  4  5  1  0
  4 34  1  0
  4 35  1  0
  5  6  1  0
  5  7  1  0
  5 36  1  1
  6 37  1  0
  7  8  1  0
  7  9  1  0
  7 10  1  0
  8 38  1  0
  8 39  1  0
  8 40  1  0
  9 41  1  0
  9 42  1  0
  9 43  1  0
 10 11  1  0
 10 44  1  6
 11 12  1  0
 11 45  1  0
 11 46  1  0
 12 13  1  0
 12 14  1  0
 12 47  1  6
 13 48  1  0
 14 27  1  0
 14 15  1  1
 14 16  1  0
 15 49  1  0
 15 50  1  0
 15 51  1  0
 16 17  2  0
 17 18  1  0
 17 52  1  0
 18 19  2  0
 18 53  1  0
 19 27  1  0
 19 20  1  0
 20 25  1  0
 20 21  1  0
 20 54  1  6
 21 22  1  0
 21 55  1  0
 21 56  1  0
 22 24  1  0
 22 23  1  0
 22 57  1  1
 23 24  1  0
 23 58  1  0
 23 59  1  0
 24 25  1  0
 24 60  1  1
 25 26  1  1
 25 27  1  0
 26 61  1  0
 27 28  1  1
 28 62  1  0
 28 63  1  0
 28 64  1  0
M  END
>  <i_m_ct_stereo_status>  (83) 
1

>  <s_m_source_file>  (83) 
/var/tmp/pbs.5076255.sched01/tmp7e7yg0hy/0s0dyhj_r.sdf

>  <i_m_source_file_index>  (83) 
37

>  <i_lp_mmshare_version>  (83) 
48012

>  <i_f3d_flags>  (83) 
0

>  <s_epik_input>  (83) 
W0NIMl0xW0NIMl1bQ0BASF0oW09IXSlDKFtDSDNdKShbQ0gzXSlbQ0BIXShbQ0BdMTJbQ0gzXSlbQ0gyXVtDQEBIXShbT0hdKVtDQEBdMyhbQ0gzXSlDMj1bQ0hdW0NIXT1DNFtDQEhdNVtDQEBdKFtPSF0pKFtDQEBdMzRbQ0gzXSlbQ0BIXTZbQ0BASF0oW0NIMl01KVtDSDJdNg==

>  <s_epik_cmdline>  (83) 
J2VwaWtfcHl0aG9uJywgJy1waHQnLCAnMi4wJywgJy1waCcsICc3LjAnLCAnLXRuJywgJzgnLCAnLW1hJywgJzIwMCcsICctaW1hZScsICc8aW5maWxlLm1hZT4nLCAnLW9tYWUnLCAnPG91dGZpbGUubWFlPic=

>  <r_lp_tautomer_probability>  (83) 
1

>  <r_epik_Ionization_Penalty>  (83) 
3.97387e-06

>  <r_epik_Ionization_Penalty_Charging>  (83) 
0

>  <r_epik_Ionization_Penalty_Neutral>  (83) 
3.97387e-06

>  <r_epik_State_Penalty>  (83) 
-0

>  <r_epik_Charging_Adjusted_Penalty>  (83) 
0

>  <i_epik_Tot_Q>  (83) 
0

>  <i_epik_Tot_abs_Q>  (83) 
0

>  <s_lp_Force_Field>  (83) 
OPLS3e

>  <r_lp_Energy>  (83) 
96.7256

>  <b_lp_Chiralities_Consistent>  (83) 
1

>  <s_lp_Variant>  (83) 
25:0-1

>  <s_i_glide_gridfile>  (83) 
pfpi4k_grid

>  <i_i_glide_lignum>  (83) 
37

>  <i_i_glide_rotatable_bonds>  (83) 
3

>  <r_i_docking_score>  (83) 
-2.11859

>  <r_i_glide_ligand_efficiency>  (83) 
-0.0756639

>  <r_i_glide_ligand_efficiency_sa>  (83) 
-0.22976

>  <r_i_glide_ligand_efficiency_ln>  (83) 
-0.489032

>  <r_i_glide_gscore>  (83) 
-2.11859

>  <r_i_glide_lipo>  (83) 
-1.0104

>  <r_i_glide_hbond>  (83) 
0

>  <r_i_glide_metal>  (83) 
-0

>  <r_i_glide_rewards>  (83) 
-0.787149

>  <r_i_glide_evdw>  (83) 
-1.55746

>  <r_i_glide_ecoul>  (83) 
-1.62112

>  <r_i_glide_erotb>  (83) 
0

>  <r_i_glide_esite>  (83) 
0

>  <r_i_glide_emodel>  (83) 
-1.42791

>  <r_i_glide_energy>  (83) 
-3.17858

>  <r_i_glide_einternal>  (83) 
0.779059

>  <r_i_glide_intrahb_reward>  (83) 
-0

>  <i_i_glide_confnum>  (83) 
2

>  <i_i_glide_posenum>  (83) 
27

>  <r_i_glide_eff_state_penalty>  (83) 
0

>  <ligand_id>  (83) 
25

>  <original_smiles>  (83) 
CC12CCC(O)C(C)(C)C1CC(O)C1(C)C2=CC=C2C3CC4CC4C3(O)C21C

>  <smiles>  (83) 
[H]OC1([H])C([H])([H])C2([H])C(C([H])([H])[H])(C3=C([H])C([H])=C4C5([H])C([H])([H])C6([H])C([H])([H])C6([H])C5(O[H])C4(C([H])([H])[H])C31C([H])([H])[H])C([H])([H])C([H])([H])C([H])(O[H])C2(C([H])([H])[H])C([H])([H])[H]

$$$$
26:0:0
     RDKit          3D

 79 85  0  0  1  0  0  0  0  0999 V2000
    5.6052   -3.7564    5.2338 C   0  0  0  0  0  0  0  0  0  0  0  0
    5.5193   -4.4771    3.8684 C   0  0  2  0  0  0  0  0  0  0  0  0
    4.9971   -3.4866    2.9962 O   0  0  0  0  0  0  0  0  0  0  0  0
    5.6033   -3.3374    1.7201 C   0  0  0  0  0  0  0  0  0  0  0  0
    5.5232   -4.5833    0.8041 C   0  0  0  0  0  0  0  0  0  0  0  0
    5.3322   -4.0795   -0.6470 C   0  0  0  0  0  0  0  0  0  0  0  0
    6.8622   -5.3576    0.8039 C   0  0  0  0  0  0  0  0  0  0  0  0
    4.2929   -5.4671    1.1868 C   0  0  0  0  0  0  0  0  0  0  0  0
    4.4035   -6.4038    2.4314 C   0  0  1  0  0  0  0  0  0  0  0  0
    4.5416   -5.6791    3.8606 C   0  0  1  0  0  0  0  0  0  0  0  0
    4.9098   -6.7017    5.0424 C   0  0  2  0  0  0  0  0  0  0  0  0
    5.2316   -7.9048    4.2863 O   0  0  0  0  0  0  0  0  0  0  0  0
    4.2534   -8.6076    3.4458 C   0  0  1  0  0  0  0  0  0  0  0  0
    5.2468   -9.3779    2.5115 C   0  0  0  0  0  0  0  0  0  0  0  0
    3.5667   -9.7538    4.2565 C   0  0  0  0  0  0  0  0  0  0  0  0
    2.7460   -9.2538    5.4717 C   0  0  2  0  0  0  0  0  0  0  0  0
    3.3571  -10.0816    6.4686 O   0  0  0  0  0  0  0  0  0  0  0  0
    1.3169   -9.5984    5.9330 C   0  0  2  0  0  0  0  0  0  0  0  0
    0.3307   -9.2249    4.7582 C   0  0  0  0  0  0  0  0  0  0  0  0
    0.8167   -9.5512    3.2884 C   0  0  0  0  0  0  0  0  0  0  0  0
    0.6170  -10.7172    2.9391 O   0  0  0  0  0  0  0  0  0  0  0  0
    1.4458   -8.5202    2.2729 C   0  0  2  0  0  0  0  0  0  0  0  0
    2.8342   -8.6834    1.7430 O   0  0  0  0  0  0  0  0  0  0  0  0
    3.3347   -7.5809    2.6012 C   0  0  2  0  0  0  0  0  0  0  0  0
    1.8146   -7.0885    2.5639 C   0  0  1  0  0  0  0  0  0  0  0  0
    1.3604   -6.3047    1.3018 C   0  0  0  0  0  0  0  0  0  0  0  0
    1.2351   -6.2757    3.6806 C   0  0  1  0  0  0  0  0  0  0  0  0
   -0.1850   -6.2889    3.6297 O   0  0  0  0  0  0  0  0  0  0  0  0
    1.7718   -6.5419    5.0674 C   0  0  0  0  0  0  0  0  0  0  0  0
    2.8529   -7.6971    5.4582 C   0  0  2  0  0  0  0  0  0  0  0  0
    4.0454   -7.2895    6.2877 C   0  0  1  0  0  0  0  0  0  0  0  0
    5.1847   -8.1972    6.9175 C   0  0  0  0  0  0  0  0  0  0  0  0
    3.2982   -6.9401    7.7048 C   0  0  1  0  0  0  0  0  0  0  0  0
    2.6520   -5.6816    7.7320 O   0  0  0  0  0  0  0  0  0  0  0  0
    2.2516   -8.1427    8.2534 C   0  0  0  0  0  0  0  0  0  0  0  0
    1.0659   -8.9466    7.4212 C   0  0  0  0  0  0  0  0  0  0  0  0
   -0.0527   -9.0404    7.9297 O   0  0  0  0  0  0  0  0  0  0  0  0
    6.0939   -4.3545    6.0012 H   0  0  0  0  0  0  0  0  0  0  0  0
    4.6161   -3.4817    5.6012 H   0  0  0  0  0  0  0  0  0  0  0  0
    6.1876   -2.8379    5.1574 H   0  0  0  0  0  0  0  0  0  0  0  0
    6.5218   -4.7898    3.5833 H   0  0  0  0  0  0  0  0  0  0  0  0
    5.0379   -2.5238    1.2634 H   0  0  0  0  0  0  0  0  0  0  0  0
    6.6207   -2.9560    1.8053 H   0  0  0  0  0  0  0  0  0  0  0  0
    5.3286   -4.9047   -1.3598 H   0  0  0  0  0  0  0  0  0  0  0  0
    6.1414   -3.4048   -0.9395 H   0  0  0  0  0  0  0  0  0  0  0  0
    4.3941   -3.5367   -0.7762 H   0  0  0  0  0  0  0  0  0  0  0  0
    6.7959   -6.2472    0.1816 H   0  0  0  0  0  0  0  0  0  0  0  0
    7.1821   -5.6771    1.7920 H   0  0  0  0  0  0  0  0  0  0  0  0
    7.6691   -4.7379    0.4074 H   0  0  0  0  0  0  0  0  0  0  0  0
    3.4606   -4.7813    1.2943 H   0  0  0  0  0  0  0  0  0  0  0  0
    4.0789   -6.1016    0.3266 H   0  0  0  0  0  0  0  0  0  0  0  0
    5.3753   -6.8305    2.2420 H   0  0  0  0  0  0  0  0  0  0  0  0
    3.6158   -5.1642    4.0314 H   0  0  0  0  0  0  0  0  0  0  0  0
    5.8778   -6.3926    5.4367 H   0  0  0  0  0  0  0  0  0  0  0  0
    4.7454  -10.1575    1.9317 H   0  0  0  0  0  0  0  0  0  0  0  0
    6.0226   -9.8718    3.0997 H   0  0  0  0  0  0  0  0  0  0  0  0
    5.7667   -8.7596    1.7822 H   0  0  0  0  0  0  0  0  0  0  0  0
    3.0702  -10.4787    3.6170 H   0  0  0  0  0  0  0  0  0  0  0  0
    4.3967  -10.3820    4.5880 H   0  0  0  0  0  0  0  0  0  0  0  0
    2.8794  -10.8998    6.5352 H   0  0  0  0  0  0  0  0  0  0  0  0
    1.2183  -10.6786    6.0616 H   0  0  0  0  0  0  0  0  0  0  0  0
   -0.5556   -9.8381    4.9112 H   0  0  0  0  0  0  0  0  0  0  0  0
   -0.0382   -8.2182    4.8818 H   0  0  0  0  0  0  0  0  0  0  0  0
    0.7731   -8.5353    1.4169 H   0  0  0  0  0  0  0  0  0  0  0  0
    1.4515   -5.2263    1.3851 H   0  0  0  0  0  0  0  0  0  0  0  0
    0.3117   -6.4828    1.0709 H   0  0  0  0  0  0  0  0  0  0  0  0
    1.9082   -6.6287    0.4210 H   0  0  0  0  0  0  0  0  0  0  0  0
    1.4600   -5.2247    3.5000 H   0  0  0  0  0  0  0  0  0  0  0  0
   -0.4851   -7.1486    3.8855 H   0  0  0  0  0  0  0  0  0  0  0  0
    2.2354   -5.6052    5.3579 H   0  0  0  0  0  0  0  0  0  0  0  0
    0.8525   -6.4084    5.6843 H   0  0  0  0  0  0  0  0  0  0  0  0
    2.1179   -7.5193    6.0943 H   0  0  0  0  0  0  0  0  0  0  0  0
    4.8859   -8.7533    7.8046 H   0  0  0  0  0  0  0  0  0  0  0  0
    6.0034   -7.5708    7.2728 H   0  0  0  0  0  0  0  0  0  0  0  0
    5.6343   -8.9399    6.2607 H   0  0  0  0  0  0  0  0  0  0  0  0
    4.0506   -6.8096    8.4876 H   0  0  0  0  0  0  0  0  0  0  0  0
    3.3034   -5.0115    7.5957 H   0  0  0  0  0  0  0  0  0  0  0  0
    2.8720   -8.9404    8.6627 H   0  0  0  0  0  0  0  0  0  0  0  0
    1.7506   -7.7388    9.1320 H   0  0  0  0  0  0  0  0  0  0  0  0
  1  2  1  0
  1 38  1  0
  1 39  1  0
  1 40  1  0
  2 10  1  0
  2  3  1  0
  2 41  1  6
  3  4  1  0
  4  5  1  0
  4 42  1  0
  4 43  1  0
  5  6  1  0
  5  7  1  0
  5  8  1  0
  6 44  1  0
  6 45  1  0
  6 46  1  0
  7 47  1  0
  7 48  1  0
  7 49  1  0
  8  9  1  0
  8 50  1  0
  8 51  1  0
  9 24  1  0
  9 10  1  0
  9 52  1  6
 10 11  1  0
 10 53  1  1
 11 31  1  0
 11 12  1  0
 11 54  1  1
 12 13  1  0
 13 24  1  0
 13 14  1  6
 13 15  1  0
 14 55  1  0
 14 56  1  0
 14 57  1  0
 15 16  1  0
 15 58  1  0
 15 59  1  0
 16 30  1  0
 16 17  1  1
 16 18  1  0
 17 60  1  0
 18 36  1  0
 18 19  1  0
 18 61  1  1
 19 20  1  0
 19 62  1  0
 19 63  1  0
 20 21  2  0
 20 22  1  0
 22 25  1  0
 22 23  1  0
 22 64  1  6
 24 23  1  6
 24 25  1  0
 25 26  1  6
 25 27  1  0
 26 65  1  0
 26 66  1  0
 26 67  1  0
 27 28  1  0
 27 29  1  0
 27 68  1  6
 28 69  1  0
 29 30  1  0
 29 70  1  0
 29 71  1  0
 30 31  1  0
 30 72  1  6
 31 32  1  1
 31 33  1  0
 32 73  1  0
 32 74  1  0
 32 75  1  0
 33 34  1  0
 33 35  1  0
 33 76  1  1
 34 77  1  0
 35 36  1  0
 35 78  1  0
 35 79  1  0
 36 37  2  0
M  END
>  <i_m_ct_stereo_status>  (84) 
1

>  <s_m_source_file>  (84) 
/var/tmp/pbs.5076255.sched01/tmp7e7yg0hy/0s0dyhj_r.sdf

>  <i_m_source_file_index>  (84) 
38

>  <i_lp_mmshare_version>  (84) 
48012

>  <i_f3d_flags>  (84) 
0

>  <s_epik_input>  (84) 
W0NIM11DKFtDSDNdKShbQ0gyXTEpW0NIMl1PW0NAQEhdKFtDSDNdKVtDQEBIXShbQ0BIXTFbQ0BdMjM0KVtDQEhdNVtDQF02KFtDSDNdKVtDSF03W0NAXShbT0hdKShbQ0gyXVtDQEBdMihPNSlbQ0gzXSlbQ0BASF0oQyg9TylbQ0gyXVtDQEBIXTZbT0hdKVtDSDJdQyg9TylbQ0BIXShPMylbQ0BAXTQoW0NIM10pW0NAQEhdKFtPSF0pW0NIMl03

>  <s_epik_cmdline>  (84) 
J2VwaWtfcHl0aG9uJywgJy1waHQnLCAnMi4wJywgJy1waCcsICc3LjAnLCAnLXRuJywgJzgnLCAnLW1hJywgJzIwMCcsICctaW1hZScsICc8aW5maWxlLm1hZT4nLCAnLW9tYWUnLCAnPG91dGZpbGUubWFlPic=

>  <r_lp_tautomer_probability>  (84) 
1

>  <r_epik_Ionization_Penalty>  (84) 
2.06132e-07

>  <r_epik_Ionization_Penalty_Charging>  (84) 
0

>  <r_epik_Ionization_Penalty_Neutral>  (84) 
2.06132e-07

>  <r_epik_State_Penalty>  (84) 
-0

>  <r_epik_Charging_Adjusted_Penalty>  (84) 
0

>  <i_epik_Tot_Q>  (84) 
0

>  <i_epik_Tot_abs_Q>  (84) 
0

>  <s_lp_Force_Field>  (84) 
OPLS3e

>  <r_lp_Energy>  (84) 
372.362

>  <b_lp_Chiralities_Consistent>  (84) 
1

>  <s_lp_Variant>  (84) 
26:0-1

>  <s_i_glide_gridfile>  (84) 
pfpi4k_grid

>  <i_i_glide_lignum>  (84) 
38

>  <i_i_glide_rotatable_bonds>  (84) 
3

>  <r_i_docking_score>  (84) 
-2.26713

>  <r_i_glide_ligand_efficiency>  (84) 
-0.0612739

>  <r_i_glide_ligand_efficiency_sa>  (84) 
-0.204178

>  <r_i_glide_ligand_efficiency_ln>  (84) 
-0.491688

>  <r_i_glide_gscore>  (84) 
-2.26713

>  <r_i_glide_lipo>  (84) 
-0.331113

>  <r_i_glide_hbond>  (84) 
-0.105969

>  <r_i_glide_metal>  (84) 
-0

>  <r_i_glide_rewards>  (84) 
0

>  <r_i_glide_evdw>  (84) 
-22.4211

>  <r_i_glide_ecoul>  (84) 
-4.23402

>  <r_i_glide_erotb>  (84) 
0

>  <r_i_glide_esite>  (84) 
-0.0738941

>  <r_i_glide_emodel>  (84) 
-29.929

>  <r_i_glide_energy>  (84) 
-26.6551

>  <r_i_glide_einternal>  (84) 
0.95635

>  <r_i_glide_intrahb_reward>  (84) 
-0

>  <i_i_glide_confnum>  (84) 
1

>  <i_i_glide_posenum>  (84) 
25

>  <r_i_glide_eff_state_penalty>  (84) 
0

>  <ligand_id>  (84) 
26

>  <original_smiles>  (84) 
CC1OCC(C)(C)CC2C1C1OC3(C)CC4(O)C5CC(=O)C6OC23C6(C)C(O)CC4C1(C)C(O)CC5=O

>  <smiles>  (84) 
[H]OC1([H])C([H])([H])C(=O)C2([H])C([H])([H])C(=O)C3([H])OC45C6([H])C([H])([H])C(C([H])([H])[H])(C([H])([H])[H])C([H])([H])OC([H])(C([H])([H])[H])C6([H])C6([H])OC4(C([H])([H])[H])C([H])([H])C2(O[H])C([H])(C([H])([H])C([H])(O[H])C35C([H])([H])[H])C16C([H])([H])[H]

$$$$
26:0:1
     RDKit          3D

 79 85  0  0  1  0  0  0  0  0999 V2000
    4.2591   -0.6955    3.6271 C   0  0  0  0  0  0  0  0  0  0  0  0
    4.8182   -1.7067    2.6017 C   0  0  2  0  0  0  0  0  0  0  0  0
    4.1835   -1.3368    1.3889 O   0  0  0  0  0  0  0  0  0  0  0  0
    4.9774   -1.2699    0.2143 C   0  0  0  0  0  0  0  0  0  0  0  0
    5.6266   -2.6111   -0.2143 C   0  0  0  0  0  0  0  0  0  0  0  0
    5.6255   -2.6533   -1.7628 C   0  0  0  0  0  0  0  0  0  0  0  0
    7.1142   -2.6666    0.2036 C   0  0  0  0  0  0  0  0  0  0  0  0
    4.7884   -3.8210    0.3133 C   0  0  0  0  0  0  0  0  0  0  0  0
    4.9445   -4.2419    1.8101 C   0  0  1  0  0  0  0  0  0  0  0  0
    4.4273   -3.1805    2.9040 C   0  0  1  0  0  0  0  0  0  0  0  0
    4.8496   -3.5762    4.4019 C   0  0  2  0  0  0  0  0  0  0  0  0
    5.7947   -4.6549    4.1545 O   0  0  0  0  0  0  0  0  0  0  0  0
    5.4225   -5.9156    3.5023 C   0  0  1  0  0  0  0  0  0  0  0  0
    6.8404   -6.3658    3.0111 C   0  0  0  0  0  0  0  0  0  0  0  0
    5.0619   -6.9921    4.5743 C   0  0  0  0  0  0  0  0  0  0  0  0
    3.8298   -6.6162    5.4375 C   0  0  2  0  0  0  0  0  0  0  0  0
    4.4510   -6.7817    6.7143 O   0  0  0  0  0  0  0  0  0  0  0  0
    2.5925   -7.4414    5.8393 C   0  0  2  0  0  0  0  0  0  0  0  0
    1.8640   -7.8848    4.5093 C   0  0  0  0  0  0  0  0  0  0  0  0
    2.7907   -8.3296    3.3047 C   0  0  0  0  0  0  0  0  0  0  0  0
    3.1524   -9.5041    3.3650 O   0  0  0  0  0  0  0  0  0  0  0  0
    3.2015   -7.4289    2.0733 C   0  0  2  0  0  0  0  0  0  0  0  0
    4.6287   -7.0821    1.7954 O   0  0  0  0  0  0  0  0  0  0  0  0
    4.4212   -5.6847    2.2587 C   0  0  2  0  0  0  0  0  0  0  0  0
    2.8937   -5.9657    1.8856 C   0  0  1  0  0  0  0  0  0  0  0  0
    2.5022   -5.8375    0.3868 C   0  0  0  0  0  0  0  0  0  0  0  0
    1.7859   -5.2435    2.5795 C   0  0  1  0  0  0  0  0  0  0  0  0
    0.5528   -5.9147    2.3754 O   0  0  0  0  0  0  0  0  0  0  0  0
    2.0057   -4.8603    4.0207 C   0  0  0  0  0  0  0  0  0  0  0  0
    3.3163   -5.2473    4.9041 C   0  0  2  0  0  0  0  0  0  0  0  0
    3.9995   -4.1402    5.6684 C   0  0  1  0  0  0  0  0  0  0  0  0
    5.2049   -4.2314    6.6982 C   0  0  0  0  0  0  0  0  0  0  0  0
    2.8435   -3.8093    6.7817 C   0  0  1  0  0  0  0  0  0  0  0  0
    1.7686   -3.0249    6.2985 O   0  0  0  0  0  0  0  0  0  0  0  0
    2.2567   -5.1637    7.5966 C   0  0  0  0  0  0  0  0  0  0  0  0
    1.7407   -6.6058    6.9719 C   0  0  0  0  0  0  0  0  0  0  0  0
    0.6681   -7.0693    7.3625 O   0  0  0  0  0  0  0  0  0  0  0  0
    4.7272   -0.7823    4.6055 H   0  0  0  0  0  0  0  0  0  0  0  0
    3.1843   -0.8167    3.7582 H   0  0  0  0  0  0  0  0  0  0  0  0
    4.4350    0.3278    3.2930 H   0  0  0  0  0  0  0  0  0  0  0  0
    5.8975   -1.5661    2.5596 H   0  0  0  0  0  0  0  0  0  0  0  0
    4.2683   -0.9561   -0.5524 H   0  0  0  0  0  0  0  0  0  0  0  0
    5.7057   -0.4598    0.2739 H   0  0  0  0  0  0  0  0  0  0  0  0
    6.1342   -3.5421   -2.1407 H   0  0  0  0  0  0  0  0  0  0  0  0
    6.1439   -1.7879   -2.1792 H   0  0  0  0  0  0  0  0  0  0  0  0
    4.6150   -2.6534   -2.1740 H   0  0  0  0  0  0  0  0  0  0  0  0
    7.5624   -3.6179   -0.0773 H   0  0  0  0  0  0  0  0  0  0  0  0
    7.2641   -2.5360    1.2712 H   0  0  0  0  0  0  0  0  0  0  0  0
    7.6880   -1.8775   -0.2844 H   0  0  0  0  0  0  0  0  0  0  0  0
    3.7558   -3.5871    0.0826 H   0  0  0  0  0  0  0  0  0  0  0  0
    5.0642   -4.6856   -0.2896 H   0  0  0  0  0  0  0  0  0  0  0  0
    6.0178   -4.2147    1.8904 H   0  0  0  0  0  0  0  0  0  0  0  0
    3.3618   -3.1170    2.7810 H   0  0  0  0  0  0  0  0  0  0  0  0
    5.4831   -2.7714    4.7695 H   0  0  0  0  0  0  0  0  0  0  0  0
    6.8530   -7.4085    2.6878 H   0  0  0  0  0  0  0  0  0  0  0  0
    7.5732   -6.2755    3.8149 H   0  0  0  0  0  0  0  0  0  0  0  0
    7.2394   -5.7963    2.1746 H   0  0  0  0  0  0  0  0  0  0  0  0
    5.0653   -8.0035    4.1753 H   0  0  0  0  0  0  0  0  0  0  0  0
    5.9623   -7.0638    5.1895 H   0  0  0  0  0  0  0  0  0  0  0  0
    4.6825   -7.6898    6.8198 H   0  0  0  0  0  0  0  0  0  0  0  0
    2.9040   -8.3695    6.3240 H   0  0  0  0  0  0  0  0  0  0  0  0
    1.2846   -8.7732    4.7687 H   0  0  0  0  0  0  0  0  0  0  0  0
    1.1049   -7.1678    4.2340 H   0  0  0  0  0  0  0  0  0  0  0  0
    2.8284   -7.9744    1.2065 H   0  0  0  0  0  0  0  0  0  0  0  0
    2.1492   -4.8569    0.0854 H   0  0  0  0  0  0  0  0  0  0  0  0
    1.6857   -6.5072    0.1236 H   0  0  0  0  0  0  0  0  0  0  0  0
    3.3310   -6.1132   -0.2660 H   0  0  0  0  0  0  0  0  0  0  0  0
    1.6230   -4.2912    2.0789 H   0  0  0  0  0  0  0  0  0  0  0  0
    0.6111   -6.7811    2.7556 H   0  0  0  0  0  0  0  0  0  0  0  0
    1.9756   -3.7762    4.0178 H   0  0  0  0  0  0  0  0  0  0  0  0
    0.9851   -5.0014    4.4442 H   0  0  0  0  0  0  0  0  0  0  0  0
    2.4365   -5.2632    5.3550 H   0  0  0  0  0  0  0  0  0  0  0  0
    4.9353   -4.6079    7.6841 H   0  0  0  0  0  0  0  0  0  0  0  0
    5.5948   -3.2343    6.9037 H   0  0  0  0  0  0  0  0  0  0  0  0
    6.0606   -4.8332    6.3969 H   0  0  0  0  0  0  0  0  0  0  0  0
    3.2588   -3.1500    7.5492 H   0  0  0  0  0  0  0  0  0  0  0  0
    2.1226   -2.2156    5.9582 H   0  0  0  0  0  0  0  0  0  0  0  0
    3.0158   -5.4518    8.3234 H   0  0  0  0  0  0  0  0  0  0  0  0
    1.4316   -4.8181    8.2163 H   0  0  0  0  0  0  0  0  0  0  0  0
  1  2  1  0
  1 38  1  0
  1 39  1  0
  1 40  1  0
  2 10  1  0
  2  3  1  0
  2 41  1  6
  3  4  1  0
  4  5  1  0
  4 42  1  0
  4 43  1  0
  5  6  1  0
  5  7  1  0
  5  8  1  0
  6 44  1  0
  6 45  1  0
  6 46  1  0
  7 47  1  0
  7 48  1  0
  7 49  1  0
  8  9  1  0
  8 50  1  0
  8 51  1  0
  9 24  1  0
  9 10  1  0
  9 52  1  1
 10 11  1  0
 10 53  1  1
 11 31  1  0
 11 12  1  0
 11 54  1  1
 12 13  1  0
 13 24  1  0
 13 14  1  6
 13 15  1  0
 14 55  1  0
 14 56  1  0
 14 57  1  0
 15 16  1  0
 15 58  1  0
 15 59  1  0
 16 30  1  0
 16 17  1  1
 16 18  1  0
 17 60  1  0
 18 36  1  0
 18 19  1  0
 18 61  1  1
 19 20  1  0
 19 62  1  0
 19 63  1  0
 20 21  2  0
 20 22  1  0
 22 25  1  0
 22 23  1  0
 22 64  1  6
 24 23  1  6
 24 25  1  0
 25 26  1  6
 25 27  1  0
 26 65  1  0
 26 66  1  0
 26 67  1  0
 27 28  1  0
 27 29  1  0
 27 68  1  6
 28 69  1  0
 29 30  1  0
 29 70  1  0
 29 71  1  0
 30 31  1  0
 30 72  1  6
 31 32  1  1
 31 33  1  0
 32 73  1  0
 32 74  1  0
 32 75  1  0
 33 34  1  0
 33 35  1  0
 33 76  1  1
 34 77  1  0
 35 36  1  0
 35 78  1  0
 35 79  1  0
 36 37  2  0
M  END
>  <i_m_ct_stereo_status>  (85) 
1

>  <s_m_source_file>  (85) 
/var/tmp/pbs.5076255.sched01/tmp7e7yg0hy/0s0dyhj_r.sdf

>  <i_m_source_file_index>  (85) 
38

>  <i_lp_mmshare_version>  (85) 
48012

>  <i_f3d_flags>  (85) 
0

>  <s_epik_input>  (85) 
W0NIM11DKFtDSDNdKShbQ0gyXTEpW0NIMl1PW0NAQEhdKFtDSDNdKVtDQEBIXShbQ0BIXTFbQ0BdMjM0KVtDQEhdNVtDQF02KFtDSDNdKVtDSF03W0NAXShbT0hdKShbQ0gyXVtDQEBdMihPNSlbQ0gzXSlbQ0BASF0oQyg9TylbQ0gyXVtDQEBIXTZbT0hdKVtDSDJdQyg9TylbQ0BIXShPMylbQ0BAXTQoW0NIM10pW0NAQEhdKFtPSF0pW0NIMl03

>  <s_epik_cmdline>  (85) 
J2VwaWtfcHl0aG9uJywgJy1waHQnLCAnMi4wJywgJy1waCcsICc3LjAnLCAnLXRuJywgJzgnLCAnLW1hJywgJzIwMCcsICctaW1hZScsICc8aW5maWxlLm1hZT4nLCAnLW9tYWUnLCAnPG91dGZpbGUubWFlPic=

>  <r_lp_tautomer_probability>  (85) 
1

>  <r_epik_Ionization_Penalty>  (85) 
2.06132e-07

>  <r_epik_Ionization_Penalty_Charging>  (85) 
0

>  <r_epik_Ionization_Penalty_Neutral>  (85) 
2.06132e-07

>  <r_epik_State_Penalty>  (85) 
-0

>  <r_epik_Charging_Adjusted_Penalty>  (85) 
0

>  <i_epik_Tot_Q>  (85) 
0

>  <i_epik_Tot_abs_Q>  (85) 
0

>  <s_lp_Force_Field>  (85) 
OPLS3e

>  <r_lp_Energy>  (85) 
372.362

>  <b_lp_Chiralities_Consistent>  (85) 
1

>  <s_lp_Variant>  (85) 
26:0-1

>  <s_i_glide_gridfile>  (85) 
pfpi4k_grid

>  <i_i_glide_lignum>  (85) 
38

>  <i_i_glide_rotatable_bonds>  (85) 
3

>  <r_i_docking_score>  (85) 
-1.912

>  <r_i_glide_ligand_efficiency>  (85) 
-0.0516756

>  <r_i_glide_ligand_efficiency_sa>  (85) 
-0.172195

>  <r_i_glide_ligand_efficiency_ln>  (85) 
-0.414668

>  <r_i_glide_gscore>  (85) 
-1.912

>  <r_i_glide_lipo>  (85) 
-0.359092

>  <r_i_glide_hbond>  (85) 
-0.142225

>  <r_i_glide_metal>  (85) 
-0

>  <r_i_glide_rewards>  (85) 
0

>  <r_i_glide_evdw>  (85) 
-19.1434

>  <r_i_glide_ecoul>  (85) 
-2.99965

>  <r_i_glide_erotb>  (85) 
0

>  <r_i_glide_esite>  (85) 
-0.00356617

>  <r_i_glide_emodel>  (85) 
-25.22

>  <r_i_glide_energy>  (85) 
-22.143

>  <r_i_glide_einternal>  (85) 
0.373128

>  <r_i_glide_intrahb_reward>  (85) 
-0

>  <i_i_glide_confnum>  (85) 
2

>  <i_i_glide_posenum>  (85) 
1

>  <r_i_glide_eff_state_penalty>  (85) 
0

>  <ligand_id>  (85) 
26

>  <original_smiles>  (85) 
CC1OCC(C)(C)CC2C1C1OC3(C)CC4(O)C5CC(=O)C6OC23C6(C)C(O)CC4C1(C)C(O)CC5=O

>  <smiles>  (85) 
[H]OC1([H])C([H])([H])C(=O)C2([H])C([H])([H])C(=O)C3([H])OC45C6([H])C([H])([H])C(C([H])([H])[H])(C([H])([H])[H])C([H])([H])OC([H])(C([H])([H])[H])C6([H])C6([H])OC4(C([H])([H])[H])C([H])([H])C2(O[H])C([H])(C([H])([H])C([H])(O[H])C35C([H])([H])[H])C16C([H])([H])[H]

$$$$
27:0:0
     RDKit          3D

 27 32  0  0  1  0  0  0  0  0999 V2000
    4.4041   -5.3083   -0.3199 O   0  0  0  0  0  0  0  0  0  0  0  0
    4.5953   -3.9504   -0.6583 C   0  0  2  0  0  0  0  0  0  0  0  0
    5.5215   -3.6374   -1.8284 C   0  0  2  0  0  0  0  0  0  0  0  0
    6.6099   -3.2112   -0.8451 C   0  0  0  0  0  0  0  0  0  0  0  0
    5.5340   -3.1291    0.2292 C   0  0  1  0  0  0  0  0  0  0  0  0
    4.8629   -1.8171    0.4608 C   0  0  1  0  0  0  0  0  0  0  0  0
    4.3952   -0.9308   -0.6830 C   0  0  1  0  0  0  0  0  0  0  0  0
    4.5152   -1.1913   -2.1874 C   0  0  2  0  0  0  0  0  0  0  0  0
    3.1483   -1.3809   -2.8551 C   0  0  0  0  0  0  0  0  0  0  0  0
    3.2820   -2.8328   -2.3795 C   0  0  1  0  0  0  0  0  0  0  0  0
    4.7645   -2.6430   -2.7029 C   0  0  2  0  0  0  0  0  0  0  0  0
    3.2511   -3.2184   -0.8786 C   0  0  2  0  0  0  0  0  0  0  0  0
    3.4593   -1.9415   -0.0576 C   0  0  1  0  0  0  0  0  0  0  0  0
    3.8998   -5.6882   -1.0381 H   0  0  0  0  0  0  0  0  0  0  0  0
    5.7771   -4.5376   -2.3864 H   0  0  0  0  0  0  0  0  0  0  0  0
    7.3471   -3.9882   -0.6466 H   0  0  0  0  0  0  0  0  0  0  0  0
    7.0720   -2.2566   -1.0876 H   0  0  0  0  0  0  0  0  0  0  0  0
    5.8150   -3.6691    1.1351 H   0  0  0  0  0  0  0  0  0  0  0  0
    4.9856   -1.3671    1.4380 H   0  0  0  0  0  0  0  0  0  0  0  0
    4.2588    0.1116   -0.4127 H   0  0  0  0  0  0  0  0  0  0  0  0
    5.1099   -0.4526   -2.7170 H   0  0  0  0  0  0  0  0  0  0  0  0
    2.3413   -0.8335   -2.3692 H   0  0  0  0  0  0  0  0  0  0  0  0
    3.1390   -1.2648   -3.9399 H   0  0  0  0  0  0  0  0  0  0  0  0
    2.8251   -3.5588   -3.0555 H   0  0  0  0  0  0  0  0  0  0  0  0
    5.0013   -2.6994   -3.7660 H   0  0  0  0  0  0  0  0  0  0  0  0
    2.3579   -3.7616   -0.5690 H   0  0  0  0  0  0  0  0  0  0  0  0
    2.6279   -1.5395    0.5029 H   0  0  0  0  0  0  0  0  0  0  0  0
  2  1  1  1
  1 14  1  0
  2  5  1  0
  2 12  1  0
  2  3  1  0
  3 11  1  0
  3  4  1  0
  3 15  1  6
  4  5  1  0
  4 16  1  0
  4 17  1  0
  5  6  1  0
  5 18  1  1
  6 13  1  0
  6  7  1  0
  6 19  1  1
  7 13  1  0
  7  8  1  0
  7 20  1  6
  8 11  1  0
  8  9  1  0
  8 21  1  6
  9 10  1  0
  9 22  1  0
  9 23  1  0
 10 11  1  0
 10 12  1  0
 10 24  1  6
 11 25  1  6
 12 13  1  0
 12 26  1  1
 13 27  1  1
M  END
>  <i_m_ct_stereo_status>  (86) 
1

>  <s_m_source_file>  (86) 
/var/tmp/pbs.5076255.sched01/tmp7e7yg0hy/0s0dyhj_r.sdf

>  <i_m_source_file_index>  (86) 
39

>  <i_lp_mmshare_version>  (86) 
48012

>  <i_f3d_flags>  (86) 
0

>  <s_epik_input>  (86) 
W09IXVtDQF0xMltDQEhdM1tDQEBIXTRbQ0BASF01W0NAQEhdNltDQEhdKFtDQEBIXTFbQ0gyXTMpW0NAQEhdNltDQEhdMltDQEhdNFtDSDJdNQ==

>  <s_epik_cmdline>  (86) 
J2VwaWtfcHl0aG9uJywgJy1waHQnLCAnMi4wJywgJy1waCcsICc3LjAnLCAnLXRuJywgJzgnLCAnLW1hJywgJzIwMCcsICctaW1hZScsICc8aW5maWxlLm1hZT4nLCAnLW9tYWUnLCAnPG91dGZpbGUubWFlPic=

>  <r_lp_tautomer_probability>  (86) 
1

>  <r_epik_Ionization_Penalty>  (86) 
8.16179e-06

>  <r_epik_Ionization_Penalty_Charging>  (86) 
0

>  <r_epik_Ionization_Penalty_Neutral>  (86) 
8.16179e-06

>  <r_epik_State_Penalty>  (86) 
-0

>  <r_epik_Charging_Adjusted_Penalty>  (86) 
0

>  <i_epik_Tot_Q>  (86) 
0

>  <i_epik_Tot_abs_Q>  (86) 
0

>  <s_lp_Force_Field>  (86) 
OPLS3e

>  <r_lp_Energy>  (86) 
56.5238

>  <b_lp_Chiralities_Consistent>  (86) 
1

>  <s_lp_Variant>  (86) 
27:0-1

>  <s_i_glide_gridfile>  (86) 
pfpi4k_grid

>  <i_i_glide_lignum>  (86) 
39

>  <i_i_glide_rotatable_bonds>  (86) 
1

>  <r_i_docking_score>  (86) 
-4.32252

>  <r_i_glide_ligand_efficiency>  (86) 
-0.332502

>  <r_i_glide_ligand_efficiency_sa>  (86) 
-0.781822

>  <r_i_glide_ligand_efficiency_ln>  (86) 
-1.21251

>  <r_i_glide_gscore>  (86) 
-4.32252

>  <r_i_glide_lipo>  (86) 
-0.434893

>  <r_i_glide_hbond>  (86) 
-0.32

>  <r_i_glide_metal>  (86) 
-0

>  <r_i_glide_rewards>  (86) 
-2.2211

>  <r_i_glide_evdw>  (86) 
-16.8725

>  <r_i_glide_ecoul>  (86) 
-3.35271

>  <r_i_glide_erotb>  (86) 
0

>  <r_i_glide_esite>  (86) 
0

>  <r_i_glide_emodel>  (86) 
-25.4595

>  <r_i_glide_energy>  (86) 
-20.2252

>  <r_i_glide_einternal>  (86) 
0.927214

>  <r_i_glide_intrahb_reward>  (86) 
-0

>  <i_i_glide_confnum>  (86) 
2

>  <i_i_glide_posenum>  (86) 
11

>  <r_i_glide_eff_state_penalty>  (86) 
0

>  <ligand_id>  (86) 
27

>  <original_smiles>  (86) 
OC12C3CC1C1C4C5CC(C53)C2C41

>  <smiles>  (86) 
[H]OC12C3([H])C([H])([H])C1([H])C1([H])C4([H])C5([H])C([H])([H])C([H])(C53[H])C2([H])C41[H]

$$$$
27:0:1
     RDKit          3D

 27 32  0  0  1  0  0  0  0  0999 V2000
    2.9027   -1.5013    0.8630 O   0  0  0  0  0  0  0  0  0  0  0  0
    3.5784   -2.2236   -0.1463 C   0  0  2  0  0  0  0  0  0  0  0  0
    2.7761   -3.3016   -0.8628 C   0  0  2  0  0  0  0  0  0  0  0  0
    3.5254   -4.3653   -0.0683 C   0  0  0  0  0  0  0  0  0  0  0  0
    4.5646   -3.3114    0.2752 C   0  0  1  0  0  0  0  0  0  0  0  0
    5.7586   -3.1798   -0.6152 C   0  0  1  0  0  0  0  0  0  0  0  0
    5.6616   -3.1816   -2.1387 C   0  0  1  0  0  0  0  0  0  0  0  0
    4.4021   -3.3233   -2.9945 C   0  0  2  0  0  0  0  0  0  0  0  0
    4.1030   -2.0479   -3.7896 C   0  0  0  0  0  0  0  0  0  0  0  0
    3.4256   -1.5815   -2.4949 C   0  0  1  0  0  0  0  0  0  0  0  0
    3.0052   -3.0476   -2.3595 C   0  0  2  0  0  0  0  0  0  0  0  0
    4.2092   -1.2821   -1.1962 C   0  0  2  0  0  0  0  0  0  0  0  0
    5.5975   -1.8909   -1.3567 C   0  0  1  0  0  0  0  0  0  0  0  0
    2.1600   -1.0995    0.4288 H   0  0  0  0  0  0  0  0  0  0  0  0
    1.7192   -3.2583   -0.5964 H   0  0  0  0  0  0  0  0  0  0  0  0
    2.9722   -4.7225    0.8006 H   0  0  0  0  0  0  0  0  0  0  0  0
    3.9127   -5.1727   -0.6895 H   0  0  0  0  0  0  0  0  0  0  0  0
    4.7697   -3.2782    1.3450 H   0  0  0  0  0  0  0  0  0  0  0  0
    6.7251   -3.3610   -0.1639 H   0  0  0  0  0  0  0  0  0  0  0  0
    6.5915   -3.4152   -2.6539 H   0  0  0  0  0  0  0  0  0  0  0  0
    4.3842   -4.2061   -3.6292 H   0  0  0  0  0  0  0  0  0  0  0  0
    4.9815   -1.4574   -4.0522 H   0  0  0  0  0  0  0  0  0  0  0  0
    3.4141   -2.1807   -4.6230 H   0  0  0  0  0  0  0  0  0  0  0  0
    2.5577   -0.9450   -2.6727 H   0  0  0  0  0  0  0  0  0  0  0  0
    2.1771   -3.3407   -3.0071 H   0  0  0  0  0  0  0  0  0  0  0  0
    4.2535   -0.2314   -0.9187 H   0  0  0  0  0  0  0  0  0  0  0  0
    6.4253   -1.2294   -1.4780 H   0  0  0  0  0  0  0  0  0  0  0  0
  2  1  1  1
  1 14  1  0
  2  5  1  0
  2 12  1  0
  2  3  1  0
  3 11  1  0
  3  4  1  0
  3 15  1  6
  4  5  1  0
  4 16  1  0
  4 17  1  0
  5  6  1  0
  5 18  1  1
  6 13  1  0
  6  7  1  0
  6 19  1  6
  7 13  1  0
  7  8  1  0
  7 20  1  6
  8 11  1  0
  8  9  1  0
  8 21  1  6
  9 10  1  0
  9 22  1  0
  9 23  1  0
 10 11  1  0
 10 12  1  0
 10 24  1  6
 11 25  1  6
 12 13  1  0
 12 26  1  1
 13 27  1  6
M  END
>  <i_m_ct_stereo_status>  (87) 
1

>  <s_m_source_file>  (87) 
/var/tmp/pbs.5076255.sched01/tmp7e7yg0hy/0s0dyhj_r.sdf

>  <i_m_source_file_index>  (87) 
39

>  <i_lp_mmshare_version>  (87) 
48012

>  <i_f3d_flags>  (87) 
0

>  <s_epik_input>  (87) 
W09IXVtDQF0xMltDQEhdM1tDQEBIXTRbQ0BASF01W0NAQEhdNltDQEhdKFtDQEBIXTFbQ0gyXTMpW0NAQEhdNltDQEhdMltDQEhdNFtDSDJdNQ==

>  <s_epik_cmdline>  (87) 
J2VwaWtfcHl0aG9uJywgJy1waHQnLCAnMi4wJywgJy1waCcsICc3LjAnLCAnLXRuJywgJzgnLCAnLW1hJywgJzIwMCcsICctaW1hZScsICc8aW5maWxlLm1hZT4nLCAnLW9tYWUnLCAnPG91dGZpbGUubWFlPic=

>  <r_lp_tautomer_probability>  (87) 
1

>  <r_epik_Ionization_Penalty>  (87) 
8.16179e-06

>  <r_epik_Ionization_Penalty_Charging>  (87) 
0

>  <r_epik_Ionization_Penalty_Neutral>  (87) 
8.16179e-06

>  <r_epik_State_Penalty>  (87) 
-0

>  <r_epik_Charging_Adjusted_Penalty>  (87) 
0

>  <i_epik_Tot_Q>  (87) 
0

>  <i_epik_Tot_abs_Q>  (87) 
0

>  <s_lp_Force_Field>  (87) 
OPLS3e

>  <r_lp_Energy>  (87) 
56.5238

>  <b_lp_Chiralities_Consistent>  (87) 
1

>  <s_lp_Variant>  (87) 
27:0-1

>  <s_i_glide_gridfile>  (87) 
pfpi4k_grid

>  <i_i_glide_lignum>  (87) 
39

>  <i_i_glide_rotatable_bonds>  (87) 
1

>  <r_i_docking_score>  (87) 
-4.07042

>  <r_i_glide_ligand_efficiency>  (87) 
-0.313109

>  <r_i_glide_ligand_efficiency_sa>  (87) 
-0.736224

>  <r_i_glide_ligand_efficiency_ln>  (87) 
-1.14179

>  <r_i_glide_gscore>  (87) 
-4.07042

>  <r_i_glide_lipo>  (87) 
-0.444043

>  <r_i_glide_hbond>  (87) 
-0.16

>  <r_i_glide_metal>  (87) 
-0

>  <r_i_glide_rewards>  (87) 
-2.2211

>  <r_i_glide_evdw>  (87) 
-18.9529

>  <r_i_glide_ecoul>  (87) 
-1.9842

>  <r_i_glide_erotb>  (87) 
0

>  <r_i_glide_esite>  (87) 
0

>  <r_i_glide_emodel>  (87) 
-25.7403

>  <r_i_glide_energy>  (87) 
-20.9371

>  <r_i_glide_einternal>  (87) 
1.06702

>  <r_i_glide_intrahb_reward>  (87) 
-0

>  <i_i_glide_confnum>  (87) 
2

>  <i_i_glide_posenum>  (87) 
22

>  <r_i_glide_eff_state_penalty>  (87) 
0

>  <ligand_id>  (87) 
27

>  <original_smiles>  (87) 
OC12C3CC1C1C4C5CC(C53)C2C41

>  <smiles>  (87) 
[H]OC12C3([H])C([H])([H])C1([H])C1([H])C4([H])C5([H])C([H])([H])C([H])(C53[H])C2([H])C41[H]

$$$$
27:0:2
     RDKit          3D

 27 32  0  0  1  0  0  0  0  0999 V2000
    6.9238   -2.2343    0.5002 O   0  0  0  0  0  0  0  0  0  0  0  0
    5.6258   -2.3307   -0.0565 C   0  0  2  0  0  0  0  0  0  0  0  0
    5.0596   -1.0800   -0.7104 C   0  0  2  0  0  0  0  0  0  0  0  0
    4.1331   -0.8901    0.4886 C   0  0  0  0  0  0  0  0  0  0  0  0
    4.4135   -2.3338    0.8825 C   0  0  1  0  0  0  0  0  0  0  0  0
    3.4837   -3.3962    0.3838 C   0  0  1  0  0  0  0  0  0  0  0  0
    2.9881   -3.4480   -1.0536 C   0  0  1  0  0  0  0  0  0  0  0  0
    3.3154   -2.4723   -2.1888 C   0  0  2  0  0  0  0  0  0  0  0  0
    4.1188   -3.1436   -3.3083 C   0  0  0  0  0  0  0  0  0  0  0  0
    5.3252   -2.8395   -2.4135 C   0  0  1  0  0  0  0  0  0  0  0  0
    4.5705   -1.5451   -2.0879 C   0  0  2  0  0  0  0  0  0  0  0  0
    5.5541   -3.5145   -1.0449 C   0  0  2  0  0  0  0  0  0  0  0  0
    4.2413   -4.1842   -0.6383 C   0  0  1  0  0  0  0  0  0  0  0  0
    6.8776   -1.5818    1.1730 H   0  0  0  0  0  0  0  0  0  0  0  0
    5.8152   -0.2855   -0.7649 H   0  0  0  0  0  0  0  0  0  0  0  0
    4.5077   -0.1610    1.2089 H   0  0  0  0  0  0  0  0  0  0  0  0
    3.0994   -0.7003    0.2040 H   0  0  0  0  0  0  0  0  0  0  0  0
    4.6980   -2.4170    1.9308 H   0  0  0  0  0  0  0  0  0  0  0  0
    2.9408   -3.9663    1.1290 H   0  0  0  0  0  0  0  0  0  0  0  0
    2.0821   -4.0313   -1.2079 H   0  0  0  0  0  0  0  0  0  0  0  0
    2.4560   -1.9412   -2.5902 H   0  0  0  0  0  0  0  0  0  0  0  0
    3.9411   -4.2101   -3.4331 H   0  0  0  0  0  0  0  0  0  0  0  0
    4.1127   -2.6040   -4.2578 H   0  0  0  0  0  0  0  0  0  0  0  0
    6.2332   -2.6567   -2.9831 H   0  0  0  0  0  0  0  0  0  0  0  0
    4.5971   -0.7832   -2.8696 H   0  0  0  0  0  0  0  0  0  0  0  0
    6.3887   -4.2104   -1.0045 H   0  0  0  0  0  0  0  0  0  0  0  0
    4.1827   -5.2602   -0.6687 H   0  0  0  0  0  0  0  0  0  0  0  0
  2  1  1  1
  1 14  1  0
  2  5  1  0
  2 12  1  0
  2  3  1  0
  3 11  1  0
  3  4  1  0
  3 15  1  6
  4  5  1  0
  4 16  1  0
  4 17  1  0
  5  6  1  0
  5 18  1  1
  6 13  1  0
  6  7  1  0
  6 19  1  1
  7 13  1  0
  7  8  1  0
  7 20  1  1
  8 11  1  0
  8  9  1  0
  8 21  1  6
  9 10  1  0
  9 22  1  0
  9 23  1  0
 10 11  1  0
 10 12  1  0
 10 24  1  6
 11 25  1  6
 12 13  1  0
 12 26  1  6
 13 27  1  1
M  END
>  <i_m_ct_stereo_status>  (88) 
1

>  <s_m_source_file>  (88) 
/var/tmp/pbs.5076255.sched01/tmp7e7yg0hy/0s0dyhj_r.sdf

>  <i_m_source_file_index>  (88) 
39

>  <i_lp_mmshare_version>  (88) 
48012

>  <i_f3d_flags>  (88) 
0

>  <s_epik_input>  (88) 
W09IXVtDQF0xMltDQEhdM1tDQEBIXTRbQ0BASF01W0NAQEhdNltDQEhdKFtDQEBIXTFbQ0gyXTMpW0NAQEhdNltDQEhdMltDQEhdNFtDSDJdNQ==

>  <s_epik_cmdline>  (88) 
J2VwaWtfcHl0aG9uJywgJy1waHQnLCAnMi4wJywgJy1waCcsICc3LjAnLCAnLXRuJywgJzgnLCAnLW1hJywgJzIwMCcsICctaW1hZScsICc8aW5maWxlLm1hZT4nLCAnLW9tYWUnLCAnPG91dGZpbGUubWFlPic=

>  <r_lp_tautomer_probability>  (88) 
1

>  <r_epik_Ionization_Penalty>  (88) 
8.16179e-06

>  <r_epik_Ionization_Penalty_Charging>  (88) 
0

>  <r_epik_Ionization_Penalty_Neutral>  (88) 
8.16179e-06

>  <r_epik_State_Penalty>  (88) 
-0

>  <r_epik_Charging_Adjusted_Penalty>  (88) 
0

>  <i_epik_Tot_Q>  (88) 
0

>  <i_epik_Tot_abs_Q>  (88) 
0

>  <s_lp_Force_Field>  (88) 
OPLS3e

>  <r_lp_Energy>  (88) 
56.5238

>  <b_lp_Chiralities_Consistent>  (88) 
1

>  <s_lp_Variant>  (88) 
27:0-1

>  <s_i_glide_gridfile>  (88) 
pfpi4k_grid

>  <i_i_glide_lignum>  (88) 
39

>  <i_i_glide_rotatable_bonds>  (88) 
1

>  <r_i_docking_score>  (88) 
-3.77709

>  <r_i_glide_ligand_efficiency>  (88) 
-0.290545

>  <r_i_glide_ligand_efficiency_sa>  (88) 
-0.683169

>  <r_i_glide_ligand_efficiency_ln>  (88) 
-1.05951

>  <r_i_glide_gscore>  (88) 
-3.77709

>  <r_i_glide_lipo>  (88) 
-0.437

>  <r_i_glide_hbond>  (88) 
0

>  <r_i_glide_metal>  (88) 
-0

>  <r_i_glide_rewards>  (88) 
-2.2211

>  <r_i_glide_evdw>  (88) 
-19.8336

>  <r_i_glide_ecoul>  (88) 
-0.848724

>  <r_i_glide_erotb>  (88) 
0

>  <r_i_glide_esite>  (88) 
0

>  <r_i_glide_emodel>  (88) 
-25.6259

>  <r_i_glide_energy>  (88) 
-20.6824

>  <r_i_glide_einternal>  (88) 
0.0162482

>  <r_i_glide_intrahb_reward>  (88) 
-0

>  <i_i_glide_confnum>  (88) 
2

>  <i_i_glide_posenum>  (88) 
1

>  <r_i_glide_eff_state_penalty>  (88) 
0

>  <ligand_id>  (88) 
27

>  <original_smiles>  (88) 
OC12C3CC1C1C4C5CC(C53)C2C41

>  <smiles>  (88) 
[H]OC12C3([H])C([H])([H])C1([H])C1([H])C4([H])C5([H])C([H])([H])C([H])(C53[H])C2([H])C41[H]

$$$$
28:0:0
     RDKit          3D

 38 41  0  0  1  0  0  0  0  0999 V2000
    8.8161   -3.1757    0.1667 C   0  0  0  0  0  0  0  0  0  0  0  0
    7.5177   -2.6585    0.7983 C   0  0  0  0  0  0  0  0  0  0  0  0
    6.3945   -2.5565   -0.1881 C   0  0  0  0  0  0  0  0  0  0  0  0
    6.2197   -1.4344   -0.8455 N   0  0  0  0  0  0  0  0  0  0  0  0
    5.1359   -1.6403   -1.6453 N   0  0  0  0  0  0  0  0  0  0  0  0
    4.5955   -0.7229   -2.4963 C   0  0  0  0  0  0  0  0  0  0  0  0
    3.5068   -1.0639   -3.2636 C   0  0  0  0  0  0  0  0  0  0  0  0
    2.9542   -2.3575   -3.1511 C   0  0  0  0  0  0  0  0  0  0  0  0
    1.8460   -2.6781   -3.8811 O   0  0  0  0  0  0  0  0  0  0  0  0
    3.5076   -3.2804   -2.2944 C   0  0  0  0  0  0  0  0  0  0  0  0
    4.6335   -2.9466   -1.4929 C   0  0  0  0  0  0  0  0  0  0  0  0
    5.4454   -3.5468   -0.5540 C   0  0  0  0  0  0  0  0  0  0  0  0
    5.3703   -4.9002    0.0388 C   0  0  0  0  0  0  0  0  0  0  0  0
    4.2984   -5.6015    0.4763 C   0  0  0  0  0  0  0  0  0  0  0  0
    2.8996   -5.1563    0.5138 C   0  0  0  0  0  0  0  0  0  0  0  0
    2.4016   -4.0770    0.2016 O   0  0  0  0  0  0  0  0  0  0  0  0
    2.1847   -6.1659    1.0249 N   0  0  0  0  0  0  0  0  0  0  0  0
    2.9859   -7.2380    1.3949 C   0  0  0  0  0  0  0  0  0  0  0  0
    2.5957   -8.4394    1.9966 C   0  0  0  0  0  0  0  0  0  0  0  0
    3.6093   -9.3743    2.2759 C   0  0  0  0  0  0  0  0  0  0  0  0
    4.9581   -9.0854    1.9624 C   0  0  0  0  0  0  0  0  0  0  0  0
    5.3260   -7.8614    1.3571 C   0  0  0  0  0  0  0  0  0  0  0  0
    4.2986   -6.9420    1.0751 C   0  0  0  0  0  0  0  0  0  0  0  0
    9.6178   -3.2235    0.9046 H   0  0  0  0  0  0  0  0  0  0  0  0
    9.1511   -2.5253   -0.6430 H   0  0  0  0  0  0  0  0  0  0  0  0
    8.6748   -4.1755   -0.2424 H   0  0  0  0  0  0  0  0  0  0  0  0
    7.2361   -3.2929    1.6387 H   0  0  0  0  0  0  0  0  0  0  0  0
    7.7084   -1.6709    1.2158 H   0  0  0  0  0  0  0  0  0  0  0  0
    5.0605    0.2556   -2.5411 H   0  0  0  0  0  0  0  0  0  0  0  0
    3.0646   -0.3264   -3.9325 H   0  0  0  0  0  0  0  0  0  0  0  0
    1.4705   -3.5248   -3.6528 H   0  0  0  0  0  0  0  0  0  0  0  0
    3.0817   -4.2552   -2.1965 H   0  0  0  0  0  0  0  0  0  0  0  0
    6.3426   -5.3757    0.1126 H   0  0  0  0  0  0  0  0  0  0  0  0
    1.1894   -6.1606    1.1539 H   0  0  0  0  0  0  0  0  0  0  0  0
    1.5550   -8.6361    2.2236 H   0  0  0  0  0  0  0  0  0  0  0  0
    3.3437  -10.3169    2.7270 H   0  0  0  0  0  0  0  0  0  0  0  0
    5.7134   -9.8222    2.1869 H   0  0  0  0  0  0  0  0  0  0  0  0
    6.3606   -7.6439    1.1282 H   0  0  0  0  0  0  0  0  0  0  0  0
  1  2  1  0
  1 24  1  0
  1 25  1  0
  1 26  1  0
  2  3  1  0
  2 27  1  0
  2 28  1  0
  3 12  1  0
  3  4  2  0
  4  5  1  0
  5 11  1  0
  5  6  1  0
  6  7  2  0
  6 29  1  0
  7  8  1  0
  7 30  1  0
  8  9  1  0
  8 10  2  0
  9 31  1  0
 10 11  1  0
 10 32  1  0
 11 12  2  0
 12 13  1  0
 13 14  2  3
 13 33  1  0
 14 23  1  0
 14 15  1  0
 15 16  2  0
 15 17  1  0
 17 18  1  0
 17 34  1  0
 18 23  2  0
 18 19  1  0
 19 20  2  0
 19 35  1  0
 20 21  1  0
 20 36  1  0
 21 22  2  0
 21 37  1  0
 22 23  1  0
 22 38  1  0
M  END
>  <i_m_ct_stereo_status>  (89) 
1

>  <s_m_source_file>  (89) 
/var/tmp/pbs.5076255.sched01/tmp7e7yg0hy/0s0dyhj_r.sdf

>  <i_m_source_file_index>  (89) 
40

>  <i_lp_mmshare_version>  (89) 
48012

>  <i_f3d_flags>  (89) 
0

>  <s_epik_input>  (89) 
W2NIXTFbY0hdYyhbT0hdKVtjSF1jKG4xMiljKGMobjIpW0NIMl1bQ0gzXSkvW0NIXT1DKFxDKD1PKVtOSF0zKWMoYzM0KVtjSF1bY0hdW2NIXVtjSF00

>  <s_epik_cmdline>  (89) 
J2VwaWtfcHl0aG9uJywgJy1waHQnLCAnMi4wJywgJy1waCcsICc3LjAnLCAnLXRuJywgJzgnLCAnLW1hJywgJzIwMCcsICctaW1hZScsICc8aW5maWxlLm1hZT4nLCAnLW9tYWUnLCAnPG91dGZpbGUubWFlPic=

>  <r_epik_Ionization_Penalty>  (89) 
0.0421294

>  <r_epik_Ionization_Penalty_Charging>  (89) 
0

>  <r_epik_Ionization_Penalty_Neutral>  (89) 
0.0421294

>  <r_epik_State_Penalty>  (89) 
0.0355558

>  <r_epik_Charging_Adjusted_Penalty>  (89) 
0.0355558

>  <i_epik_Tot_Q>  (89) 
0

>  <i_epik_Tot_abs_Q>  (89) 
0

>  <s_lp_Force_Field>  (89) 
OPLS3e

>  <r_lp_Energy>  (89) 
22.1097

>  <b_lp_Chiralities_Consistent>  (89) 
1

>  <s_lp_Variant>  (89) 
28:0-1

>  <s_i_glide_gridfile>  (89) 
pfpi4k_grid

>  <i_i_glide_lignum>  (89) 
40

>  <i_i_glide_rotatable_bonds>  (89) 
3

>  <r_i_docking_score>  (89) 
-4.39797

>  <r_i_glide_ligand_efficiency>  (89) 
-0.191216

>  <r_i_glide_ligand_efficiency_sa>  (89) 
-0.543794

>  <r_i_glide_ligand_efficiency_ln>  (89) 
-1.06347

>  <r_i_glide_gscore>  (89) 
-4.39797

>  <r_i_glide_lipo>  (89) 
-0.805593

>  <r_i_glide_hbond>  (89) 
-0.416037

>  <r_i_glide_metal>  (89) 
-0

>  <r_i_glide_rewards>  (89) 
-1.32729

>  <r_i_glide_evdw>  (89) 
-24.8404

>  <r_i_glide_ecoul>  (89) 
-4.69681

>  <r_i_glide_erotb>  (89) 
0.197964

>  <r_i_glide_esite>  (89) 
-0.100477

>  <r_i_glide_emodel>  (89) 
-37.7234

>  <r_i_glide_energy>  (89) 
-29.5372

>  <r_i_glide_einternal>  (89) 
1.51292

>  <r_i_glide_intrahb_reward>  (89) 
-0

>  <i_i_glide_confnum>  (89) 
3

>  <i_i_glide_posenum>  (89) 
40

>  <r_i_glide_eff_state_penalty>  (89) 
0

>  <ligand_id>  (89) 
28

>  <original_smiles>  (89) 
CCc1nn2ccc(O)cc2c1C=C1C(=O)Nc2ccccc21

>  <smiles>  (89) 
[H]Oc1c([H])c([H])n2nc(C([H])([H])C([H])([H])[H])c(C([H])=C3C(=O)N([H])c4c([H])c([H])c([H])c([H])c43)c2c1[H]

$$$$
28:0:1
     RDKit          3D

 38 41  0  0  1  0  0  0  0  0999 V2000
    8.6067   -2.9042    0.0484 C   0  0  0  0  0  0  0  0  0  0  0  0
    7.2883   -2.6006    0.7239 C   0  0  0  0  0  0  0  0  0  0  0  0
    6.1150   -2.5305   -0.2229 C   0  0  0  0  0  0  0  0  0  0  0  0
    5.9211   -1.4029   -0.8808 N   0  0  0  0  0  0  0  0  0  0  0  0
    4.8295   -1.6258   -1.6645 N   0  0  0  0  0  0  0  0  0  0  0  0
    4.2873   -0.7123   -2.5232 C   0  0  0  0  0  0  0  0  0  0  0  0
    3.2052   -1.0689   -3.2790 C   0  0  0  0  0  0  0  0  0  0  0  0
    2.6540   -2.3572   -3.1588 C   0  0  0  0  0  0  0  0  0  0  0  0
    1.6085   -2.7050   -3.9367 O   0  0  0  0  0  0  0  0  0  0  0  0
    3.1886   -3.2626   -2.2658 C   0  0  0  0  0  0  0  0  0  0  0  0
    4.3298   -2.9186   -1.4912 C   0  0  0  0  0  0  0  0  0  0  0  0
    5.1406   -3.5220   -0.5582 C   0  0  0  0  0  0  0  0  0  0  0  0
    5.0166   -4.9119   -0.0426 C   0  0  0  0  0  0  0  0  0  0  0  0
    5.1393   -5.3697    1.2401 C   0  0  0  0  0  0  0  0  0  0  0  0
    5.2487   -4.5651    2.4729 C   0  0  0  0  0  0  0  0  0  0  0  0
    5.1048   -3.3593    2.6455 O   0  0  0  0  0  0  0  0  0  0  0  0
    5.4717   -5.4196    3.4870 N   0  0  0  0  0  0  0  0  0  0  0  0
    5.3799   -6.7426    3.0657 C   0  0  0  0  0  0  0  0  0  0  0  0
    5.4097   -7.9076    3.8508 C   0  0  0  0  0  0  0  0  0  0  0  0
    5.2357   -9.1393    3.1823 C   0  0  0  0  0  0  0  0  0  0  0  0
    5.0459   -9.1773    1.7751 C   0  0  0  0  0  0  0  0  0  0  0  0
    5.0176   -7.9882    1.0069 C   0  0  0  0  0  0  0  0  0  0  0  0
    5.1688   -6.7644    1.6905 C   0  0  0  0  0  0  0  0  0  0  0  0
    9.3772   -2.9890    0.8231 H   0  0  0  0  0  0  0  0  0  0  0  0
    8.8928   -2.1286   -0.6741 H   0  0  0  0  0  0  0  0  0  0  0  0
    8.5368   -3.8781   -0.4514 H   0  0  0  0  0  0  0  0  0  0  0  0
    7.2438   -3.4210    1.4234 H   0  0  0  0  0  0  0  0  0  0  0  0
    7.3311   -1.6757    1.2990 H   0  0  0  0  0  0  0  0  0  0  0  0
    4.7535    0.2851   -2.5498 H   0  0  0  0  0  0  0  0  0  0  0  0
    2.7646   -0.3321   -3.9429 H   0  0  0  0  0  0  0  0  0  0  0  0
    1.1527   -3.5295   -3.7003 H   0  0  0  0  0  0  0  0  0  0  0  0
    2.7338   -4.2505   -2.1612 H   0  0  0  0  0  0  0  0  0  0  0  0
    4.9139   -5.6576   -0.8145 H   0  0  0  0  0  0  0  0  0  0  0  0
    5.6091   -5.1563    4.4483 H   0  0  0  0  0  0  0  0  0  0  0  0
    5.5385   -7.8481    4.9226 H   0  0  0  0  0  0  0  0  0  0  0  0
    5.2490  -10.0555    3.7559 H   0  0  0  0  0  0  0  0  0  0  0  0
    4.9206  -10.1355    1.2901 H   0  0  0  0  0  0  0  0  0  0  0  0
    4.8553   -8.0226   -0.0605 H   0  0  0  0  0  0  0  0  0  0  0  0
  1  2  1  0
  1 24  1  0
  1 25  1  0
  1 26  1  0
  2  3  1  0
  2 27  1  0
  2 28  1  0
  3 12  1  0
  3  4  2  0
  4  5  1  0
  5 11  1  0
  5  6  1  0
  6  7  2  0
  6 29  1  0
  7  8  1  0
  7 30  1  0
  8  9  1  0
  8 10  2  0
  9 31  1  0
 10 11  1  0
 10 32  1  0
 11 12  2  0
 12 13  1  0
 13 14  2  3
 13 33  1  0
 14 23  1  0
 14 15  1  0
 15 16  2  0
 15 17  1  0
 17 18  1  0
 17 34  1  0
 18 23  2  0
 18 19  1  0
 19 20  2  0
 19 35  1  0
 20 21  1  0
 20 36  1  0
 21 22  2  0
 21 37  1  0
 22 23  1  0
 22 38  1  0
M  END
>  <i_m_ct_stereo_status>  (90) 
1

>  <s_m_source_file>  (90) 
/var/tmp/pbs.5076255.sched01/tmp7e7yg0hy/0s0dyhj_r.sdf

>  <i_m_source_file_index>  (90) 
40

>  <i_lp_mmshare_version>  (90) 
48012

>  <i_f3d_flags>  (90) 
0

>  <s_epik_input>  (90) 
W2NIXTFbY0hdYyhbT0hdKVtjSF1jKG4xMiljKGMobjIpW0NIMl1bQ0gzXSkvW0NIXT1DKFxDKD1PKVtOSF0zKWMoYzM0KVtjSF1bY0hdW2NIXVtjSF00

>  <s_epik_cmdline>  (90) 
J2VwaWtfcHl0aG9uJywgJy1waHQnLCAnMi4wJywgJy1waCcsICc3LjAnLCAnLXRuJywgJzgnLCAnLW1hJywgJzIwMCcsICctaW1hZScsICc8aW5maWxlLm1hZT4nLCAnLW9tYWUnLCAnPG91dGZpbGUubWFlPic=

>  <r_epik_Ionization_Penalty>  (90) 
0.0421294

>  <r_epik_Ionization_Penalty_Charging>  (90) 
0

>  <r_epik_Ionization_Penalty_Neutral>  (90) 
0.0421294

>  <r_epik_State_Penalty>  (90) 
0.0355558

>  <r_epik_Charging_Adjusted_Penalty>  (90) 
0.0355558

>  <i_epik_Tot_Q>  (90) 
0

>  <i_epik_Tot_abs_Q>  (90) 
0

>  <s_lp_Force_Field>  (90) 
OPLS3e

>  <r_lp_Energy>  (90) 
22.1097

>  <b_lp_Chiralities_Consistent>  (90) 
1

>  <s_lp_Variant>  (90) 
28:0-1

>  <s_i_glide_gridfile>  (90) 
pfpi4k_grid

>  <i_i_glide_lignum>  (90) 
40

>  <i_i_glide_rotatable_bonds>  (90) 
3

>  <r_i_docking_score>  (90) 
-4.30072

>  <r_i_glide_ligand_efficiency>  (90) 
-0.186988

>  <r_i_glide_ligand_efficiency_sa>  (90) 
-0.531769

>  <r_i_glide_ligand_efficiency_ln>  (90) 
-1.03995

>  <r_i_glide_gscore>  (90) 
-4.30072

>  <r_i_glide_lipo>  (90) 
-0.564975

>  <r_i_glide_hbond>  (90) 
-0.391486

>  <r_i_glide_metal>  (90) 
-0

>  <r_i_glide_rewards>  (90) 
-1.35551

>  <r_i_glide_evdw>  (90) 
-20.7943

>  <r_i_glide_ecoul>  (90) 
-7.37855

>  <r_i_glide_erotb>  (90) 
0.197964

>  <r_i_glide_esite>  (90) 
-0.0402208

>  <r_i_glide_emodel>  (90) 
-35.3283

>  <r_i_glide_energy>  (90) 
-28.1728

>  <r_i_glide_einternal>  (90) 
1.38185

>  <r_i_glide_intrahb_reward>  (90) 
-0

>  <i_i_glide_confnum>  (90) 
3

>  <i_i_glide_posenum>  (90) 
30

>  <r_i_glide_eff_state_penalty>  (90) 
0

>  <ligand_id>  (90) 
28

>  <original_smiles>  (90) 
CCc1nn2ccc(O)cc2c1C=C1C(=O)Nc2ccccc21

>  <smiles>  (90) 
[H]Oc1c([H])c([H])n2nc(C([H])([H])C([H])([H])[H])c(C([H])=C3C(=O)N([H])c4c([H])c([H])c([H])c([H])c43)c2c1[H]

$$$$
28:0:2
     RDKit          3D

 38 41  0  0  1  0  0  0  0  0999 V2000
    6.7773   -7.4256    1.5004 C   0  0  0  0  0  0  0  0  0  0  0  0
    5.8659   -8.6627    1.4741 C   0  0  0  0  0  0  0  0  0  0  0  0
    4.4051   -8.4118    1.8090 C   0  0  0  0  0  0  0  0  0  0  0  0
    3.6241   -9.4604    1.9823 N   0  0  0  0  0  0  0  0  0  0  0  0
    2.3823   -8.9597    2.2490 N   0  0  0  0  0  0  0  0  0  0  0  0
    1.2696   -9.7149    2.4917 C   0  0  0  0  0  0  0  0  0  0  0  0
    0.0778   -9.0745    2.7416 C   0  0  0  0  0  0  0  0  0  0  0  0
    0.0203   -7.6593    2.7317 C   0  0  0  0  0  0  0  0  0  0  0  0
   -1.1753   -7.0424    2.9519 O   0  0  0  0  0  0  0  0  0  0  0  0
    1.1518   -6.9043    2.5028 C   0  0  0  0  0  0  0  0  0  0  0  0
    2.3871   -7.5501    2.2401 C   0  0  0  0  0  0  0  0  0  0  0  0
    3.6925   -7.1841    1.9685 C   0  0  0  0  0  0  0  0  0  0  0  0
    4.2574   -5.8256    1.8252 C   0  0  0  0  0  0  0  0  0  0  0  0
    3.8243   -4.7644    1.1088 C   0  0  0  0  0  0  0  0  0  0  0  0
    2.6222   -4.6824    0.2762 C   0  0  0  0  0  0  0  0  0  0  0  0
    1.7487   -5.5217    0.0628 O   0  0  0  0  0  0  0  0  0  0  0  0
    2.6022   -3.4416   -0.2339 N   0  0  0  0  0  0  0  0  0  0  0  0
    3.7088   -2.6972    0.1562 C   0  0  0  0  0  0  0  0  0  0  0  0
    4.0472   -1.3859   -0.1976 C   0  0  0  0  0  0  0  0  0  0  0  0
    5.2563   -0.8643    0.2972 C   0  0  0  0  0  0  0  0  0  0  0  0
    6.0914   -1.6559    1.1109 C   0  0  0  0  0  0  0  0  0  0  0  0
    5.7284   -2.9747    1.4611 C   0  0  0  0  0  0  0  0  0  0  0  0
    4.5023   -3.4766    0.9757 C   0  0  0  0  0  0  0  0  0  0  0  0
    7.8116   -7.6684    1.2488 H   0  0  0  0  0  0  0  0  0  0  0  0
    6.7712   -6.9754    2.4949 H   0  0  0  0  0  0  0  0  0  0  0  0
    6.4354   -6.6768    0.7837 H   0  0  0  0  0  0  0  0  0  0  0  0
    5.9371   -9.1268    0.4895 H   0  0  0  0  0  0  0  0  0  0  0  0
    6.2792   -9.3951    2.1714 H   0  0  0  0  0  0  0  0  0  0  0  0
    1.3796  -10.8024    2.4784 H   0  0  0  0  0  0  0  0  0  0  0  0
   -0.8156   -9.6661    2.9250 H   0  0  0  0  0  0  0  0  0  0  0  0
   -1.8334   -7.6395    3.2862 H   0  0  0  0  0  0  0  0  0  0  0  0
    1.1169   -5.8264    2.5258 H   0  0  0  0  0  0  0  0  0  0  0  0
    5.1471   -5.6768    2.4172 H   0  0  0  0  0  0  0  0  0  0  0  0
    1.8683   -3.0518   -0.8055 H   0  0  0  0  0  0  0  0  0  0  0  0
    3.3834   -0.8138   -0.8223 H   0  0  0  0  0  0  0  0  0  0  0  0
    5.5302    0.1410    0.0556 H   0  0  0  0  0  0  0  0  0  0  0  0
    7.0127   -1.2248    1.4761 H   0  0  0  0  0  0  0  0  0  0  0  0
    6.3902   -3.5751    2.0748 H   0  0  0  0  0  0  0  0  0  0  0  0
  1  2  1  0
  1 24  1  0
  1 25  1  0
  1 26  1  0
  2  3  1  0
  2 27  1  0
  2 28  1  0
  3 12  1  0
  3  4  2  0
  4  5  1  0
  5 11  1  0
  5  6  1  0
  6  7  2  0
  6 29  1  0
  7  8  1  0
  7 30  1  0
  8  9  1  0
  8 10  2  0
  9 31  1  0
 10 11  1  0
 10 32  1  0
 11 12  2  0
 12 13  1  0
 13 14  2  3
 13 33  1  0
 14 23  1  0
 14 15  1  0
 15 16  2  0
 15 17  1  0
 17 18  1  0
 17 34  1  0
 18 23  2  0
 18 19  1  0
 19 20  2  0
 19 35  1  0
 20 21  1  0
 20 36  1  0
 21 22  2  0
 21 37  1  0
 22 23  1  0
 22 38  1  0
M  END
>  <i_m_ct_stereo_status>  (91) 
1

>  <s_m_source_file>  (91) 
/var/tmp/pbs.5076255.sched01/tmp7e7yg0hy/0s0dyhj_r.sdf

>  <i_m_source_file_index>  (91) 
40

>  <i_lp_mmshare_version>  (91) 
48012

>  <i_f3d_flags>  (91) 
0

>  <s_epik_input>  (91) 
W2NIXTFbY0hdYyhbT0hdKVtjSF1jKG4xMiljKGMobjIpW0NIMl1bQ0gzXSkvW0NIXT1DKFxDKD1PKVtOSF0zKWMoYzM0KVtjSF1bY0hdW2NIXVtjSF00

>  <s_epik_cmdline>  (91) 
J2VwaWtfcHl0aG9uJywgJy1waHQnLCAnMi4wJywgJy1waCcsICc3LjAnLCAnLXRuJywgJzgnLCAnLW1hJywgJzIwMCcsICctaW1hZScsICc8aW5maWxlLm1hZT4nLCAnLW9tYWUnLCAnPG91dGZpbGUubWFlPic=

>  <r_epik_Ionization_Penalty>  (91) 
0.0421294

>  <r_epik_Ionization_Penalty_Charging>  (91) 
0

>  <r_epik_Ionization_Penalty_Neutral>  (91) 
0.0421294

>  <r_epik_State_Penalty>  (91) 
0.0355558

>  <r_epik_Charging_Adjusted_Penalty>  (91) 
0.0355558

>  <i_epik_Tot_Q>  (91) 
0

>  <i_epik_Tot_abs_Q>  (91) 
0

>  <s_lp_Force_Field>  (91) 
OPLS3e

>  <r_lp_Energy>  (91) 
22.1097

>  <b_lp_Chiralities_Consistent>  (91) 
1

>  <s_lp_Variant>  (91) 
28:0-1

>  <s_i_glide_gridfile>  (91) 
pfpi4k_grid

>  <i_i_glide_lignum>  (91) 
40

>  <i_i_glide_rotatable_bonds>  (91) 
3

>  <r_i_docking_score>  (91) 
-4.24369

>  <r_i_glide_ligand_efficiency>  (91) 
-0.184508

>  <r_i_glide_ligand_efficiency_sa>  (91) 
-0.524717

>  <r_i_glide_ligand_efficiency_ln>  (91) 
-1.02616

>  <r_i_glide_gscore>  (91) 
-4.24369

>  <r_i_glide_lipo>  (91) 
-0.723677

>  <r_i_glide_hbond>  (91) 
-0.275198

>  <r_i_glide_metal>  (91) 
-0

>  <r_i_glide_rewards>  (91) 
-1.32809

>  <r_i_glide_evdw>  (91) 
-26.395

>  <r_i_glide_ecoul>  (91) 
-4.82015

>  <r_i_glide_erotb>  (91) 
0.197964

>  <r_i_glide_esite>  (91) 
-0.0719241

>  <r_i_glide_emodel>  (91) 
-36.6042

>  <r_i_glide_energy>  (91) 
-31.2151

>  <r_i_glide_einternal>  (91) 
6.41957

>  <r_i_glide_intrahb_reward>  (91) 
-0

>  <i_i_glide_confnum>  (91) 
3

>  <i_i_glide_posenum>  (91) 
10

>  <r_i_glide_eff_state_penalty>  (91) 
0

>  <ligand_id>  (91) 
28

>  <original_smiles>  (91) 
CCc1nn2ccc(O)cc2c1C=C1C(=O)Nc2ccccc21

>  <smiles>  (91) 
[H]Oc1c([H])c([H])n2nc(C([H])([H])C([H])([H])[H])c(C([H])=C3C(=O)N([H])c4c([H])c([H])c([H])c([H])c43)c2c1[H]

$$$$
28:1:0
     RDKit          3D

 38 41  0  0  1  0  0  0  0  0999 V2000
   -3.1987    2.6606    7.1853 C   0  0  0  0  0  0  0  0  0  0  0  0
   -1.7002    2.5038    7.4694 C   0  0  0  0  0  0  0  0  0  0  0  0
   -1.0129    1.5255    6.5555 C   0  0  0  0  0  0  0  0  0  0  0  0
   -0.7294    0.3089    6.9765 N   0  0  0  0  0  0  0  0  0  0  0  0
   -0.0992   -0.2830    5.9151 N   0  0  0  0  0  0  0  0  0  0  0  0
    0.4122   -1.5434    5.9234 C   0  0  0  0  0  0  0  0  0  0  0  0
    0.9799   -2.0317    4.7722 C   0  0  0  0  0  0  0  0  0  0  0  0
    1.0225   -1.2424    3.5961 C   0  0  0  0  0  0  0  0  0  0  0  0
    1.6115   -1.7453    2.4769 O   0  0  0  0  0  0  0  0  0  0  0  0
    0.5072    0.0364    3.5834 C   0  0  0  0  0  0  0  0  0  0  0  0
   -0.0603    0.5582    4.7801 C   0  0  0  0  0  0  0  0  0  0  0  0
   -0.6343    1.7332    5.2001 C   0  0  0  0  0  0  0  0  0  0  0  0
   -0.9459    2.9126    4.3864 C   0  0  0  0  0  0  0  0  0  0  0  0
   -0.1276    3.9544    4.1134 C   0  0  0  0  0  0  0  0  0  0  0  0
   -0.5803    5.1336    3.3733 C   0  0  0  0  0  0  0  0  0  0  0  0
   -1.6969    5.3404    2.8797 O   0  0  0  0  0  0  0  0  0  0  0  0
    0.4408    6.0018    3.3462 N   0  0  0  0  0  0  0  0  0  0  0  0
    1.5664    5.4858    3.9910 C   0  0  0  0  0  0  0  0  0  0  0  0
    2.8326    6.0733    4.1375 C   0  0  0  0  0  0  0  0  0  0  0  0
    3.8129    5.3250    4.8245 C   0  0  0  0  0  0  0  0  0  0  0  0
    3.5179    4.0333    5.3302 C   0  0  0  0  0  0  0  0  0  0  0  0
    2.2337    3.4604    5.1691 C   0  0  0  0  0  0  0  0  0  0  0  0
    1.2661    4.2207    4.4822 C   0  0  0  0  0  0  0  0  0  0  0  0
   -3.6620    3.3451    7.8985 H   0  0  0  0  0  0  0  0  0  0  0  0
   -3.7132    1.7084    7.2727 H   0  0  0  0  0  0  0  0  0  0  0  0
   -3.3764    3.0392    6.1795 H   0  0  0  0  0  0  0  0  0  0  0  0
   -1.2138    3.4784    7.4110 H   0  0  0  0  0  0  0  0  0  0  0  0
   -1.5891    2.1772    8.5017 H   0  0  0  0  0  0  0  0  0  0  0  0
    0.3574   -2.0944    6.8578 H   0  0  0  0  0  0  0  0  0  0  0  0
    1.3974   -3.0327    4.7964 H   0  0  0  0  0  0  0  0  0  0  0  0
    1.9975   -2.6051    2.6036 H   0  0  0  0  0  0  0  0  0  0  0  0
    0.5452    0.6397    2.6844 H   0  0  0  0  0  0  0  0  0  0  0  0
   -1.9575    2.9438    4.0034 H   0  0  0  0  0  0  0  0  0  0  0  0
    0.4213    6.9019    2.8725 H   0  0  0  0  0  0  0  0  0  0  0  0
    3.0444    7.0548    3.7283 H   0  0  0  0  0  0  0  0  0  0  0  0
    4.8038    5.7430    4.9538 H   0  0  0  0  0  0  0  0  0  0  0  0
    4.2960    3.4754    5.8364 H   0  0  0  0  0  0  0  0  0  0  0  0
    2.0100    2.4668    5.5476 H   0  0  0  0  0  0  0  0  0  0  0  0
  1  2  1  0
  1 24  1  0
  1 25  1  0
  1 26  1  0
  2  3  1  0
  2 27  1  0
  2 28  1  0
  3 12  1  0
  3  4  2  0
  4  5  1  0
  5 11  1  0
  5  6  1  0
  6  7  2  0
  6 29  1  0
  7  8  1  0
  7 30  1  0
  8  9  1  0
  8 10  2  0
  9 31  1  0
 10 11  1  0
 10 32  1  0
 11 12  2  0
 12 13  1  0
 13 14  2  3
 13 33  1  0
 14 23  1  0
 14 15  1  0
 15 16  2  0
 15 17  1  0
 17 18  1  0
 17 34  1  0
 18 23  2  0
 18 19  1  0
 19 20  2  0
 19 35  1  0
 20 21  1  0
 20 36  1  0
 21 22  2  0
 21 37  1  0
 22 23  1  0
 22 38  1  0
M  END
>  <i_m_ct_stereo_status>  (92) 
1

>  <s_m_source_file>  (92) 
/var/tmp/pbs.5076255.sched01/tmp7e7yg0hy/0s0dyhj_r.sdf

>  <i_m_source_file_index>  (92) 
41

>  <i_lp_mmshare_version>  (92) 
48012

>  <i_f3d_flags>  (92) 
0

>  <s_epik_input>  (92) 
W2NIXTFbY0hdYyhbT0hdKVtjSF1jKG4xMiljKGMobjIpW0NIMl1bQ0gzXSkvW0NIXT1DKFxDKD1PKVtOSF0zKWMoYzM0KVtjSF1bY0hdW2NIXVtjSF00

>  <s_epik_cmdline>  (92) 
J2VwaWtfcHl0aG9uJywgJy1waHQnLCAnMi4wJywgJy1waCcsICc3LjAnLCAnLXRuJywgJzgnLCAnLW1hJywgJzIwMCcsICctaW1hZScsICc8aW5maWxlLm1hZT4nLCAnLW9tYWUnLCAnPG91dGZpbGUubWFlPic=

>  <r_epik_Ionization_Penalty>  (92) 
0.0421294

>  <r_epik_Ionization_Penalty_Charging>  (92) 
0

>  <r_epik_Ionization_Penalty_Neutral>  (92) 
0.0421294

>  <r_epik_State_Penalty>  (92) 
0.0355558

>  <r_epik_Charging_Adjusted_Penalty>  (92) 
0.0355558

>  <i_epik_Tot_Q>  (92) 
0

>  <i_epik_Tot_abs_Q>  (92) 
0

>  <s_lp_Force_Field>  (92) 
OPLS3e

>  <r_lp_Energy>  (92) 
20.7166

>  <b_lp_Chiralities_Consistent>  (92) 
1

>  <s_lp_Variant>  (92) 
28:0-2

>  <s_i_glide_gridfile>  (92) 
pfpi4k_grid

>  <i_i_glide_lignum>  (92) 
41

>  <i_i_glide_rotatable_bonds>  (92) 
3

>  <r_i_docking_score>  (92) 
-3.71007

>  <r_i_glide_ligand_efficiency>  (92) 
-0.161307

>  <r_i_glide_ligand_efficiency_sa>  (92) 
-0.458736

>  <r_i_glide_ligand_efficiency_ln>  (92) 
-0.897128

>  <r_i_glide_gscore>  (92) 
-3.71007

>  <r_i_glide_lipo>  (92) 
-0.171658

>  <r_i_glide_hbond>  (92) 
-0.377837

>  <r_i_glide_metal>  (92) 
-0

>  <r_i_glide_rewards>  (92) 
-1.32729

>  <r_i_glide_evdw>  (92) 
-13.9073

>  <r_i_glide_ecoul>  (92) 
-7.40657

>  <r_i_glide_erotb>  (92) 
0.197964

>  <r_i_glide_esite>  (92) 
-0.224893

>  <r_i_glide_emodel>  (92) 
-23.7824

>  <r_i_glide_energy>  (92) 
-21.3139

>  <r_i_glide_einternal>  (92) 
6.20723

>  <r_i_glide_intrahb_reward>  (92) 
-0

>  <i_i_glide_confnum>  (92) 
3

>  <i_i_glide_posenum>  (92) 
6

>  <r_i_glide_eff_state_penalty>  (92) 
0

>  <ligand_id>  (92) 
28

>  <original_smiles>  (92) 
CCc1nn2ccc(O)cc2c1C=C1C(=O)Nc2ccccc21

>  <smiles>  (92) 
[H]Oc1c([H])c([H])n2nc(C([H])([H])C([H])([H])[H])c(C([H])=C3C(=O)N([H])c4c([H])c([H])c([H])c([H])c43)c2c1[H]

$$$$
28:1:1
     RDKit          3D

 38 41  0  0  1  0  0  0  0  0999 V2000
    6.6258  -10.8505    0.9803 C   0  0  0  0  0  0  0  0  0  0  0  0
    5.9758  -10.1795    2.1920 C   0  0  0  0  0  0  0  0  0  0  0  0
    5.3454   -8.8626    1.8199 C   0  0  0  0  0  0  0  0  0  0  0  0
    6.1000   -7.8290    1.5007 N   0  0  0  0  0  0  0  0  0  0  0  0
    5.2366   -6.8292    1.1763 N   0  0  0  0  0  0  0  0  0  0  0  0
    5.6049   -5.5710    0.8204 C   0  0  0  0  0  0  0  0  0  0  0  0
    4.6296   -4.6269    0.5777 C   0  0  0  0  0  0  0  0  0  0  0  0
    3.2733   -4.9628    0.7190 C   0  0  0  0  0  0  0  0  0  0  0  0
    2.3058   -4.0227    0.5726 O   0  0  0  0  0  0  0  0  0  0  0  0
    2.8918   -6.2666    1.0200 C   0  0  0  0  0  0  0  0  0  0  0  0
    3.9053   -7.2358    1.3501 C   0  0  0  0  0  0  0  0  0  0  0  0
    3.9589   -8.5579    1.7434 C   0  0  0  0  0  0  0  0  0  0  0  0
    2.8588   -9.4503    2.1616 C   0  0  0  0  0  0  0  0  0  0  0  0
    1.7428   -9.1893    2.8844 C   0  0  0  0  0  0  0  0  0  0  0  0
    0.7669  -10.2600    3.2041 C   0  0  0  0  0  0  0  0  0  0  0  0
    0.8167  -11.4556    2.8816 O   0  0  0  0  0  0  0  0  0  0  0  0
   -0.2007   -9.6946    3.9191 N   0  0  0  0  0  0  0  0  0  0  0  0
    0.0148   -8.3224    4.1061 C   0  0  0  0  0  0  0  0  0  0  0  0
   -0.7889   -7.4062    4.7872 C   0  0  0  0  0  0  0  0  0  0  0  0
   -0.3669   -6.0585    4.8344 C   0  0  0  0  0  0  0  0  0  0  0  0
    0.8574   -5.6844    4.2188 C   0  0  0  0  0  0  0  0  0  0  0  0
    1.6847   -6.6390    3.6215 C   0  0  0  0  0  0  0  0  0  0  0  0
    1.2202   -7.9547    3.5060 C   0  0  0  0  0  0  0  0  0  0  0  0
    7.0984  -11.7951    1.2535 H   0  0  0  0  0  0  0  0  0  0  0  0
    7.3777  -10.1901    0.5562 H   0  0  0  0  0  0  0  0  0  0  0  0
    5.9015  -11.0471    0.1951 H   0  0  0  0  0  0  0  0  0  0  0  0
    5.2514  -10.8673    2.6303 H   0  0  0  0  0  0  0  0  0  0  0  0
    6.7379  -10.0223    2.9536 H   0  0  0  0  0  0  0  0  0  0  0  0
    6.6706   -5.3785    0.7160 H   0  0  0  0  0  0  0  0  0  0  0  0
    4.9088   -3.6186    0.3295 H   0  0  0  0  0  0  0  0  0  0  0  0
    2.6247   -3.1840    0.2979 H   0  0  0  0  0  0  0  0  0  0  0  0
    1.8256   -6.5338    1.1177 H   0  0  0  0  0  0  0  0  0  0  0  0
    3.0229  -10.4587    1.8217 H   0  0  0  0  0  0  0  0  0  0  0  0
   -0.9918  -10.2020    4.3120 H   0  0  0  0  0  0  0  0  0  0  0  0
   -1.7165   -7.7203    5.2304 H   0  0  0  0  0  0  0  0  0  0  0  0
   -0.9627   -5.3012    5.3594 H   0  0  0  0  0  0  0  0  0  0  0  0
    1.1568   -4.6543    4.2080 H   0  0  0  0  0  0  0  0  0  0  0  0
    2.6511   -6.3316    3.2907 H   0  0  0  0  0  0  0  0  0  0  0  0
  1  2  1  0
  1 24  1  0
  1 25  1  0
  1 26  1  0
  2  3  1  0
  2 27  1  0
  2 28  1  0
  3 12  1  0
  3  4  2  0
  4  5  1  0
  5 11  1  0
  5  6  1  0
  6  7  2  0
  6 29  1  0
  7  8  1  0
  7 30  1  0
  8  9  1  0
  8 10  2  0
  9 31  1  0
 10 11  1  0
 10 32  1  0
 11 12  2  0
 12 13  1  0
 13 14  2  3
 13 33  1  0
 14 23  1  0
 14 15  1  0
 15 16  2  0
 15 17  1  0
 17 18  1  0
 17 34  1  0
 18 23  2  0
 18 19  1  0
 19 20  2  0
 19 35  1  0
 20 21  1  0
 20 36  1  0
 21 22  2  0
 21 37  1  0
 22 23  1  0
 22 38  1  0
M  END
>  <i_m_ct_stereo_status>  (93) 
1

>  <s_m_source_file>  (93) 
/var/tmp/pbs.5076255.sched01/tmp7e7yg0hy/0s0dyhj_r.sdf

>  <i_m_source_file_index>  (93) 
41

>  <i_lp_mmshare_version>  (93) 
48012

>  <i_f3d_flags>  (93) 
0

>  <s_epik_input>  (93) 
W2NIXTFbY0hdYyhbT0hdKVtjSF1jKG4xMiljKGMobjIpW0NIMl1bQ0gzXSkvW0NIXT1DKFxDKD1PKVtOSF0zKWMoYzM0KVtjSF1bY0hdW2NIXVtjSF00

>  <s_epik_cmdline>  (93) 
J2VwaWtfcHl0aG9uJywgJy1waHQnLCAnMi4wJywgJy1waCcsICc3LjAnLCAnLXRuJywgJzgnLCAnLW1hJywgJzIwMCcsICctaW1hZScsICc8aW5maWxlLm1hZT4nLCAnLW9tYWUnLCAnPG91dGZpbGUubWFlPic=

>  <r_epik_Ionization_Penalty>  (93) 
0.0421294

>  <r_epik_Ionization_Penalty_Charging>  (93) 
0

>  <r_epik_Ionization_Penalty_Neutral>  (93) 
0.0421294

>  <r_epik_State_Penalty>  (93) 
0.0355558

>  <r_epik_Charging_Adjusted_Penalty>  (93) 
0.0355558

>  <i_epik_Tot_Q>  (93) 
0

>  <i_epik_Tot_abs_Q>  (93) 
0

>  <s_lp_Force_Field>  (93) 
OPLS3e

>  <r_lp_Energy>  (93) 
20.7166

>  <b_lp_Chiralities_Consistent>  (93) 
1

>  <s_lp_Variant>  (93) 
28:0-2

>  <s_i_glide_gridfile>  (93) 
pfpi4k_grid

>  <i_i_glide_lignum>  (93) 
41

>  <i_i_glide_rotatable_bonds>  (93) 
3

>  <r_i_docking_score>  (93) 
-3.17874

>  <r_i_glide_ligand_efficiency>  (93) 
-0.138206

>  <r_i_glide_ligand_efficiency_sa>  (93) 
-0.39304

>  <r_i_glide_ligand_efficiency_ln>  (93) 
-0.768649

>  <r_i_glide_gscore>  (93) 
-3.17874

>  <r_i_glide_lipo>  (93) 
-0.230688

>  <r_i_glide_hbond>  (93) 
-0.16

>  <r_i_glide_metal>  (93) 
-0

>  <r_i_glide_rewards>  (93) 
-1.5347

>  <r_i_glide_evdw>  (93) 
-19.0543

>  <r_i_glide_ecoul>  (93) 
-2.86815

>  <r_i_glide_erotb>  (93) 
0.197964

>  <r_i_glide_esite>  (93) 
-0.0683838

>  <r_i_glide_emodel>  (93) 
-24.6338

>  <r_i_glide_energy>  (93) 
-21.9224

>  <r_i_glide_einternal>  (93) 
1.80525

>  <r_i_glide_intrahb_reward>  (93) 
-0

>  <i_i_glide_confnum>  (93) 
6

>  <i_i_glide_posenum>  (93) 
17

>  <r_i_glide_eff_state_penalty>  (93) 
0

>  <ligand_id>  (93) 
28

>  <original_smiles>  (93) 
CCc1nn2ccc(O)cc2c1C=C1C(=O)Nc2ccccc21

>  <smiles>  (93) 
[H]Oc1c([H])c([H])n2nc(C([H])([H])C([H])([H])[H])c(C([H])=C3C(=O)N([H])c4c([H])c([H])c([H])c([H])c43)c2c1[H]

$$$$
28:1:2
     RDKit          3D

 38 41  0  0  1  0  0  0  0  0999 V2000
    6.6113  -10.8942    0.9367 C   0  0  0  0  0  0  0  0  0  0  0  0
    5.9224  -10.2580    2.1437 C   0  0  0  0  0  0  0  0  0  0  0  0
    5.3330   -8.9167    1.8099 C   0  0  0  0  0  0  0  0  0  0  0  0
    6.1224   -7.9177    1.4767 N   0  0  0  0  0  0  0  0  0  0  0  0
    5.2734   -6.8690    1.2468 N   0  0  0  0  0  0  0  0  0  0  0  0
    5.6692   -5.6307    0.8517 C   0  0  0  0  0  0  0  0  0  0  0  0
    4.7127   -4.6600    0.6717 C   0  0  0  0  0  0  0  0  0  0  0  0
    3.3439   -4.9512    0.8920 C   0  0  0  0  0  0  0  0  0  0  0  0
    2.4234   -3.9623    0.7306 O   0  0  0  0  0  0  0  0  0  0  0  0
    2.9410   -6.2103    1.2813 C   0  0  0  0  0  0  0  0  0  0  0  0
    3.9236   -7.2176    1.4677 C   0  0  0  0  0  0  0  0  0  0  0  0
    3.9619   -8.5349    1.8479 C   0  0  0  0  0  0  0  0  0  0  0  0
    2.8463   -9.4220    2.2155 C   0  0  0  0  0  0  0  0  0  0  0  0
    1.9275   -9.2640    3.1940 C   0  0  0  0  0  0  0  0  0  0  0  0
    0.9035  -10.2788    3.4751 C   0  0  0  0  0  0  0  0  0  0  0  0
    0.6832  -11.3288    2.8773 O   0  0  0  0  0  0  0  0  0  0  0  0
    0.2122   -9.8595    4.5444 N   0  0  0  0  0  0  0  0  0  0  0  0
    0.6873   -8.6319    5.0110 C   0  0  0  0  0  0  0  0  0  0  0  0
    0.2244   -7.8835    6.1023 C   0  0  0  0  0  0  0  0  0  0  0  0
    0.8438   -6.6355    6.3469 C   0  0  0  0  0  0  0  0  0  0  0  0
    1.9154   -6.1906    5.5296 C   0  0  0  0  0  0  0  0  0  0  0  0
    2.3873   -6.9873    4.4611 C   0  0  0  0  0  0  0  0  0  0  0  0
    1.7380   -8.2136    4.2052 C   0  0  0  0  0  0  0  0  0  0  0  0
    7.0518  -11.8605    1.1867 H   0  0  0  0  0  0  0  0  0  0  0  0
    7.3799  -10.2169    0.5727 H   0  0  0  0  0  0  0  0  0  0  0  0
    5.9107  -11.0495    0.1195 H   0  0  0  0  0  0  0  0  0  0  0  0
    5.1671  -10.9420    2.5312 H   0  0  0  0  0  0  0  0  0  0  0  0
    6.6585  -10.1381    2.9376 H   0  0  0  0  0  0  0  0  0  0  0  0
    6.7334   -5.4800    0.6935 H   0  0  0  0  0  0  0  0  0  0  0  0
    5.0336   -3.6691    0.3647 H   0  0  0  0  0  0  0  0  0  0  0  0
    2.7852   -3.1510    0.3972 H   0  0  0  0  0  0  0  0  0  0  0  0
    1.9001   -6.4304    1.4730 H   0  0  0  0  0  0  0  0  0  0  0  0
    2.7794  -10.3086    1.6013 H   0  0  0  0  0  0  0  0  0  0  0  0
   -0.5703  -10.3640    4.9580 H   0  0  0  0  0  0  0  0  0  0  0  0
   -0.5806   -8.2682    6.7102 H   0  0  0  0  0  0  0  0  0  0  0  0
    0.5091   -6.0179    7.1684 H   0  0  0  0  0  0  0  0  0  0  0  0
    2.3842   -5.2361    5.7267 H   0  0  0  0  0  0  0  0  0  0  0  0
    3.2187   -6.6405    3.8677 H   0  0  0  0  0  0  0  0  0  0  0  0
  1  2  1  0
  1 24  1  0
  1 25  1  0
  1 26  1  0
  2  3  1  0
  2 27  1  0
  2 28  1  0
  3 12  1  0
  3  4  2  0
  4  5  1  0
  5 11  1  0
  5  6  1  0
  6  7  2  0
  6 29  1  0
  7  8  1  0
  7 30  1  0
  8  9  1  0
  8 10  2  0
  9 31  1  0
 10 11  1  0
 10 32  1  0
 11 12  2  0
 12 13  1  0
 13 14  2  3
 13 33  1  0
 14 23  1  0
 14 15  1  0
 15 16  2  0
 15 17  1  0
 17 18  1  0
 17 34  1  0
 18 23  2  0
 18 19  1  0
 19 20  2  0
 19 35  1  0
 20 21  1  0
 20 36  1  0
 21 22  2  0
 21 37  1  0
 22 23  1  0
 22 38  1  0
M  END
>  <i_m_ct_stereo_status>  (94) 
1

>  <s_m_source_file>  (94) 
/var/tmp/pbs.5076255.sched01/tmp7e7yg0hy/0s0dyhj_r.sdf

>  <i_m_source_file_index>  (94) 
41

>  <i_lp_mmshare_version>  (94) 
48012

>  <i_f3d_flags>  (94) 
0

>  <s_epik_input>  (94) 
W2NIXTFbY0hdYyhbT0hdKVtjSF1jKG4xMiljKGMobjIpW0NIMl1bQ0gzXSkvW0NIXT1DKFxDKD1PKVtOSF0zKWMoYzM0KVtjSF1bY0hdW2NIXVtjSF00

>  <s_epik_cmdline>  (94) 
J2VwaWtfcHl0aG9uJywgJy1waHQnLCAnMi4wJywgJy1waCcsICc3LjAnLCAnLXRuJywgJzgnLCAnLW1hJywgJzIwMCcsICctaW1hZScsICc8aW5maWxlLm1hZT4nLCAnLW9tYWUnLCAnPG91dGZpbGUubWFlPic=

>  <r_epik_Ionization_Penalty>  (94) 
0.0421294

>  <r_epik_Ionization_Penalty_Charging>  (94) 
0

>  <r_epik_Ionization_Penalty_Neutral>  (94) 
0.0421294

>  <r_epik_State_Penalty>  (94) 
0.0355558

>  <r_epik_Charging_Adjusted_Penalty>  (94) 
0.0355558

>  <i_epik_Tot_Q>  (94) 
0

>  <i_epik_Tot_abs_Q>  (94) 
0

>  <s_lp_Force_Field>  (94) 
OPLS3e

>  <r_lp_Energy>  (94) 
20.7166

>  <b_lp_Chiralities_Consistent>  (94) 
1

>  <s_lp_Variant>  (94) 
28:0-2

>  <s_i_glide_gridfile>  (94) 
pfpi4k_grid

>  <i_i_glide_lignum>  (94) 
41

>  <i_i_glide_rotatable_bonds>  (94) 
3

>  <r_i_docking_score>  (94) 
-3.04794

>  <r_i_glide_ligand_efficiency>  (94) 
-0.132519

>  <r_i_glide_ligand_efficiency_sa>  (94) 
-0.376866

>  <r_i_glide_ligand_efficiency_ln>  (94) 
-0.737019

>  <r_i_glide_gscore>  (94) 
-3.04794

>  <r_i_glide_lipo>  (94) 
-0.225667

>  <r_i_glide_hbond>  (94) 
-0.16

>  <r_i_glide_metal>  (94) 
-0

>  <r_i_glide_rewards>  (94) 
-1.51634

>  <r_i_glide_evdw>  (94) 
-19.3316

>  <r_i_glide_ecoul>  (94) 
-1.99619

>  <r_i_glide_erotb>  (94) 
0.197964

>  <r_i_glide_esite>  (94) 
-0.0778828

>  <r_i_glide_emodel>  (94) 
-23.7587

>  <r_i_glide_energy>  (94) 
-21.3278

>  <r_i_glide_einternal>  (94) 
4.05383

>  <r_i_glide_intrahb_reward>  (94) 
-0

>  <i_i_glide_confnum>  (94) 
3

>  <i_i_glide_posenum>  (94) 
5

>  <r_i_glide_eff_state_penalty>  (94) 
0

>  <ligand_id>  (94) 
28

>  <original_smiles>  (94) 
CCc1nn2ccc(O)cc2c1C=C1C(=O)Nc2ccccc21

>  <smiles>  (94) 
[H]Oc1c([H])c([H])n2nc(C([H])([H])C([H])([H])[H])c(C([H])=C3C(=O)N([H])c4c([H])c([H])c([H])c([H])c43)c2c1[H]

$$$$
28:2:0
     RDKit          3D

 37 40  0  0  1  0  0  0  0  0999 V2000
   -2.2914   -4.0877    9.6891 C   0  0  0  0  0  0  0  0  0  0  0  0
   -0.9720   -4.6410    9.1330 C   0  0  0  0  0  0  0  0  0  0  0  0
   -0.2984   -3.6595    8.2122 C   0  0  0  0  0  0  0  0  0  0  0  0
    0.1637   -2.5291    8.7047 N   0  0  0  0  0  0  0  0  0  0  0  0
    0.7237   -1.8752    7.6329 N   0  0  0  0  0  0  0  0  0  0  0  0
    1.3407   -0.6671    7.7058 C   0  0  0  0  0  0  0  0  0  0  0  0
    1.8678   -0.1278    6.5600 C   0  0  0  0  0  0  0  0  0  0  0  0
    1.7556   -0.8270    5.3397 C   0  0  0  0  0  0  0  0  0  0  0  0
    2.3240   -0.2987    4.2235 O   0  0  0  0  0  0  0  0  0  0  0  0
    1.1073   -2.0363    5.2612 C   0  0  0  0  0  0  0  0  0  0  0  0
    0.5845   -2.6201    6.4434 C   0  0  0  0  0  0  0  0  0  0  0  0
   -0.0784   -3.7730    6.8060 C   0  0  0  0  0  0  0  0  0  0  0  0
   -0.4479   -4.9563    5.9844 C   0  0  0  0  0  0  0  0  0  0  0  0
    0.2418   -5.5938    5.0001 C   0  0  0  0  0  0  0  0  0  0  0  0
    1.6119   -5.3103    4.5487 C   0  0  0  0  0  0  0  0  0  0  0  0
    2.4283   -4.5119    4.9924 O   0  0  0  0  0  0  0  0  0  0  0  0
    1.8694   -6.1682    3.5464 N   0  0  0  0  0  0  0  0  0  0  0  0
    0.8307   -7.0713    3.3460 C   0  0  0  0  0  0  0  0  0  0  0  0
    0.7716   -8.1621    2.4678 C   0  0  0  0  0  0  0  0  0  0  0  0
   -0.4033   -8.9442    2.4801 C   0  0  0  0  0  0  0  0  0  0  0  0
   -1.4741   -8.6195    3.3407 C   0  0  0  0  0  0  0  0  0  0  0  0
   -1.3773   -7.5139    4.2167 C   0  0  0  0  0  0  0  0  0  0  0  0
   -0.1962   -6.7511    4.2090 C   0  0  0  0  0  0  0  0  0  0  0  0
   -2.7738   -4.7900   10.3629 H   0  0  0  0  0  0  0  0  0  0  0  0
   -2.9836   -3.8669    8.8781 H   0  0  0  0  0  0  0  0  0  0  0  0
   -2.1178   -3.1765   10.2612 H   0  0  0  0  0  0  0  0  0  0  0  0
   -0.3087   -4.8844    9.9669 H   0  0  0  0  0  0  0  0  0  0  0  0
   -1.1584   -5.5829    8.6140 H   0  0  0  0  0  0  0  0  0  0  0  0
    1.3838   -0.1848    8.6779 H   0  0  0  0  0  0  0  0  0  0  0  0
    2.3849    0.8310    6.5991 H   0  0  0  0  0  0  0  0  0  0  0  0
    1.0197   -2.5468    4.3017 H   0  0  0  0  0  0  0  0  0  0  0  0
   -1.4286   -5.3281    6.2104 H   0  0  0  0  0  0  0  0  0  0  0  0
    2.7373   -6.2256    3.0423 H   0  0  0  0  0  0  0  0  0  0  0  0
    1.5985   -8.3911    1.8196 H   0  0  0  0  0  0  0  0  0  0  0  0
   -0.4844   -9.7884    1.8146 H   0  0  0  0  0  0  0  0  0  0  0  0
   -2.3525   -9.2395    3.3356 H   0  0  0  0  0  0  0  0  0  0  0  0
   -2.1815   -7.2774    4.8865 H   0  0  0  0  0  0  0  0  0  0  0  0
  1  2  1  0
  1 24  1  0
  1 25  1  0
  1 26  1  0
  2  3  1  0
  2 27  1  0
  2 28  1  0
  3 12  1  0
  3  4  2  0
  4  5  1  0
  5 11  1  0
  5  6  1  0
  6  7  2  0
  6 29  1  0
  7  8  1  0
  7 30  1  0
  8  9  1  0
  8 10  2  0
 10 11  1  0
 10 31  1  0
 11 12  2  0
 12 13  1  0
 13 14  2  3
 13 32  1  0
 14 23  1  0
 14 15  1  0
 15 16  2  0
 15 17  1  0
 17 18  1  0
 17 33  1  0
 18 23  2  0
 18 19  1  0
 19 20  2  0
 19 34  1  0
 20 21  1  0
 20 35  1  0
 21 22  2  0
 21 36  1  0
 22 23  1  0
 22 37  1  0
M  CHG  1   9  -1
M  END
>  <i_m_ct_stereo_status>  (95) 
1

>  <s_m_source_file>  (95) 
/var/tmp/pbs.5076255.sched01/tmp7e7yg0hy/0s0dyhj_r.sdf

>  <i_m_source_file_index>  (95) 
42

>  <i_lp_mmshare_version>  (95) 
48012

>  <i_f3d_flags>  (95) 
0

>  <s_epik_input>  (95) 
W2NIXTFbY0hdYyhbT0hdKVtjSF1jKG4xMiljKGMobjIpW0NIMl1bQ0gzXSkvW0NIXT1DKFxDKD1PKVtOSF0zKWMoYzM0KVtjSF1bY0hdW2NIXVtjSF00

>  <s_epik_cmdline>  (95) 
J2VwaWtfcHl0aG9uJywgJy1waHQnLCAnMi4wJywgJy1waCcsICc3LjAnLCAnLXRuJywgJzgnLCAnLW1hJywgJzIwMCcsICctaW1hZScsICc8aW5maWxlLm1hZT4nLCAnLW9tYWUnLCAnPG91dGZpbGUubWFlPic=

>  <r_epik_Ionization_Penalty>  (95) 
1.5874

>  <r_epik_Ionization_Penalty_Charging>  (95) 
1.58739

>  <r_epik_Ionization_Penalty_Neutral>  (95) 
1.516e-05

>  <r_epik_State_Penalty>  (95) 
1.68448

>  <r_epik_Charging_Adjusted_Penalty>  (95) 
3.27187

>  <i_epik_Tot_Q>  (95) 
-1

>  <i_epik_Tot_abs_Q>  (95) 
1

>  <s_lp_Force_Field>  (95) 
OPLS3e

>  <r_lp_Energy>  (95) 
20.5612

>  <b_lp_Chiralities_Consistent>  (95) 
1

>  <s_lp_Variant>  (95) 
28:0-3

>  <s_i_glide_gridfile>  (95) 
pfpi4k_grid

>  <i_i_glide_lignum>  (95) 
42

>  <i_i_glide_rotatable_bonds>  (95) 
2

>  <r_i_docking_score>  (95) 
-2.30887

>  <r_i_glide_ligand_efficiency>  (95) 
-0.100386

>  <r_i_glide_ligand_efficiency_sa>  (95) 
-0.285483

>  <r_i_glide_ligand_efficiency_ln>  (95) 
-0.558305

>  <r_i_glide_gscore>  (95) 
-2.30887

>  <r_i_glide_lipo>  (95) 
-0.00913536

>  <r_i_glide_hbond>  (95) 
-0.101477

>  <r_i_glide_metal>  (95) 
-0

>  <r_i_glide_rewards>  (95) 
-1.33416

>  <r_i_glide_evdw>  (95) 
-18.2159

>  <r_i_glide_ecoul>  (95) 
-0.788279

>  <r_i_glide_erotb>  (95) 
0.199115

>  <r_i_glide_esite>  (95) 
-0.0341717

>  <r_i_glide_emodel>  (95) 
-21.094

>  <r_i_glide_energy>  (95) 
-19.0042

>  <r_i_glide_einternal>  (95) 
1.29429

>  <r_i_glide_intrahb_reward>  (95) 
-0

>  <i_i_glide_confnum>  (95) 
3

>  <i_i_glide_posenum>  (95) 
20

>  <r_i_glide_eff_state_penalty>  (95) 
0

>  <ligand_id>  (95) 
28

>  <original_smiles>  (95) 
CCc1nn2ccc(O)cc2c1C=C1C(=O)Nc2ccccc21

>  <smiles>  (95) 
[H]C(=C1C(=O)N([H])c2c([H])c([H])c([H])c([H])c21)c1c(C([H])([H])C([H])([H])[H])nn2c([H])c([H])c([O-])c([H])c12

$$$$
28:2:1
     RDKit          3D

 37 40  0  0  1  0  0  0  0  0999 V2000
   -0.7657    2.3349    9.1393 C   0  0  0  0  0  0  0  0  0  0  0  0
    0.2034    2.4376    7.9643 C   0  0  0  0  0  0  0  0  0  0  0  0
    0.3940    1.1331    7.2507 C   0  0  0  0  0  0  0  0  0  0  0  0
    1.2086    0.2408    7.7713 N   0  0  0  0  0  0  0  0  0  0  0  0
    1.1401   -0.8382    6.9237 N   0  0  0  0  0  0  0  0  0  0  0  0
    1.8323   -1.9939    7.0746 C   0  0  0  0  0  0  0  0  0  0  0  0
    1.6475   -3.0093    6.1600 C   0  0  0  0  0  0  0  0  0  0  0  0
    0.7547   -2.8520    5.0757 C   0  0  0  0  0  0  0  0  0  0  0  0
    0.6072   -3.8750    4.1941 O   0  0  0  0  0  0  0  0  0  0  0  0
    0.0522   -1.6832    4.9178 C   0  0  0  0  0  0  0  0  0  0  0  0
    0.2346   -0.6139    5.8616 C   0  0  0  0  0  0  0  0  0  0  0  0
   -0.2438    0.6595    6.0598 C   0  0  0  0  0  0  0  0  0  0  0  0
   -1.2323    1.3756    5.2071 C   0  0  0  0  0  0  0  0  0  0  0  0
   -1.1029    2.5845    4.6034 C   0  0  0  0  0  0  0  0  0  0  0  0
    0.0779    3.4724    4.6051 C   0  0  0  0  0  0  0  0  0  0  0  0
    1.1650    3.3317    5.1698 O   0  0  0  0  0  0  0  0  0  0  0  0
   -0.2264    4.5469    3.8567 N   0  0  0  0  0  0  0  0  0  0  0  0
   -1.5065    4.4483    3.3210 C   0  0  0  0  0  0  0  0  0  0  0  0
   -2.1819    5.3424    2.4654 C   0  0  0  0  0  0  0  0  0  0  0  0
   -3.5190    5.0451    2.0808 C   0  0  0  0  0  0  0  0  0  0  0  0
   -4.1025    3.8236    2.4783 C   0  0  0  0  0  0  0  0  0  0  0  0
   -3.3757    2.9537    3.3375 C   0  0  0  0  0  0  0  0  0  0  0  0
   -2.0784    3.2795    3.7569 C   0  0  0  0  0  0  0  0  0  0  0  0
   -0.8485    3.2984    9.6434 H   0  0  0  0  0  0  0  0  0  0  0  0
   -0.4168    1.6012    9.8649 H   0  0  0  0  0  0  0  0  0  0  0  0
   -1.7620    2.0437    8.8014 H   0  0  0  0  0  0  0  0  0  0  0  0
   -0.1790    3.2077    7.3047 H   0  0  0  0  0  0  0  0  0  0  0  0
    1.1717    2.7966    8.3094 H   0  0  0  0  0  0  0  0  0  0  0  0
    2.5088   -2.0574    7.9256 H   0  0  0  0  0  0  0  0  0  0  0  0
    2.2005   -3.9308    6.2801 H   0  0  0  0  0  0  0  0  0  0  0  0
   -0.6242   -1.5536    4.0768 H   0  0  0  0  0  0  0  0  0  0  0  0
   -2.1893    0.8773    5.1057 H   0  0  0  0  0  0  0  0  0  0  0  0
    0.4045    5.3157    3.6634 H   0  0  0  0  0  0  0  0  0  0  0  0
   -1.6978    6.2373    2.1192 H   0  0  0  0  0  0  0  0  0  0  0  0
   -4.0625    5.7264    1.4299 H   0  0  0  0  0  0  0  0  0  0  0  0
   -5.0956    3.5674    2.1624 H   0  0  0  0  0  0  0  0  0  0  0  0
   -3.8546    2.0732    3.6787 H   0  0  0  0  0  0  0  0  0  0  0  0
  1  2  1  0
  1 24  1  0
  1 25  1  0
  1 26  1  0
  2  3  1  0
  2 27  1  0
  2 28  1  0
  3 12  1  0
  3  4  2  0
  4  5  1  0
  5 11  1  0
  5  6  1  0
  6  7  2  0
  6 29  1  0
  7  8  1  0
  7 30  1  0
  8  9  1  0
  8 10  2  0
 10 11  1  0
 10 31  1  0
 11 12  2  0
 12 13  1  0
 13 14  2  3
 13 32  1  0
 14 23  1  0
 14 15  1  0
 15 16  2  0
 15 17  1  0
 17 18  1  0
 17 33  1  0
 18 23  2  0
 18 19  1  0
 19 20  2  0
 19 34  1  0
 20 21  1  0
 20 35  1  0
 21 22  2  0
 21 36  1  0
 22 23  1  0
 22 37  1  0
M  CHG  1   9  -1
M  END
>  <i_m_ct_stereo_status>  (96) 
1

>  <s_m_source_file>  (96) 
/var/tmp/pbs.5076255.sched01/tmp7e7yg0hy/0s0dyhj_r.sdf

>  <i_m_source_file_index>  (96) 
42

>  <i_lp_mmshare_version>  (96) 
48012

>  <i_f3d_flags>  (96) 
0

>  <s_epik_input>  (96) 
W2NIXTFbY0hdYyhbT0hdKVtjSF1jKG4xMiljKGMobjIpW0NIMl1bQ0gzXSkvW0NIXT1DKFxDKD1PKVtOSF0zKWMoYzM0KVtjSF1bY0hdW2NIXVtjSF00

>  <s_epik_cmdline>  (96) 
J2VwaWtfcHl0aG9uJywgJy1waHQnLCAnMi4wJywgJy1waCcsICc3LjAnLCAnLXRuJywgJzgnLCAnLW1hJywgJzIwMCcsICctaW1hZScsICc8aW5maWxlLm1hZT4nLCAnLW9tYWUnLCAnPG91dGZpbGUubWFlPic=

>  <r_epik_Ionization_Penalty>  (96) 
1.5874

>  <r_epik_Ionization_Penalty_Charging>  (96) 
1.58739

>  <r_epik_Ionization_Penalty_Neutral>  (96) 
1.516e-05

>  <r_epik_State_Penalty>  (96) 
1.68448

>  <r_epik_Charging_Adjusted_Penalty>  (96) 
3.27187

>  <i_epik_Tot_Q>  (96) 
-1

>  <i_epik_Tot_abs_Q>  (96) 
1

>  <s_lp_Force_Field>  (96) 
OPLS3e

>  <r_lp_Energy>  (96) 
20.5612

>  <b_lp_Chiralities_Consistent>  (96) 
1

>  <s_lp_Variant>  (96) 
28:0-3

>  <s_i_glide_gridfile>  (96) 
pfpi4k_grid

>  <i_i_glide_lignum>  (96) 
42

>  <i_i_glide_rotatable_bonds>  (96) 
2

>  <r_i_docking_score>  (96) 
-1.74583

>  <r_i_glide_ligand_efficiency>  (96) 
-0.0759058

>  <r_i_glide_ligand_efficiency_sa>  (96) 
-0.215866

>  <r_i_glide_ligand_efficiency_ln>  (96) 
-0.422158

>  <r_i_glide_gscore>  (96) 
-1.74583

>  <r_i_glide_lipo>  (96) 
-0.234748

>  <r_i_glide_hbond>  (96) 
0

>  <r_i_glide_metal>  (96) 
-0

>  <r_i_glide_rewards>  (96) 
-1.33416

>  <r_i_glide_evdw>  (96) 
-5.11232

>  <r_i_glide_ecoul>  (96) 
0.0711526

>  <r_i_glide_erotb>  (96) 
0.199115

>  <r_i_glide_esite>  (96) 
-0.131094

>  <r_i_glide_emodel>  (96) 
-5.7176

>  <r_i_glide_energy>  (96) 
-5.04117

>  <r_i_glide_einternal>  (96) 
2.62397

>  <r_i_glide_intrahb_reward>  (96) 
-0

>  <i_i_glide_confnum>  (96) 
1

>  <i_i_glide_posenum>  (96) 
6

>  <r_i_glide_eff_state_penalty>  (96) 
0

>  <ligand_id>  (96) 
28

>  <original_smiles>  (96) 
CCc1nn2ccc(O)cc2c1C=C1C(=O)Nc2ccccc21

>  <smiles>  (96) 
[H]C(=C1C(=O)N([H])c2c([H])c([H])c([H])c([H])c21)c1c(C([H])([H])C([H])([H])[H])nn2c([H])c([H])c([O-])c([H])c12

$$$$
28:3:0
     RDKit          3D

 37 40  0  0  1  0  0  0  0  0999 V2000
   -3.5189    3.1279    2.4000 C   0  0  0  0  0  0  0  0  0  0  0  0
   -2.4913    3.9472    3.1736 C   0  0  0  0  0  0  0  0  0  0  0  0
   -2.1294    3.3397    4.5041 C   0  0  0  0  0  0  0  0  0  0  0  0
   -3.0036    3.3422    5.4817 N   0  0  0  0  0  0  0  0  0  0  0  0
   -2.3744    2.7463    6.5322 N   0  0  0  0  0  0  0  0  0  0  0  0
   -2.9116    2.5735    7.7617 C   0  0  0  0  0  0  0  0  0  0  0  0
   -2.1542    1.9443    8.7158 C   0  0  0  0  0  0  0  0  0  0  0  0
   -0.8681    1.4284    8.4119 C   0  0  0  0  0  0  0  0  0  0  0  0
   -0.1721    0.7369    9.3539 O   0  0  0  0  0  0  0  0  0  0  0  0
   -0.3190    1.6190    7.1686 C   0  0  0  0  0  0  0  0  0  0  0  0
   -1.0780    2.3182    6.1868 C   0  0  0  0  0  0  0  0  0  0  0  0
   -0.9103    2.7318    4.8931 C   0  0  0  0  0  0  0  0  0  0  0  0
    0.2257    2.4678    4.0079 C   0  0  0  0  0  0  0  0  0  0  0  0
    1.1884    3.3389    3.6592 C   0  0  0  0  0  0  0  0  0  0  0  0
    2.2146    2.9883    2.6880 C   0  0  0  0  0  0  0  0  0  0  0  0
    2.3630    1.9141    2.1027 O   0  0  0  0  0  0  0  0  0  0  0  0
    3.0113    4.0669    2.5556 N   0  0  0  0  0  0  0  0  0  0  0  0
    2.5996    5.1194    3.3766 C   0  0  0  0  0  0  0  0  0  0  0  0
    3.1976    6.3749    3.5423 C   0  0  0  0  0  0  0  0  0  0  0  0
    2.5892    7.2631    4.4577 C   0  0  0  0  0  0  0  0  0  0  0  0
    1.4359    6.8675    5.1862 C   0  0  0  0  0  0  0  0  0  0  0  0
    0.8593    5.5822    5.0116 C   0  0  0  0  0  0  0  0  0  0  0  0
    1.4734    4.7193    4.0791 C   0  0  0  0  0  0  0  0  0  0  0  0
   -3.7935    3.6071    1.4646 H   0  0  0  0  0  0  0  0  0  0  0  0
   -4.4380    3.0144    2.9675 H   0  0  0  0  0  0  0  0  0  0  0  0
   -3.1096    2.1363    2.1738 H   0  0  0  0  0  0  0  0  0  0  0  0
   -1.6008    4.1106    2.5663 H   0  0  0  0  0  0  0  0  0  0  0  0
   -2.9240    4.9324    3.3212 H   0  0  0  0  0  0  0  0  0  0  0  0
   -3.9180    2.9419    7.9263 H   0  0  0  0  0  0  0  0  0  0  0  0
   -2.5736    1.8071    9.7074 H   0  0  0  0  0  0  0  0  0  0  0  0
    0.6788    1.2646    6.9339 H   0  0  0  0  0  0  0  0  0  0  0  0
    0.2084    1.4893    3.5366 H   0  0  0  0  0  0  0  0  0  0  0  0
    3.8430    4.0968    1.9761 H   0  0  0  0  0  0  0  0  0  0  0  0
    4.0770    6.6564    2.9744 H   0  0  0  0  0  0  0  0  0  0  0  0
    3.0039    8.2530    4.5966 H   0  0  0  0  0  0  0  0  0  0  0  0
    0.9997    7.5627    5.8867 H   0  0  0  0  0  0  0  0  0  0  0  0
   -0.0100    5.2660    5.5797 H   0  0  0  0  0  0  0  0  0  0  0  0
  1  2  1  0
  1 24  1  0
  1 25  1  0
  1 26  1  0
  2  3  1  0
  2 27  1  0
  2 28  1  0
  3 12  1  0
  3  4  2  0
  4  5  1  0
  5 11  1  0
  5  6  1  0
  6  7  2  0
  6 29  1  0
  7  8  1  0
  7 30  1  0
  8  9  1  0
  8 10  2  0
 10 11  1  0
 10 31  1  0
 11 12  2  0
 12 13  1  0
 13 14  2  3
 13 32  1  0
 14 23  1  0
 14 15  1  0
 15 16  2  0
 15 17  1  0
 17 18  1  0
 17 33  1  0
 18 23  2  0
 18 19  1  0
 19 20  2  0
 19 34  1  0
 20 21  1  0
 20 35  1  0
 21 22  2  0
 21 36  1  0
 22 23  1  0
 22 37  1  0
M  CHG  1   9  -1
M  END
>  <i_m_ct_stereo_status>  (97) 
1

>  <s_m_source_file>  (97) 
/var/tmp/pbs.5076255.sched01/tmp7e7yg0hy/0s0dyhj_r.sdf

>  <i_m_source_file_index>  (97) 
43

>  <i_lp_mmshare_version>  (97) 
48012

>  <i_f3d_flags>  (97) 
0

>  <s_epik_input>  (97) 
W2NIXTFbY0hdYyhbT0hdKVtjSF1jKG4xMiljKGMobjIpW0NIMl1bQ0gzXSkvW0NIXT1DKFxDKD1PKVtOSF0zKWMoYzM0KVtjSF1bY0hdW2NIXVtjSF00

>  <s_epik_cmdline>  (97) 
J2VwaWtfcHl0aG9uJywgJy1waHQnLCAnMi4wJywgJy1waCcsICc3LjAnLCAnLXRuJywgJzgnLCAnLW1hJywgJzIwMCcsICctaW1hZScsICc8aW5maWxlLm1hZT4nLCAnLW9tYWUnLCAnPG91dGZpbGUubWFlPic=

>  <r_epik_Ionization_Penalty>  (97) 
1.5874

>  <r_epik_Ionization_Penalty_Charging>  (97) 
1.58739

>  <r_epik_Ionization_Penalty_Neutral>  (97) 
1.516e-05

>  <r_epik_State_Penalty>  (97) 
1.68448

>  <r_epik_Charging_Adjusted_Penalty>  (97) 
3.27187

>  <i_epik_Tot_Q>  (97) 
-1

>  <i_epik_Tot_abs_Q>  (97) 
1

>  <s_lp_Force_Field>  (97) 
OPLS3e

>  <r_lp_Energy>  (97) 
18.5198

>  <b_lp_Chiralities_Consistent>  (97) 
1

>  <s_lp_Variant>  (97) 
28:0-4

>  <s_i_glide_gridfile>  (97) 
pfpi4k_grid

>  <i_i_glide_lignum>  (97) 
43

>  <i_i_glide_rotatable_bonds>  (97) 
2

>  <r_i_docking_score>  (97) 
-3.10873

>  <r_i_glide_ligand_efficiency>  (97) 
-0.135162

>  <r_i_glide_ligand_efficiency_sa>  (97) 
-0.384383

>  <r_i_glide_ligand_efficiency_ln>  (97) 
-0.751719

>  <r_i_glide_gscore>  (97) 
-3.10873

>  <r_i_glide_lipo>  (97) 
-0.247025

>  <r_i_glide_hbond>  (97) 
-0.139486

>  <r_i_glide_metal>  (97) 
-0

>  <r_i_glide_rewards>  (97) 
-1.51653

>  <r_i_glide_evdw>  (97) 
-19.8422

>  <r_i_glide_ecoul>  (97) 
-2.3679

>  <r_i_glide_erotb>  (97) 
0.199115

>  <r_i_glide_esite>  (97) 
-0.0575108

>  <r_i_glide_emodel>  (97) 
-26.2367

>  <r_i_glide_energy>  (97) 
-22.2101

>  <r_i_glide_einternal>  (97) 
5.28247

>  <r_i_glide_intrahb_reward>  (97) 
-0

>  <i_i_glide_confnum>  (97) 
6

>  <i_i_glide_posenum>  (97) 
8

>  <r_i_glide_eff_state_penalty>  (97) 
0

>  <ligand_id>  (97) 
28

>  <original_smiles>  (97) 
CCc1nn2ccc(O)cc2c1C=C1C(=O)Nc2ccccc21

>  <smiles>  (97) 
[H]C(=C1C(=O)N([H])c2c([H])c([H])c([H])c([H])c21)c1c(C([H])([H])C([H])([H])[H])nn2c([H])c([H])c([O-])c([H])c12

$$$$
28:3:1
     RDKit          3D

 37 40  0  0  1  0  0  0  0  0999 V2000
   -3.6981    3.2297    2.2073 C   0  0  0  0  0  0  0  0  0  0  0  0
   -2.4075    3.7831    2.8251 C   0  0  0  0  0  0  0  0  0  0  0  0
   -2.0395    3.0965    4.1179 C   0  0  0  0  0  0  0  0  0  0  0  0
   -2.7452    3.3476    5.2008 N   0  0  0  0  0  0  0  0  0  0  0  0
   -2.1460    2.6158    6.1899 N   0  0  0  0  0  0  0  0  0  0  0  0
   -2.5595    2.5919    7.4928 C   0  0  0  0  0  0  0  0  0  0  0  0
   -1.8830    1.8050    8.3831 C   0  0  0  0  0  0  0  0  0  0  0  0
   -0.7832    1.0350    7.9436 C   0  0  0  0  0  0  0  0  0  0  0  0
   -0.1904    0.1771    8.8043 O   0  0  0  0  0  0  0  0  0  0  0  0
   -0.2967    1.1467    6.6661 C   0  0  0  0  0  0  0  0  0  0  0  0
   -1.0388    1.8925    5.7128 C   0  0  0  0  0  0  0  0  0  0  0  0
   -0.9819    2.1699    4.3599 C   0  0  0  0  0  0  0  0  0  0  0  0
   -0.0707    1.6308    3.3353 C   0  0  0  0  0  0  0  0  0  0  0  0
    0.4910    0.3990    3.2462 C   0  0  0  0  0  0  0  0  0  0  0  0
    1.4992    0.1010    2.2300 C   0  0  0  0  0  0  0  0  0  0  0  0
    1.9345    0.8367    1.3468 O   0  0  0  0  0  0  0  0  0  0  0  0
    1.9161   -1.1579    2.4514 N   0  0  0  0  0  0  0  0  0  0  0  0
    1.2497   -1.7435    3.5308 C   0  0  0  0  0  0  0  0  0  0  0  0
    1.4057   -3.0375    4.0606 C   0  0  0  0  0  0  0  0  0  0  0  0
    0.5993   -3.3920    5.1622 C   0  0  0  0  0  0  0  0  0  0  0  0
   -0.3480   -2.4777    5.6731 C   0  0  0  0  0  0  0  0  0  0  0  0
   -0.5290   -1.2215    5.0736 C   0  0  0  0  0  0  0  0  0  0  0  0
    0.3348   -0.8327    4.0346 C   0  0  0  0  0  0  0  0  0  0  0  0
   -3.9604    3.7456    1.2850 H   0  0  0  0  0  0  0  0  0  0  0  0
   -4.5383    3.3392    2.8932 H   0  0  0  0  0  0  0  0  0  0  0  0
   -3.5720    2.1751    1.9667 H   0  0  0  0  0  0  0  0  0  0  0  0
   -1.6008    3.6978    2.1001 H   0  0  0  0  0  0  0  0  0  0  0  0
   -2.5252    4.8537    2.9975 H   0  0  0  0  0  0  0  0  0  0  0  0
   -3.4245    3.1865    7.7479 H   0  0  0  0  0  0  0  0  0  0  0  0
   -2.2186    1.7474    9.4165 H   0  0  0  0  0  0  0  0  0  0  0  0
    0.5767    0.5755    6.3505 H   0  0  0  0  0  0  0  0  0  0  0  0
    0.2057    2.3634    2.5859 H   0  0  0  0  0  0  0  0  0  0  0  0
    2.5912   -1.6356    1.8765 H   0  0  0  0  0  0  0  0  0  0  0  0
    2.1057   -3.7391    3.6311 H   0  0  0  0  0  0  0  0  0  0  0  0
    0.7033   -4.3654    5.6157 H   0  0  0  0  0  0  0  0  0  0  0  0
   -0.9418   -2.7452    6.5253 H   0  0  0  0  0  0  0  0  0  0  0  0
   -1.3178   -0.5790    5.4268 H   0  0  0  0  0  0  0  0  0  0  0  0
  1  2  1  0
  1 24  1  0
  1 25  1  0
  1 26  1  0
  2  3  1  0
  2 27  1  0
  2 28  1  0
  3 12  1  0
  3  4  2  0
  4  5  1  0
  5 11  1  0
  5  6  1  0
  6  7  2  0
  6 29  1  0
  7  8  1  0
  7 30  1  0
  8  9  1  0
  8 10  2  0
 10 11  1  0
 10 31  1  0
 11 12  2  0
 12 13  1  0
 13 14  2  3
 13 32  1  0
 14 23  1  0
 14 15  1  0
 15 16  2  0
 15 17  1  0
 17 18  1  0
 17 33  1  0
 18 23  2  0
 18 19  1  0
 19 20  2  0
 19 34  1  0
 20 21  1  0
 20 35  1  0
 21 22  2  0
 21 36  1  0
 22 23  1  0
 22 37  1  0
M  CHG  1   9  -1
M  END
>  <i_m_ct_stereo_status>  (98) 
1

>  <s_m_source_file>  (98) 
/var/tmp/pbs.5076255.sched01/tmp7e7yg0hy/0s0dyhj_r.sdf

>  <i_m_source_file_index>  (98) 
43

>  <i_lp_mmshare_version>  (98) 
48012

>  <i_f3d_flags>  (98) 
0

>  <s_epik_input>  (98) 
W2NIXTFbY0hdYyhbT0hdKVtjSF1jKG4xMiljKGMobjIpW0NIMl1bQ0gzXSkvW0NIXT1DKFxDKD1PKVtOSF0zKWMoYzM0KVtjSF1bY0hdW2NIXVtjSF00

>  <s_epik_cmdline>  (98) 
J2VwaWtfcHl0aG9uJywgJy1waHQnLCAnMi4wJywgJy1waCcsICc3LjAnLCAnLXRuJywgJzgnLCAnLW1hJywgJzIwMCcsICctaW1hZScsICc8aW5maWxlLm1hZT4nLCAnLW9tYWUnLCAnPG91dGZpbGUubWFlPic=

>  <r_epik_Ionization_Penalty>  (98) 
1.5874

>  <r_epik_Ionization_Penalty_Charging>  (98) 
1.58739

>  <r_epik_Ionization_Penalty_Neutral>  (98) 
1.516e-05

>  <r_epik_State_Penalty>  (98) 
1.68448

>  <r_epik_Charging_Adjusted_Penalty>  (98) 
3.27187

>  <i_epik_Tot_Q>  (98) 
-1

>  <i_epik_Tot_abs_Q>  (98) 
1

>  <s_lp_Force_Field>  (98) 
OPLS3e

>  <r_lp_Energy>  (98) 
18.5198

>  <b_lp_Chiralities_Consistent>  (98) 
1

>  <s_lp_Variant>  (98) 
28:0-4

>  <s_i_glide_gridfile>  (98) 
pfpi4k_grid

>  <i_i_glide_lignum>  (98) 
43

>  <i_i_glide_rotatable_bonds>  (98) 
2

>  <r_i_docking_score>  (98) 
-2.85735

>  <r_i_glide_ligand_efficiency>  (98) 
-0.124233

>  <r_i_glide_ligand_efficiency_sa>  (98) 
-0.353302

>  <r_i_glide_ligand_efficiency_ln>  (98) 
-0.690934

>  <r_i_glide_gscore>  (98) 
-2.85735

>  <r_i_glide_lipo>  (98) 
-0.224817

>  <r_i_glide_hbond>  (98) 
0

>  <r_i_glide_metal>  (98) 
-0

>  <r_i_glide_rewards>  (98) 
-1.45867

>  <r_i_glide_evdw>  (98) 
-22.0713

>  <r_i_glide_ecoul>  (98) 
-1.31988

>  <r_i_glide_erotb>  (98) 
0.199115

>  <r_i_glide_esite>  (98) 
-0.0714352

>  <r_i_glide_emodel>  (98) 
-28.5483

>  <r_i_glide_energy>  (98) 
-23.3912

>  <r_i_glide_einternal>  (98) 
0.703467

>  <r_i_glide_intrahb_reward>  (98) 
-0

>  <i_i_glide_confnum>  (98) 
3

>  <i_i_glide_posenum>  (98) 
27

>  <r_i_glide_eff_state_penalty>  (98) 
0

>  <ligand_id>  (98) 
28

>  <original_smiles>  (98) 
CCc1nn2ccc(O)cc2c1C=C1C(=O)Nc2ccccc21

>  <smiles>  (98) 
[H]C(=C1C(=O)N([H])c2c([H])c([H])c([H])c([H])c21)c1c(C([H])([H])C([H])([H])[H])nn2c([H])c([H])c([O-])c([H])c12

$$$$
28:3:2
     RDKit          3D

 37 40  0  0  1  0  0  0  0  0999 V2000
   -0.4940    5.5908    3.2603 C   0  0  0  0  0  0  0  0  0  0  0  0
   -1.4793    4.4115    3.2423 C   0  0  0  0  0  0  0  0  0  0  0  0
   -1.3032    3.5045    4.4255 C   0  0  0  0  0  0  0  0  0  0  0  0
   -1.9685    3.7489    5.5300 N   0  0  0  0  0  0  0  0  0  0  0  0
   -1.5362    2.8073    6.4360 N   0  0  0  0  0  0  0  0  0  0  0  0
   -1.9866    2.6936    7.7145 C   0  0  0  0  0  0  0  0  0  0  0  0
   -1.4960    1.6741    8.5004 C   0  0  0  0  0  0  0  0  0  0  0  0
   -0.5460    0.7885    7.9749 C   0  0  0  0  0  0  0  0  0  0  0  0
   -0.1557   -0.2856    8.6988 O   0  0  0  0  0  0  0  0  0  0  0  0
    0.0205    1.0115    6.7558 C   0  0  0  0  0  0  0  0  0  0  0  0
   -0.5796    1.9517    5.8573 C   0  0  0  0  0  0  0  0  0  0  0  0
   -0.4540    2.3592    4.5516 C   0  0  0  0  0  0  0  0  0  0  0  0
    0.3323    1.7626    3.4464 C   0  0  0  0  0  0  0  0  0  0  0  0
    0.7442    0.4819    3.2715 C   0  0  0  0  0  0  0  0  0  0  0  0
    1.6749    0.1237    2.1968 C   0  0  0  0  0  0  0  0  0  0  0  0
    2.1356    0.8445    1.3131 O   0  0  0  0  0  0  0  0  0  0  0  0
    1.9709   -1.1793    2.3533 N   0  0  0  0  0  0  0  0  0  0  0  0
    1.2942   -1.7397    3.4415 C   0  0  0  0  0  0  0  0  0  0  0  0
    1.3338   -3.0670    3.9188 C   0  0  0  0  0  0  0  0  0  0  0  0
    0.5443   -3.3834    5.0516 C   0  0  0  0  0  0  0  0  0  0  0  0
   -0.2865   -2.4065    5.6259 C   0  0  0  0  0  0  0  0  0  0  0  0
   -0.4105   -1.1504    5.0245 C   0  0  0  0  0  0  0  0  0  0  0  0
    0.4898   -0.7700    4.0118 C   0  0  0  0  0  0  0  0  0  0  0  0
   -0.6684    6.2484    2.4067 H   0  0  0  0  0  0  0  0  0  0  0  0
    0.5400    5.2476    3.1832 H   0  0  0  0  0  0  0  0  0  0  0  0
   -0.5778    6.1880    4.1674 H   0  0  0  0  0  0  0  0  0  0  0  0
   -2.4934    4.8106    3.2360 H   0  0  0  0  0  0  0  0  0  0  0  0
   -1.3775    3.8567    2.3117 H   0  0  0  0  0  0  0  0  0  0  0  0
   -2.7024    3.4333    8.0599 H   0  0  0  0  0  0  0  0  0  0  0  0
   -1.8522    1.5463    9.5079 H   0  0  0  0  0  0  0  0  0  0  0  0
    0.8027    0.3470    6.3935 H   0  0  0  0  0  0  0  0  0  0  0  0
    0.6466    2.4945    2.7162 H   0  0  0  0  0  0  0  0  0  0  0  0
    2.5535   -1.7101    1.7216 H   0  0  0  0  0  0  0  0  0  0  0  0
    1.9254   -3.8277    3.4233 H   0  0  0  0  0  0  0  0  0  0  0  0
    0.5607   -4.3802    5.4696 H   0  0  0  0  0  0  0  0  0  0  0  0
   -0.8531   -2.6164    6.5105 H   0  0  0  0  0  0  0  0  0  0  0  0
   -1.1498   -0.4782    5.4114 H   0  0  0  0  0  0  0  0  0  0  0  0
  1  2  1  0
  1 24  1  0
  1 25  1  0
  1 26  1  0
  2  3  1  0
  2 27  1  0
  2 28  1  0
  3 12  1  0
  3  4  2  0
  4  5  1  0
  5 11  1  0
  5  6  1  0
  6  7  2  0
  6 29  1  0
  7  8  1  0
  7 30  1  0
  8  9  1  0
  8 10  2  0
 10 11  1  0
 10 31  1  0
 11 12  2  0
 12 13  1  0
 13 14  2  3
 13 32  1  0
 14 23  1  0
 14 15  1  0
 15 16  2  0
 15 17  1  0
 17 18  1  0
 17 33  1  0
 18 23  2  0
 18 19  1  0
 19 20  2  0
 19 34  1  0
 20 21  1  0
 20 35  1  0
 21 22  2  0
 21 36  1  0
 22 23  1  0
 22 37  1  0
M  CHG  1   9  -1
M  END
>  <i_m_ct_stereo_status>  (99) 
1

>  <s_m_source_file>  (99) 
/var/tmp/pbs.5076255.sched01/tmp7e7yg0hy/0s0dyhj_r.sdf

>  <i_m_source_file_index>  (99) 
43

>  <i_lp_mmshare_version>  (99) 
48012

>  <i_f3d_flags>  (99) 
0

>  <s_epik_input>  (99) 
W2NIXTFbY0hdYyhbT0hdKVtjSF1jKG4xMiljKGMobjIpW0NIMl1bQ0gzXSkvW0NIXT1DKFxDKD1PKVtOSF0zKWMoYzM0KVtjSF1bY0hdW2NIXVtjSF00

>  <s_epik_cmdline>  (99) 
J2VwaWtfcHl0aG9uJywgJy1waHQnLCAnMi4wJywgJy1waCcsICc3LjAnLCAnLXRuJywgJzgnLCAnLW1hJywgJzIwMCcsICctaW1hZScsICc8aW5maWxlLm1hZT4nLCAnLW9tYWUnLCAnPG91dGZpbGUubWFlPic=

>  <r_epik_Ionization_Penalty>  (99) 
1.5874

>  <r_epik_Ionization_Penalty_Charging>  (99) 
1.58739

>  <r_epik_Ionization_Penalty_Neutral>  (99) 
1.516e-05

>  <r_epik_State_Penalty>  (99) 
1.68448

>  <r_epik_Charging_Adjusted_Penalty>  (99) 
3.27187

>  <i_epik_Tot_Q>  (99) 
-1

>  <i_epik_Tot_abs_Q>  (99) 
1

>  <s_lp_Force_Field>  (99) 
OPLS3e

>  <r_lp_Energy>  (99) 
18.5198

>  <b_lp_Chiralities_Consistent>  (99) 
1

>  <s_lp_Variant>  (99) 
28:0-4

>  <s_i_glide_gridfile>  (99) 
pfpi4k_grid

>  <i_i_glide_lignum>  (99) 
43

>  <i_i_glide_rotatable_bonds>  (99) 
2

>  <r_i_docking_score>  (99) 
-2.62682

>  <r_i_glide_ligand_efficiency>  (99) 
-0.11421

>  <r_i_glide_ligand_efficiency_sa>  (99) 
-0.324797

>  <r_i_glide_ligand_efficiency_ln>  (99) 
-0.635189

>  <r_i_glide_gscore>  (99) 
-2.62682

>  <r_i_glide_lipo>  (99) 
-0.0608149

>  <r_i_glide_hbond>  (99) 
-0.016416

>  <r_i_glide_metal>  (99) 
-0

>  <r_i_glide_rewards>  (99) 
-1.39565

>  <r_i_glide_evdw>  (99) 
-19.4074

>  <r_i_glide_ecoul>  (99) 
-2.07077

>  <r_i_glide_erotb>  (99) 
0.199115

>  <r_i_glide_esite>  (99) 
-0.0720666

>  <r_i_glide_emodel>  (99) 
-25.3269

>  <r_i_glide_energy>  (99) 
-21.4781

>  <r_i_glide_einternal>  (99) 
0.310628

>  <r_i_glide_intrahb_reward>  (99) 
-0

>  <i_i_glide_confnum>  (99) 
3

>  <i_i_glide_posenum>  (99) 
15

>  <r_i_glide_eff_state_penalty>  (99) 
0

>  <ligand_id>  (99) 
28

>  <original_smiles>  (99) 
CCc1nn2ccc(O)cc2c1C=C1C(=O)Nc2ccccc21

>  <smiles>  (99) 
[H]C(=C1C(=O)N([H])c2c([H])c([H])c([H])c([H])c21)c1c(C([H])([H])C([H])([H])[H])nn2c([H])c([H])c([O-])c([H])c12

$$$$
29:0:0
     RDKit          3D

 47 49  0  0  1  0  0  0  0  0999 V2000
    0.8948   -8.4840    2.0783 C   0  0  0  0  0  0  0  0  0  0  0  0
    0.6044   -7.0600    2.5705 C   0  0  0  0  0  0  0  0  0  0  0  0
   -0.5453   -6.7229    2.8482 O   0  0  0  0  0  0  0  0  0  0  0  0
    1.6612   -6.2123    2.6954 O   0  0  0  0  0  0  0  0  0  0  0  0
    2.8367   -6.5283    2.0105 C   0  0  2  0  0  0  0  0  0  0  0  0
    3.5273   -7.5987    2.5965 O   0  0  0  0  0  0  0  0  0  0  0  0
    4.8734   -7.5423    2.1562 C   0  0  0  0  0  0  0  0  0  0  0  0
    5.0868   -6.1125    1.7485 C   0  0  0  0  0  0  0  0  0  0  0  0
    6.1080   -5.6139    1.0509 C   0  0  0  0  0  0  0  0  0  0  0  0
    6.1268   -4.1834    0.5724 C   0  0  0  0  0  0  0  0  0  0  0  0
    4.9073   -3.2947    1.0082 C   0  0  1  0  0  0  0  0  0  0  0  0
    4.8090   -2.0121    0.0851 C   0  0  1  0  0  0  0  0  0  0  0  0
    3.9413   -0.8742    0.6936 C   0  0  0  0  0  0  0  0  0  0  0  0
    6.2074   -1.3818   -0.1790 C   0  0  0  0  0  0  0  0  0  0  0  0
    6.9390   -1.1199    1.0014 O   0  0  0  0  0  0  0  0  0  0  0  0
    4.2335   -2.4359   -1.2972 C   0  0  0  0  0  0  0  0  0  0  0  0
    2.9577   -3.2873   -1.2199 C   0  0  0  0  0  0  0  0  0  0  0  0
    3.0960   -4.4983   -0.2778 C   0  0  0  0  0  0  0  0  0  0  0  0
    3.5621   -4.1150    1.1531 C   0  0  2  0  0  0  0  0  0  0  0  0
    2.4590   -3.2987    1.8830 C   0  0  0  0  0  0  0  0  0  0  0  0
    3.8427   -5.3566    2.0805 C   0  0  1  0  0  0  0  0  0  0  0  0
    1.5922   -8.9943    2.7483 H   0  0  0  0  0  0  0  0  0  0  0  0
    1.3255   -8.4831    1.0785 H   0  0  0  0  0  0  0  0  0  0  0  0
   -0.0075   -9.0931    2.0471 H   0  0  0  0  0  0  0  0  0  0  0  0
    2.6180   -6.7688    0.9655 H   0  0  0  0  0  0  0  0  0  0  0  0
    5.5482   -7.8298    2.9583 H   0  0  0  0  0  0  0  0  0  0  0  0
    5.0180   -8.2072    1.3056 H   0  0  0  0  0  0  0  0  0  0  0  0
    6.9434   -6.2401    0.7770 H   0  0  0  0  0  0  0  0  0  0  0  0
    7.0557   -3.7492    0.9399 H   0  0  0  0  0  0  0  0  0  0  0  0
    6.2009   -4.2505   -0.5115 H   0  0  0  0  0  0  0  0  0  0  0  0
    5.1463   -2.9486    2.0151 H   0  0  0  0  0  0  0  0  0  0  0  0
    4.3044    0.1194    0.4298 H   0  0  0  0  0  0  0  0  0  0  0  0
    3.9178   -0.9167    1.7826 H   0  0  0  0  0  0  0  0  0  0  0  0
    2.9154   -0.8946    0.3292 H   0  0  0  0  0  0  0  0  0  0  0  0
    6.8192   -2.0314   -0.8056 H   0  0  0  0  0  0  0  0  0  0  0  0
    6.0903   -0.4535   -0.7393 H   0  0  0  0  0  0  0  0  0  0  0  0
    6.8955   -0.1992    1.2341 H   0  0  0  0  0  0  0  0  0  0  0  0
    4.0371   -1.5489   -1.9028 H   0  0  0  0  0  0  0  0  0  0  0  0
    4.9750   -3.0056   -1.8559 H   0  0  0  0  0  0  0  0  0  0  0  0
    2.1290   -2.6595   -0.9133 H   0  0  0  0  0  0  0  0  0  0  0  0
    2.6980   -3.6367   -2.2204 H   0  0  0  0  0  0  0  0  0  0  0  0
    2.1407   -5.0199   -0.2507 H   0  0  0  0  0  0  0  0  0  0  0  0
    3.8099   -5.1952   -0.7175 H   0  0  0  0  0  0  0  0  0  0  0  0
    1.6156   -3.9077    2.1894 H   0  0  0  0  0  0  0  0  0  0  0  0
    1.9998   -2.5342    1.2677 H   0  0  0  0  0  0  0  0  0  0  0  0
    2.8415   -2.8247    2.7862 H   0  0  0  0  0  0  0  0  0  0  0  0
    3.9531   -5.0381    3.1240 H   0  0  0  0  0  0  0  0  0  0  0  0
  1  2  1  0
  1 22  1  0
  1 23  1  0
  1 24  1  0
  2  3  2  0
  2  4  1  0
  4  5  1  0
  5 21  1  0
  5  6  1  0
  5 25  1  6
  6  7  1  0
  7  8  1  0
  7 26  1  0
  7 27  1  0
  8 21  1  0
  8  9  2  0
  9 10  1  0
  9 28  1  0
 10 11  1  0
 10 29  1  0
 10 30  1  0
 11 19  1  0
 11 12  1  0
 11 31  1  1
 12 13  1  1
 12 14  1  0
 12 16  1  0
 13 32  1  0
 13 33  1  0
 13 34  1  0
 14 15  1  0
 14 35  1  0
 14 36  1  0
 15 37  1  0
 16 17  1  0
 16 38  1  0
 16 39  1  0
 17 18  1  0
 17 40  1  0
 17 41  1  0
 18 19  1  0
 18 42  1  0
 18 43  1  0
 19 20  1  1
 19 21  1  0
 20 44  1  0
 20 45  1  0
 20 46  1  0
 21 47  1  1
M  END
>  <i_m_ct_stereo_status>  (100) 
1

>  <s_m_source_file>  (100) 
/var/tmp/pbs.5076255.sched01/tmp7e7yg0hy/0s0dyhj_r.sdf

>  <i_m_source_file_index>  (100) 
44

>  <i_lp_mmshare_version>  (100) 
48012

>  <i_f3d_flags>  (100) 
0

>  <s_epik_input>  (100) 
W0NIM11DKD1PKU9bQ0BIXShPW0NIMl0xKVtDQEhdMkMxPVtDSF1bQ0gyXVtDQEhdKFtDQF0yM1tDSDNdKVtDQEBdKFtDSDNdKShbQ0gyXVtPSF0pW0NIMl1bQ0gyXVtDSDJdMw==

>  <s_epik_cmdline>  (100) 
J2VwaWtfcHl0aG9uJywgJy1waHQnLCAnMi4wJywgJy1waCcsICc3LjAnLCAnLXRuJywgJzgnLCAnLW1hJywgJzIwMCcsICctaW1hZScsICc8aW5maWxlLm1hZT4nLCAnLW9tYWUnLCAnPG91dGZpbGUubWFlPic=

>  <r_lp_tautomer_probability>  (100) 
1

>  <r_epik_Ionization_Penalty>  (100) 
7.87271e-07

>  <r_epik_Ionization_Penalty_Charging>  (100) 
0

>  <r_epik_Ionization_Penalty_Neutral>  (100) 
7.87271e-07

>  <r_epik_State_Penalty>  (100) 
-0

>  <r_epik_Charging_Adjusted_Penalty>  (100) 
0

>  <i_epik_Tot_Q>  (100) 
0

>  <i_epik_Tot_abs_Q>  (100) 
0

>  <s_epik_Chemistry_Notes>  (100) 
This compound has an ester and may undergo hydrolysis at high or low pH. This compound contains an acetal/aminal-like group ( X-CH(R)-Y where X, Y are N, S, or O) that may be acid/base labile, releasing an aldehyde.

>  <s_lp_Force_Field>  (100) 
OPLS3e

>  <r_lp_Energy>  (100) 
41.2357

>  <b_lp_Chiralities_Consistent>  (100) 
1

>  <s_lp_Variant>  (100) 
29:0-1

>  <s_i_glide_gridfile>  (100) 
pfpi4k_grid

>  <i_i_glide_lignum>  (100) 
44

>  <i_i_glide_rotatable_bonds>  (100) 
4

>  <r_i_docking_score>  (100) 
-3.34765

>  <r_i_glide_ligand_efficiency>  (100) 
-0.159412

>  <r_i_glide_ligand_efficiency_sa>  (100) 
-0.439805

>  <r_i_glide_ligand_efficiency_ln>  (100) 
-0.827699

>  <r_i_glide_gscore>  (100) 
-3.34765

>  <r_i_glide_lipo>  (100) 
-0.359201

>  <r_i_glide_hbond>  (100) 
-0.440088

>  <r_i_glide_metal>  (100) 
-0

>  <r_i_glide_rewards>  (100) 
-1.40264

>  <r_i_glide_evdw>  (100) 
-17.1119

>  <r_i_glide_ecoul>  (100) 
-4.39581

>  <r_i_glide_erotb>  (100) 
0.422044

>  <r_i_glide_esite>  (100) 
-0.0527949

>  <r_i_glide_emodel>  (100) 
-21.0436

>  <r_i_glide_energy>  (100) 
-21.5077

>  <r_i_glide_einternal>  (100) 
8.74303

>  <r_i_glide_intrahb_reward>  (100) 
-0

>  <i_i_glide_confnum>  (100) 
1

>  <i_i_glide_posenum>  (100) 
1

>  <r_i_glide_eff_state_penalty>  (100) 
0

>  <ligand_id>  (100) 
29

>  <original_smiles>  (100) 
CC(=O)OC1OCC2=CCC3C(C)(CO)CCCC3(C)C21

>  <smiles>  (100) 
[H]OC([H])([H])C1(C([H])([H])[H])C([H])([H])C([H])([H])C([H])([H])C2(C([H])([H])[H])C3([H])C(=C([H])C([H])([H])C12[H])C([H])([H])OC3([H])OC(=O)C([H])([H])[H]

$$$$
29:0:1
     RDKit          3D

 47 49  0  0  1  0  0  0  0  0999 V2000
    1.6599   -8.3771    2.2909 C   0  0  0  0  0  0  0  0  0  0  0  0
    0.5776   -7.3928    1.7926 C   0  0  0  0  0  0  0  0  0  0  0  0
   -0.5892   -7.7471    1.6824 O   0  0  0  0  0  0  0  0  0  0  0  0
    0.9672   -6.1345    1.4426 O   0  0  0  0  0  0  0  0  0  0  0  0
    2.1010   -5.6421    2.0746 C   0  0  2  0  0  0  0  0  0  0  0  0
    1.9163   -5.6268    3.4686 O   0  0  0  0  0  0  0  0  0  0  0  0
    2.8027   -4.6798    4.0230 C   0  0  0  0  0  0  0  0  0  0  0  0
    3.1574   -3.7684    2.8952 C   0  0  0  0  0  0  0  0  0  0  0  0
    4.1231   -2.8644    2.8797 C   0  0  0  0  0  0  0  0  0  0  0  0
    4.4802   -2.1480    1.6171 C   0  0  0  0  0  0  0  0  0  0  0  0
    3.6033   -2.4201    0.3385 C   0  0  1  0  0  0  0  0  0  0  0  0
    4.3788   -1.9821   -0.9673 C   0  0  1  0  0  0  0  0  0  0  0  0
    3.4505   -1.7803   -2.2054 C   0  0  0  0  0  0  0  0  0  0  0  0
    5.0446   -0.6095   -0.8003 C   0  0  0  0  0  0  0  0  0  0  0  0
    6.2228   -0.6114   -0.0224 O   0  0  0  0  0  0  0  0  0  0  0  0
    5.4664   -3.0039   -1.3242 C   0  0  0  0  0  0  0  0  0  0  0  0
    4.9459   -4.4347   -1.3055 C   0  0  0  0  0  0  0  0  0  0  0  0
    4.2009   -4.8292   -0.0139 C   0  0  0  0  0  0  0  0  0  0  0  0
    3.0343   -3.8843    0.3132 C   0  0  2  0  0  0  0  0  0  0  0  0
    1.9229   -4.0482   -0.7535 C   0  0  0  0  0  0  0  0  0  0  0  0
    2.3482   -4.1591    1.7086 C   0  0  1  0  0  0  0  0  0  0  0  0
    2.1793   -8.0196    3.1782 H   0  0  0  0  0  0  0  0  0  0  0  0
    2.3996   -8.5390    1.5082 H   0  0  0  0  0  0  0  0  0  0  0  0
    1.2337   -9.3393    2.5663 H   0  0  0  0  0  0  0  0  0  0  0  0
    2.9747   -6.2504    1.8302 H   0  0  0  0  0  0  0  0  0  0  0  0
    2.3161   -4.1227    4.8165 H   0  0  0  0  0  0  0  0  0  0  0  0
    3.6906   -5.1806    4.4006 H   0  0  0  0  0  0  0  0  0  0  0  0
    4.7404   -2.6832    3.7444 H   0  0  0  0  0  0  0  0  0  0  0  0
    4.4730   -1.0849    1.8690 H   0  0  0  0  0  0  0  0  0  0  0  0
    5.4989   -2.5073    1.4684 H   0  0  0  0  0  0  0  0  0  0  0  0
    2.7394   -1.7524    0.4420 H   0  0  0  0  0  0  0  0  0  0  0  0
    3.7535   -0.9631   -2.8686 H   0  0  0  0  0  0  0  0  0  0  0  0
    2.4304   -1.5644   -1.9164 H   0  0  0  0  0  0  0  0  0  0  0  0
    3.4084   -2.6594   -2.8420 H   0  0  0  0  0  0  0  0  0  0  0  0
    5.3688   -0.2414   -1.7754 H   0  0  0  0  0  0  0  0  0  0  0  0
    4.3245    0.0916   -0.3698 H   0  0  0  0  0  0  0  0  0  0  0  0
    6.0193   -0.8967    0.8530 H   0  0  0  0  0  0  0  0  0  0  0  0
    5.8897   -2.7792   -2.3041 H   0  0  0  0  0  0  0  0  0  0  0  0
    6.2975   -3.0007   -0.6224 H   0  0  0  0  0  0  0  0  0  0  0  0
    4.3467   -4.6055   -2.2045 H   0  0  0  0  0  0  0  0  0  0  0  0
    5.8047   -5.0531   -1.3690 H   0  0  0  0  0  0  0  0  0  0  0  0
    3.8586   -5.8534   -0.1360 H   0  0  0  0  0  0  0  0  0  0  0  0
    4.9281   -4.8309    0.7916 H   0  0  0  0  0  0  0  0  0  0  0  0
    1.3652   -4.9800   -0.6479 H   0  0  0  0  0  0  0  0  0  0  0  0
    2.2786   -4.0859   -1.7741 H   0  0  0  0  0  0  0  0  0  0  0  0
    1.2400   -3.2009   -0.7328 H   0  0  0  0  0  0  0  0  0  0  0  0
    1.4369   -3.5909    1.8387 H   0  0  0  0  0  0  0  0  0  0  0  0
  1  2  1  0
  1 22  1  0
  1 23  1  0
  1 24  1  0
  2  3  2  0
  2  4  1  0
  4  5  1  0
  5 21  1  0
  5  6  1  0
  5 25  1  1
  6  7  1  0
  7  8  1  0
  7 26  1  0
  7 27  1  0
  8 21  1  0
  8  9  2  0
  9 10  1  0
  9 28  1  0
 10 11  1  0
 10 29  1  0
 10 30  1  0
 11 19  1  0
 11 12  1  0
 11 31  1  1
 12 13  1  6
 12 14  1  0
 12 16  1  0
 13 32  1  0
 13 33  1  0
 13 34  1  0
 14 15  1  0
 14 35  1  0
 14 36  1  0
 15 37  1  0
 16 17  1  0
 16 38  1  0
 16 39  1  0
 17 18  1  0
 17 40  1  0
 17 41  1  0
 18 19  1  0
 18 42  1  0
 18 43  1  0
 19 20  1  6
 19 21  1  0
 20 44  1  0
 20 45  1  0
 20 46  1  0
 21 47  1  6
M  END
>  <i_m_ct_stereo_status>  (101) 
1

>  <s_m_source_file>  (101) 
/var/tmp/pbs.5076255.sched01/tmp7e7yg0hy/0s0dyhj_r.sdf

>  <i_m_source_file_index>  (101) 
44

>  <i_lp_mmshare_version>  (101) 
48012

>  <i_f3d_flags>  (101) 
0

>  <s_epik_input>  (101) 
W0NIM11DKD1PKU9bQ0BIXShPW0NIMl0xKVtDQEhdMkMxPVtDSF1bQ0gyXVtDQEhdKFtDQF0yM1tDSDNdKVtDQEBdKFtDSDNdKShbQ0gyXVtPSF0pW0NIMl1bQ0gyXVtDSDJdMw==

>  <s_epik_cmdline>  (101) 
J2VwaWtfcHl0aG9uJywgJy1waHQnLCAnMi4wJywgJy1waCcsICc3LjAnLCAnLXRuJywgJzgnLCAnLW1hJywgJzIwMCcsICctaW1hZScsICc8aW5maWxlLm1hZT4nLCAnLW9tYWUnLCAnPG91dGZpbGUubWFlPic=

>  <r_lp_tautomer_probability>  (101) 
1

>  <r_epik_Ionization_Penalty>  (101) 
7.87271e-07

>  <r_epik_Ionization_Penalty_Charging>  (101) 
0

>  <r_epik_Ionization_Penalty_Neutral>  (101) 
7.87271e-07

>  <r_epik_State_Penalty>  (101) 
-0

>  <r_epik_Charging_Adjusted_Penalty>  (101) 
0

>  <i_epik_Tot_Q>  (101) 
0

>  <i_epik_Tot_abs_Q>  (101) 
0

>  <s_epik_Chemistry_Notes>  (101) 
This compound has an ester and may undergo hydrolysis at high or low pH. This compound contains an acetal/aminal-like group ( X-CH(R)-Y where X, Y are N, S, or O) that may be acid/base labile, releasing an aldehyde.

>  <s_lp_Force_Field>  (101) 
OPLS3e

>  <r_lp_Energy>  (101) 
41.2357

>  <b_lp_Chiralities_Consistent>  (101) 
1

>  <s_lp_Variant>  (101) 
29:0-1

>  <s_i_glide_gridfile>  (101) 
pfpi4k_grid

>  <i_i_glide_lignum>  (101) 
44

>  <i_i_glide_rotatable_bonds>  (101) 
4

>  <r_i_docking_score>  (101) 
-2.31621

>  <r_i_glide_ligand_efficiency>  (101) 
-0.110296

>  <r_i_glide_ligand_efficiency_sa>  (101) 
-0.304297

>  <r_i_glide_ligand_efficiency_ln>  (101) 
-0.572678

>  <r_i_glide_gscore>  (101) 
-2.31621

>  <r_i_glide_lipo>  (101) 
-0.0574862

>  <r_i_glide_hbond>  (101) 
-0.177023

>  <r_i_glide_metal>  (101) 
-0

>  <r_i_glide_rewards>  (101) 
-1.40191

>  <r_i_glide_evdw>  (101) 
-12.435

>  <r_i_glide_ecoul>  (101) 
-2.63204

>  <r_i_glide_erotb>  (101) 
0.422044

>  <r_i_glide_esite>  (101) 
-0.0852741

>  <r_i_glide_emodel>  (101) 
-11.3008

>  <r_i_glide_energy>  (101) 
-15.067

>  <r_i_glide_einternal>  (101) 
11.8688

>  <r_i_glide_intrahb_reward>  (101) 
-0

>  <i_i_glide_confnum>  (101) 
4

>  <i_i_glide_posenum>  (101) 
5

>  <r_i_glide_eff_state_penalty>  (101) 
0

>  <ligand_id>  (101) 
29

>  <original_smiles>  (101) 
CC(=O)OC1OCC2=CCC3C(C)(CO)CCCC3(C)C21

>  <smiles>  (101) 
[H]OC([H])([H])C1(C([H])([H])[H])C([H])([H])C([H])([H])C([H])([H])C2(C([H])([H])[H])C3([H])C(=C([H])C([H])([H])C12[H])C([H])([H])OC3([H])OC(=O)C([H])([H])[H]

$$$$
29:0:2
     RDKit          3D

 47 49  0  0  1  0  0  0  0  0999 V2000
    6.6905   -5.7568    4.2109 C   0  0  0  0  0  0  0  0  0  0  0  0
    5.3591   -6.2727    3.6371 C   0  0  0  0  0  0  0  0  0  0  0  0
    5.0160   -7.4332    3.8382 O   0  0  0  0  0  0  0  0  0  0  0  0
    4.6202   -5.4040    2.8845 O   0  0  0  0  0  0  0  0  0  0  0  0
    5.0194   -4.0702    2.8545 C   0  0  2  0  0  0  0  0  0  0  0  0
    4.8233   -3.4612    4.1005 O   0  0  0  0  0  0  0  0  0  0  0  0
    4.7427   -2.0635    3.9033 C   0  0  0  0  0  0  0  0  0  0  0  0
    4.3914   -1.8899    2.4537 C   0  0  0  0  0  0  0  0  0  0  0  0
    4.4544   -0.7707    1.7374 C   0  0  0  0  0  0  0  0  0  0  0  0
    4.2242   -0.7543    0.2475 C   0  0  0  0  0  0  0  0  0  0  0  0
    3.8367   -2.1254   -0.4109 C   0  0  1  0  0  0  0  0  0  0  0  0
    4.0895   -2.0749   -1.9772 C   0  0  1  0  0  0  0  0  0  0  0  0
    3.3277   -3.2008   -2.7392 C   0  0  0  0  0  0  0  0  0  0  0  0
    3.5953   -0.7239   -2.5831 C   0  0  0  0  0  0  0  0  0  0  0  0
    3.7513   -0.6409   -3.9906 O   0  0  0  0  0  0  0  0  0  0  0  0
    5.6176   -2.1745   -2.2240 C   0  0  0  0  0  0  0  0  0  0  0  0
    6.3043   -3.3295   -1.4900 C   0  0  0  0  0  0  0  0  0  0  0  0
    6.0051   -3.3523    0.0217 C   0  0  0  0  0  0  0  0  0  0  0  0
    4.4814   -3.3641    0.3421 C   0  0  2  0  0  0  0  0  0  0  0  0
    3.8533   -4.7107   -0.1059 C   0  0  0  0  0  0  0  0  0  0  0  0
    4.1471   -3.2464    1.8790 C   0  0  1  0  0  0  0  0  0  0  0  0
    6.5574   -4.8758    4.8417 H   0  0  0  0  0  0  0  0  0  0  0  0
    7.3782   -5.5046    3.4021 H   0  0  0  0  0  0  0  0  0  0  0  0
    7.1816   -6.5094    4.8294 H   0  0  0  0  0  0  0  0  0  0  0  0
    6.0699   -3.9763    2.5685 H   0  0  0  0  0  0  0  0  0  0  0  0
    3.9834   -1.6320    4.5514 H   0  0  0  0  0  0  0  0  0  0  0  0
    5.7083   -1.6103    4.1207 H   0  0  0  0  0  0  0  0  0  0  0  0
    4.7079    0.1641    2.2142 H   0  0  0  0  0  0  0  0  0  0  0  0
    3.4250   -0.0394    0.0811 H   0  0  0  0  0  0  0  0  0  0  0  0
    5.1407   -0.3466   -0.1752 H   0  0  0  0  0  0  0  0  0  0  0  0
    2.7583   -2.2218   -0.2649 H   0  0  0  0  0  0  0  0  0  0  0  0
    2.9716   -2.9083   -3.7273 H   0  0  0  0  0  0  0  0  0  0  0  0
    2.4415   -3.5329   -2.1977 H   0  0  0  0  0  0  0  0  0  0  0  0
    3.9670   -4.0583   -2.9313 H   0  0  0  0  0  0  0  0  0  0  0  0
    2.5449   -0.5696   -2.3323 H   0  0  0  0  0  0  0  0  0  0  0  0
    4.1695    0.1172   -2.1925 H   0  0  0  0  0  0  0  0  0  0  0  0
    4.6755   -0.6079   -4.1845 H   0  0  0  0  0  0  0  0  0  0  0  0
    5.7931   -2.2956   -3.2907 H   0  0  0  0  0  0  0  0  0  0  0  0
    6.1008   -1.2413   -1.9374 H   0  0  0  0  0  0  0  0  0  0  0  0
    5.9939   -4.2529   -1.9590 H   0  0  0  0  0  0  0  0  0  0  0  0
    7.3797   -3.2582   -1.6481 H   0  0  0  0  0  0  0  0  0  0  0  0
    6.4887   -4.2306    0.4472 H   0  0  0  0  0  0  0  0  0  0  0  0
    6.4766   -2.4869    0.4898 H   0  0  0  0  0  0  0  0  0  0  0  0
    4.1230   -5.5389    0.5437 H   0  0  0  0  0  0  0  0  0  0  0  0
    4.1965   -5.0387   -1.0780 H   0  0  0  0  0  0  0  0  0  0  0  0
    2.7640   -4.6604   -0.1214 H   0  0  0  0  0  0  0  0  0  0  0  0
    3.0880   -3.4703    2.0605 H   0  0  0  0  0  0  0  0  0  0  0  0
  1  2  1  0
  1 22  1  0
  1 23  1  0
  1 24  1  0
  2  3  2  0
  2  4  1  0
  4  5  1  0
  5 21  1  0
  5  6  1  0
  5 25  1  6
  6  7  1  0
  7  8  1  0
  7 26  1  0
  7 27  1  0
  8 21  1  0
  8  9  2  0
  9 10  1  0
  9 28  1  0
 10 11  1  0
 10 29  1  0
 10 30  1  0
 11 19  1  0
 11 12  1  0
 11 31  1  6
 12 13  1  6
 12 14  1  0
 12 16  1  0
 13 32  1  0
 13 33  1  0
 13 34  1  0
 14 15  1  0
 14 35  1  0
 14 36  1  0
 15 37  1  0
 16 17  1  0
 16 38  1  0
 16 39  1  0
 17 18  1  0
 17 40  1  0
 17 41  1  0
 18 19  1  0
 18 42  1  0
 18 43  1  0
 19 20  1  6
 19 21  1  0
 20 44  1  0
 20 45  1  0
 20 46  1  0
 21 47  1  6
M  END
>  <i_m_ct_stereo_status>  (102) 
1

>  <s_m_source_file>  (102) 
/var/tmp/pbs.5076255.sched01/tmp7e7yg0hy/0s0dyhj_r.sdf

>  <i_m_source_file_index>  (102) 
44

>  <i_lp_mmshare_version>  (102) 
48012

>  <i_f3d_flags>  (102) 
0

>  <s_epik_input>  (102) 
W0NIM11DKD1PKU9bQ0BIXShPW0NIMl0xKVtDQEhdMkMxPVtDSF1bQ0gyXVtDQEhdKFtDQF0yM1tDSDNdKVtDQEBdKFtDSDNdKShbQ0gyXVtPSF0pW0NIMl1bQ0gyXVtDSDJdMw==

>  <s_epik_cmdline>  (102) 
J2VwaWtfcHl0aG9uJywgJy1waHQnLCAnMi4wJywgJy1waCcsICc3LjAnLCAnLXRuJywgJzgnLCAnLW1hJywgJzIwMCcsICctaW1hZScsICc8aW5maWxlLm1hZT4nLCAnLW9tYWUnLCAnPG91dGZpbGUubWFlPic=

>  <r_lp_tautomer_probability>  (102) 
1

>  <r_epik_Ionization_Penalty>  (102) 
7.87271e-07

>  <r_epik_Ionization_Penalty_Charging>  (102) 
0

>  <r_epik_Ionization_Penalty_Neutral>  (102) 
7.87271e-07

>  <r_epik_State_Penalty>  (102) 
-0

>  <r_epik_Charging_Adjusted_Penalty>  (102) 
0

>  <i_epik_Tot_Q>  (102) 
0

>  <i_epik_Tot_abs_Q>  (102) 
0

>  <s_epik_Chemistry_Notes>  (102) 
This compound has an ester and may undergo hydrolysis at high or low pH. This compound contains an acetal/aminal-like group ( X-CH(R)-Y where X, Y are N, S, or O) that may be acid/base labile, releasing an aldehyde.

>  <s_lp_Force_Field>  (102) 
OPLS3e

>  <r_lp_Energy>  (102) 
41.2357

>  <b_lp_Chiralities_Consistent>  (102) 
1

>  <s_lp_Variant>  (102) 
29:0-1

>  <s_i_glide_gridfile>  (102) 
pfpi4k_grid

>  <i_i_glide_lignum>  (102) 
44

>  <i_i_glide_rotatable_bonds>  (102) 
4

>  <r_i_docking_score>  (102) 
-2.31015

>  <r_i_glide_ligand_efficiency>  (102) 
-0.110007

>  <r_i_glide_ligand_efficiency_sa>  (102) 
-0.303501

>  <r_i_glide_ligand_efficiency_ln>  (102) 
-0.571179

>  <r_i_glide_gscore>  (102) 
-2.31015

>  <r_i_glide_lipo>  (102) 
-0.437667

>  <r_i_glide_hbond>  (102) 
0

>  <r_i_glide_metal>  (102) 
-0

>  <r_i_glide_rewards>  (102) 
-1.43712

>  <r_i_glide_evdw>  (102) 
-18.3467

>  <r_i_glide_ecoul>  (102) 
0.399551

>  <r_i_glide_erotb>  (102) 
0.422044

>  <r_i_glide_esite>  (102) 
0

>  <r_i_glide_emodel>  (102) 
-17.4895

>  <r_i_glide_energy>  (102) 
-17.9472

>  <r_i_glide_einternal>  (102) 
6.78625

>  <r_i_glide_intrahb_reward>  (102) 
-0

>  <i_i_glide_confnum>  (102) 
2

>  <i_i_glide_posenum>  (102) 
29

>  <r_i_glide_eff_state_penalty>  (102) 
0

>  <ligand_id>  (102) 
29

>  <original_smiles>  (102) 
CC(=O)OC1OCC2=CCC3C(C)(CO)CCCC3(C)C21

>  <smiles>  (102) 
[H]OC([H])([H])C1(C([H])([H])[H])C([H])([H])C([H])([H])C([H])([H])C2(C([H])([H])[H])C3([H])C(=C([H])C([H])([H])C12[H])C([H])([H])OC3([H])OC(=O)C([H])([H])[H]

$$$$
30:0:0
     RDKit          3D

 77 81  0  0  1  0  0  0  0  0999 V2000
    2.2221   -1.8334    1.6994 C   0  0  0  0  0  0  0  0  0  0  0  0
    3.5543   -1.6431    1.6740 C   0  0  0  0  0  0  0  0  0  0  0  0
    4.1046   -0.2316    1.7042 C   0  0  0  0  0  0  0  0  0  0  0  0
    4.6053   -2.7672    1.6376 C   0  0  2  0  0  0  0  0  0  0  0  0
    5.2429   -2.9792    0.2436 C   0  0  0  0  0  0  0  0  0  0  0  0
    5.1906   -4.4948   -0.0170 C   0  0  0  0  0  0  0  0  0  0  0  0
    4.0089   -5.0428    0.8177 C   0  0  1  0  0  0  0  0  0  0  0  0
    2.6438   -4.7741    0.1107 C   0  0  0  0  0  0  0  0  0  0  0  0
    2.5749   -3.8580   -0.7348 O   0  0  0  0  0  0  0  0  0  0  0  0
    1.6400   -5.4550    0.4369 O   0  0  0  0  0  0  0  0  0  0  0  0
    4.1123   -6.5806    1.0182 C   0  0  0  0  0  0  0  0  0  0  0  0
    5.1098   -7.0272    2.0808 C   0  0  0  0  0  0  0  0  0  0  0  0
    5.0648   -6.3050    3.4648 C   0  0  1  0  0  0  0  0  0  0  0  0
    6.4634   -6.6801    4.0591 C   0  0  0  0  0  0  0  0  0  0  0  0
    5.0894   -4.7535    3.2148 C   0  0  2  0  0  0  0  0  0  0  0  0
    4.9917   -3.9732    4.5539 C   0  0  0  0  0  0  0  0  0  0  0  0
    3.8254   -4.3970    5.4651 C   0  0  0  0  0  0  0  0  0  0  0  0
    3.8803   -5.9092    5.7774 C   0  0  1  0  0  0  0  0  0  0  0  0
    3.0351   -6.4553    7.0312 C   0  0  1  0  0  0  0  0  0  0  0  0
    4.0431   -6.6928    8.1889 C   0  0  0  0  0  0  0  0  0  0  0  0
    2.0130   -5.4531    7.5882 C   0  0  0  0  0  0  0  0  0  0  0  0
    0.9246   -5.7892    8.3353 C   0  0  0  0  0  0  0  0  0  0  0  0
    0.0904   -4.7302    8.8120 C   0  0  0  0  0  0  0  0  0  0  0  0
   -0.6065   -3.8774    9.1790 N   0  0  0  0  0  0  0  0  0  0  0  0
    0.6521   -7.2080    8.6541 C   0  0  0  0  0  0  0  0  0  0  0  0
   -0.1257   -7.5140    9.5581 O   0  0  0  0  0  0  0  0  0  0  0  0
    1.3142   -8.3454    7.8276 C   0  0  0  0  0  0  0  0  0  0  0  0
    2.0505   -9.3177    8.7846 C   0  0  0  0  0  0  0  0  0  0  0  0
    0.1501   -9.1413    7.1794 C   0  0  0  0  0  0  0  0  0  0  0  0
    2.2226   -7.7534    6.6959 C   0  0  2  0  0  0  0  0  0  0  0  0
    2.9627   -8.8004    5.8305 C   0  0  0  0  0  0  0  0  0  0  0  0
    4.0788   -8.2286    4.9375 C   0  0  0  0  0  0  0  0  0  0  0  0
    3.8744   -6.7620    4.4568 C   0  0  2  0  0  0  0  0  0  0  0  0
    2.4862   -6.6375    3.7604 C   0  0  0  0  0  0  0  0  0  0  0  0
    4.1235   -4.1780    2.1230 C   0  0  1  0  0  0  0  0  0  0  0  0
    1.5440   -0.9925    1.7321 H   0  0  0  0  0  0  0  0  0  0  0  0
    1.7876   -2.8200    1.6746 H   0  0  0  0  0  0  0  0  0  0  0  0
    4.7494   -0.0159    0.8515 H   0  0  0  0  0  0  0  0  0  0  0  0
    4.6609   -0.0722    2.6246 H   0  0  0  0  0  0  0  0  0  0  0  0
    3.2882    0.4877    1.6902 H   0  0  0  0  0  0  0  0  0  0  0  0
    5.4044   -2.4216    2.2882 H   0  0  0  0  0  0  0  0  0  0  0  0
    4.6895   -2.4308   -0.5220 H   0  0  0  0  0  0  0  0  0  0  0  0
    6.2710   -2.6198    0.1960 H   0  0  0  0  0  0  0  0  0  0  0  0
    5.1253   -4.7486   -1.0780 H   0  0  0  0  0  0  0  0  0  0  0  0
    6.1213   -4.9373    0.3441 H   0  0  0  0  0  0  0  0  0  0  0  0
    3.1729   -7.0722    1.2598 H   0  0  0  0  0  0  0  0  0  0  0  0
    4.3917   -7.0318    0.0647 H   0  0  0  0  0  0  0  0  0  0  0  0
    4.9978   -8.0993    2.2130 H   0  0  0  0  0  0  0  0  0  0  0  0
    6.0990   -6.9006    1.6378 H   0  0  0  0  0  0  0  0  0  0  0  0
    6.6675   -6.2640    5.0465 H   0  0  0  0  0  0  0  0  0  0  0  0
    7.2716   -6.3263    3.4149 H   0  0  0  0  0  0  0  0  0  0  0  0
    6.5971   -7.7629    4.1160 H   0  0  0  0  0  0  0  0  0  0  0  0
    6.0810   -4.5343    2.8192 H   0  0  0  0  0  0  0  0  0  0  0  0
    5.9259   -4.0984    5.1078 H   0  0  0  0  0  0  0  0  0  0  0  0
    4.9114   -2.9027    4.3751 H   0  0  0  0  0  0  0  0  0  0  0  0
    3.9160   -3.8158    6.3873 H   0  0  0  0  0  0  0  0  0  0  0  0
    2.8725   -4.1272    5.0076 H   0  0  0  0  0  0  0  0  0  0  0  0
    4.8960   -6.0178    6.1383 H   0  0  0  0  0  0  0  0  0  0  0  0
    4.7027   -7.5410    7.9944 H   0  0  0  0  0  0  0  0  0  0  0  0
    3.5581   -6.8594    9.1514 H   0  0  0  0  0  0  0  0  0  0  0  0
    4.6744   -5.8170    8.3405 H   0  0  0  0  0  0  0  0  0  0  0  0
    2.1852   -4.4049    7.4089 H   0  0  0  0  0  0  0  0  0  0  0  0
    2.2877  -10.2568    8.2877 H   0  0  0  0  0  0  0  0  0  0  0  0
    1.4305   -9.5898    9.6415 H   0  0  0  0  0  0  0  0  0  0  0  0
    2.9825   -8.9228    9.1830 H   0  0  0  0  0  0  0  0  0  0  0  0
    0.5021  -10.0026    6.6033 H   0  0  0  0  0  0  0  0  0  0  0  0
   -0.4342   -8.5136    6.5050 H   0  0  0  0  0  0  0  0  0  0  0  0
   -0.5402   -9.5238    7.9351 H   0  0  0  0  0  0  0  0  0  0  0  0
    1.4494   -7.3948    6.0290 H   0  0  0  0  0  0  0  0  0  0  0  0
    3.3682   -9.6100    6.4376 H   0  0  0  0  0  0  0  0  0  0  0  0
    2.2221   -9.2641    5.1792 H   0  0  0  0  0  0  0  0  0  0  0  0
    4.9900   -8.2773    5.5327 H   0  0  0  0  0  0  0  0  0  0  0  0
    4.2325   -8.9032    4.0961 H   0  0  0  0  0  0  0  0  0  0  0  0
    2.1662   -7.5873    3.3330 H   0  0  0  0  0  0  0  0  0  0  0  0
    2.4638   -5.9302    2.9510 H   0  0  0  0  0  0  0  0  0  0  0  0
    1.7056   -6.2518    4.4093 H   0  0  0  0  0  0  0  0  0  0  0  0
    3.1646   -4.0774    2.6140 H   0  0  0  0  0  0  0  0  0  0  0  0
  1  2  2  0
  1 36  1  0
  1 37  1  0
  2  3  1  0
  2  4  1  0
  3 38  1  0
  3 39  1  0
  3 40  1  0
  4 35  1  0
  4  5  1  0
  4 41  1  1
  5  6  1  0
  5 42  1  0
  5 43  1  0
  6  7  1  0
  6 44  1  0
  6 45  1  0
  7 35  1  0
  7  8  1  6
  7 11  1  0
  8  9  2  0
  8 10  1  0
 11 12  1  0
 11 46  1  0
 11 47  1  0
 12 13  1  0
 12 48  1  0
 12 49  1  0
 13 33  1  0
 13 14  1  1
 13 15  1  0
 14 50  1  0
 14 51  1  0
 14 52  1  0
 15 16  1  0
 15 35  1  0
 15 53  1  6
 16 17  1  0
 16 54  1  0
 16 55  1  0
 17 18  1  0
 17 56  1  0
 17 57  1  0
 18 33  1  0
 18 19  1  0
 18 58  1  1
 19 30  1  0
 19 20  1  1
 19 21  1  0
 20 59  1  0
 20 60  1  0
 20 61  1  0
 21 22  2  0
 21 62  1  0
 22 23  1  0
 22 25  1  0
 23 24  3  0
 25 26  2  0
 25 27  1  0
 27 28  1  0
 27 29  1  0
 27 30  1  0
 28 63  1  0
 28 64  1  0
 28 65  1  0
 29 66  1  0
 29 67  1  0
 29 68  1  0
 30 31  1  0
 30 69  1  6
 31 32  1  0
 31 70  1  0
 31 71  1  0
 32 33  1  0
 32 72  1  0
 32 73  1  0
 33 34  1  6
 34 74  1  0
 34 75  1  0
 34 76  1  0
 35 77  1  1
M  CHG  1  10  -1
M  END
>  <i_m_ct_stereo_status>  (103) 
1

>  <s_m_source_file>  (103) 
/var/tmp/pbs.5076255.sched01/tmp7e7yg0hy/0s0dyhj_r.sdf

>  <i_m_source_file_index>  (103) 
45

>  <i_lp_mmshare_version>  (103) 
48012

>  <i_f3d_flags>  (103) 
0

>  <s_epik_input>  (103) 
W0NIMl09QyhbQ0gzXSlbQ0BIXShbQ0gyXVtDSDJdMSlbQ0BASF0oW0NAQF0xMkMoPU8pW09IXSlbQ0BASF0zW0NAXShbQ0gzXSkoW0NIMl1bQ0gyXTIpW0NAXTQoW0NIM10pW0NAQEhdKFtDSDJdW0NIMl0zKVtDQF01KFtDSDNdKVtDQEBIXShbQ0gyXVtDSDJdNClDKFtDSDNdKShbQ0gzXSlDKD1PKUMoPVtDSF01KUMjTg==

>  <s_epik_cmdline>  (103) 
J2VwaWtfcHl0aG9uJywgJy1waHQnLCAnMi4wJywgJy1waCcsICc3LjAnLCAnLXRuJywgJzgnLCAnLW1hJywgJzIwMCcsICctaW1hZScsICc8aW5maWxlLm1hZT4nLCAnLW9tYWUnLCAnPG91dGZpbGUubWFlPic=

>  <r_epik_Ionization_Penalty>  (103) 
0.00754836

>  <r_epik_Ionization_Penalty_Charging>  (103) 
0.00754836

>  <r_epik_Ionization_Penalty_Neutral>  (103) 
0

>  <r_epik_State_Penalty>  (103) 
0.00564459

>  <r_epik_Charging_Adjusted_Penalty>  (103) 
0.013193

>  <i_epik_Tot_Q>  (103) 
-1

>  <i_epik_Tot_abs_Q>  (103) 
1

>  <s_lp_Force_Field>  (103) 
OPLS3e

>  <r_lp_Energy>  (103) 
97.8436

>  <b_lp_Chiralities_Consistent>  (103) 
1

>  <s_lp_Variant>  (103) 
30:0-1

>  <s_i_glide_gridfile>  (103) 
pfpi4k_grid

>  <i_i_glide_lignum>  (103) 
45

>  <i_i_glide_rotatable_bonds>  (103) 
3

>  <r_i_docking_score>  (103) 
-2.9409

>  <r_i_glide_ligand_efficiency>  (103) 
-0.0840257

>  <r_i_glide_ligand_efficiency_sa>  (103) 
-0.274854

>  <r_i_glide_ligand_efficiency_ln>  (103) 
-0.645592

>  <r_i_glide_gscore>  (103) 
-2.9409

>  <r_i_glide_lipo>  (103) 
-0.365964

>  <r_i_glide_hbond>  (103) 
-0.462244

>  <r_i_glide_metal>  (103) 
-0

>  <r_i_glide_rewards>  (103) 
-0.159068

>  <r_i_glide_evdw>  (103) 
-22.1682

>  <r_i_glide_ecoul>  (103) 
-5.70662

>  <r_i_glide_erotb>  (103) 
0.0891294

>  <r_i_glide_esite>  (103) 
-0.0783496

>  <r_i_glide_emodel>  (103) 
-32.189

>  <r_i_glide_energy>  (103) 
-27.8748

>  <r_i_glide_einternal>  (103) 
2.9225

>  <r_i_glide_intrahb_reward>  (103) 
-0

>  <i_i_glide_confnum>  (103) 
1

>  <i_i_glide_posenum>  (103) 
4

>  <r_i_glide_eff_state_penalty>  (103) 
0

>  <ligand_id>  (103) 
30

>  <original_smiles>  (103) 
C=C(C)C1CCC2(C(=O)O)CCC3(C)C(CCC4C5(C)C=C(C#N)C(=O)C(C)(C)C5CCC43C)C12

>  <smiles>  (103) 
[H]C([H])=C(C([H])([H])[H])C1([H])C([H])([H])C([H])([H])C2(C(=O)[O-])C([H])([H])C([H])([H])C3(C([H])([H])[H])C([H])(C([H])([H])C([H])([H])C4([H])C5(C([H])([H])[H])C([H])=C(C#N)C(=O)C(C([H])([H])[H])(C([H])([H])[H])C5([H])C([H])([H])C([H])([H])C43C([H])([H])[H])C12[H]

$$$$
30:0:1
     RDKit          3D

 77 81  0  0  1  0  0  0  0  0999 V2000
   -2.1871    0.6103    6.4293 C   0  0  0  0  0  0  0  0  0  0  0  0
   -1.8783    1.8395    6.8934 C   0  0  0  0  0  0  0  0  0  0  0  0
   -2.9196    2.6439    7.6632 C   0  0  0  0  0  0  0  0  0  0  0  0
   -0.4816    2.4713    6.7227 C   0  0  2  0  0  0  0  0  0  0  0  0
   -0.4446    4.0271    6.7188 C   0  0  0  0  0  0  0  0  0  0  0  0
    0.4073    4.4447    5.5219 C   0  0  0  0  0  0  0  0  0  0  0  0
    0.2554    3.2936    4.5123 C   0  0  1  0  0  0  0  0  0  0  0  0
   -1.1226    3.3604    3.7779 C   0  0  0  0  0  0  0  0  0  0  0  0
   -1.5134    2.3183    3.2115 O   0  0  0  0  0  0  0  0  0  0  0  0
   -1.7725    4.4437    3.8054 O   0  0  0  0  0  0  0  0  0  0  0  0
    1.3493    3.3436    3.4194 C   0  0  0  0  0  0  0  0  0  0  0  0
    2.7297    2.8532    3.8762 C   0  0  0  0  0  0  0  0  0  0  0  0
    2.8110    1.4909    4.6357 C   0  0  1  0  0  0  0  0  0  0  0  0
    4.2081    1.5826    5.3362 C   0  0  0  0  0  0  0  0  0  0  0  0
    1.7396    1.5050    5.7855 C   0  0  2  0  0  0  0  0  0  0  0  0
    1.7096    0.1441    6.5309 C   0  0  0  0  0  0  0  0  0  0  0  0
    1.5815   -1.0915    5.6192 C   0  0  0  0  0  0  0  0  0  0  0  0
    2.7116   -1.1338    4.5655 C   0  0  1  0  0  0  0  0  0  0  0  0
    3.0121   -2.5259    3.8207 C   0  0  1  0  0  0  0  0  0  0  0  0
    4.2883   -3.1206    4.4745 C   0  0  0  0  0  0  0  0  0  0  0  0
    1.9340   -3.5958    4.0190 C   0  0  0  0  0  0  0  0  0  0  0  0
    1.7525   -4.6653    3.2099 C   0  0  0  0  0  0  0  0  0  0  0  0
    0.7359   -5.6017    3.5602 C   0  0  0  0  0  0  0  0  0  0  0  0
   -0.1295   -6.3354    3.7924 N   0  0  0  0  0  0  0  0  0  0  0  0
    2.5997   -4.8480    2.0087 C   0  0  0  0  0  0  0  0  0  0  0  0
    2.6243   -5.9260    1.4151 O   0  0  0  0  0  0  0  0  0  0  0  0
    3.4169   -3.6701    1.4266 C   0  0  0  0  0  0  0  0  0  0  0  0
    4.9086   -4.0848    1.3199 C   0  0  0  0  0  0  0  0  0  0  0  0
    2.8968   -3.4498   -0.0218 C   0  0  0  0  0  0  0  0  0  0  0  0
    3.1728   -2.3690    2.2652 C   0  0  2  0  0  0  0  0  0  0  0  0
    3.9803   -1.1334    1.8088 C   0  0  0  0  0  0  0  0  0  0  0  0
    3.9893    0.0293    2.8101 C   0  0  0  0  0  0  0  0  0  0  0  0
    2.7241    0.1772    3.7003 C   0  0  2  0  0  0  0  0  0  0  0  0
    1.4610    0.2235    2.7905 C   0  0  0  0  0  0  0  0  0  0  0  0
    0.3050    2.0288    5.4352 C   0  0  1  0  0  0  0  0  0  0  0  0
   -3.1831    0.2193    6.5595 H   0  0  0  0  0  0  0  0  0  0  0  0
   -1.4792   -0.0287    5.9154 H   0  0  0  0  0  0  0  0  0  0  0  0
   -3.1352    3.6022    7.2055 H   0  0  0  0  0  0  0  0  0  0  0  0
   -2.6077    2.7897    8.6949 H   0  0  0  0  0  0  0  0  0  0  0  0
   -3.8792    2.1427    7.6777 H   0  0  0  0  0  0  0  0  0  0  0  0
    0.0610    2.1568    7.6142 H   0  0  0  0  0  0  0  0  0  0  0  0
   -1.4217    4.4883    6.5807 H   0  0  0  0  0  0  0  0  0  0  0  0
   -0.0190    4.4201    7.6433 H   0  0  0  0  0  0  0  0  0  0  0  0
    0.1017    5.4118    5.1136 H   0  0  0  0  0  0  0  0  0  0  0  0
    1.4494    4.5406    5.8284 H   0  0  0  0  0  0  0  0  0  0  0  0
    1.0488    2.8285    2.5076 H   0  0  0  0  0  0  0  0  0  0  0  0
    1.4472    4.3798    3.0907 H   0  0  0  0  0  0  0  0  0  0  0  0
    3.3972    2.8549    3.0219 H   0  0  0  0  0  0  0  0  0  0  0  0
    3.1187    3.6420    4.5223 H   0  0  0  0  0  0  0  0  0  0  0  0
    4.4649    0.7217    5.9525 H   0  0  0  0  0  0  0  0  0  0  0  0
    4.2612    2.4444    6.0036 H   0  0  0  0  0  0  0  0  0  0  0  0
    5.0143    1.7315    4.6153 H   0  0  0  0  0  0  0  0  0  0  0  0
    2.0966    2.2285    6.5180 H   0  0  0  0  0  0  0  0  0  0  0  0
    2.6267    0.0431    7.1164 H   0  0  0  0  0  0  0  0  0  0  0  0
    0.9062    0.1201    7.2644 H   0  0  0  0  0  0  0  0  0  0  0  0
    1.6404   -1.9702    6.2668 H   0  0  0  0  0  0  0  0  0  0  0  0
    0.6050   -1.1071    5.1346 H   0  0  0  0  0  0  0  0  0  0  0  0
    3.5902   -1.0237    5.1905 H   0  0  0  0  0  0  0  0  0  0  0  0
    5.1867   -2.5552    4.2224 H   0  0  0  0  0  0  0  0  0  0  0  0
    4.4581   -4.1611    4.2001 H   0  0  0  0  0  0  0  0  0  0  0  0
    4.2009   -3.1293    5.5616 H   0  0  0  0  0  0  0  0  0  0  0  0
    1.2934   -3.5102    4.8834 H   0  0  0  0  0  0  0  0  0  0  0  0
    5.4748   -3.4082    0.6764 H   0  0  0  0  0  0  0  0  0  0  0  0
    5.0163   -5.0761    0.8732 H   0  0  0  0  0  0  0  0  0  0  0  0
    5.4210   -4.1211    2.2789 H   0  0  0  0  0  0  0  0  0  0  0  0
    3.4392   -2.6529   -0.5360 H   0  0  0  0  0  0  0  0  0  0  0  0
    1.8371   -3.1843   -0.0281 H   0  0  0  0  0  0  0  0  0  0  0  0
    3.0049   -4.3498   -0.6317 H   0  0  0  0  0  0  0  0  0  0  0  0
    2.1686   -2.1326    1.9343 H   0  0  0  0  0  0  0  0  0  0  0  0
    5.0097   -1.3897    1.5529 H   0  0  0  0  0  0  0  0  0  0  0  0
    3.5281   -0.7709    0.8863 H   0  0  0  0  0  0  0  0  0  0  0  0
    4.8611   -0.1237    3.4434 H   0  0  0  0  0  0  0  0  0  0  0  0
    4.1691    0.9350    2.2441 H   0  0  0  0  0  0  0  0  0  0  0  0
    1.6865    0.6215    1.8010 H   0  0  0  0  0  0  0  0  0  0  0  0
    0.6720    0.8404    3.1763 H   0  0  0  0  0  0  0  0  0  0  0  0
    0.9569   -0.7329    2.6894 H   0  0  0  0  0  0  0  0  0  0  0  0
   -0.1990    1.2075    4.9452 H   0  0  0  0  0  0  0  0  0  0  0  0
  1  2  2  0
  1 36  1  0
  1 37  1  0
  2  3  1  0
  2  4  1  0
  3 38  1  0
  3 39  1  0
  3 40  1  0
  4 35  1  0
  4  5  1  0
  4 41  1  1
  5  6  1  0
  5 42  1  0
  5 43  1  0
  6  7  1  0
  6 44  1  0
  6 45  1  0
  7 35  1  0
  7  8  1  6
  7 11  1  0
  8  9  2  0
  8 10  1  0
 11 12  1  0
 11 46  1  0
 11 47  1  0
 12 13  1  0
 12 48  1  0
 12 49  1  0
 13 33  1  0
 13 14  1  1
 13 15  1  0
 14 50  1  0
 14 51  1  0
 14 52  1  0
 15 16  1  0
 15 35  1  0
 15 53  1  1
 16 17  1  0
 16 54  1  0
 16 55  1  0
 17 18  1  0
 17 56  1  0
 17 57  1  0
 18 33  1  0
 18 19  1  0
 18 58  1  1
 19 30  1  0
 19 20  1  1
 19 21  1  0
 20 59  1  0
 20 60  1  0
 20 61  1  0
 21 22  2  0
 21 62  1  0
 22 23  1  0
 22 25  1  0
 23 24  3  0
 25 26  2  0
 25 27  1  0
 27 28  1  0
 27 29  1  0
 27 30  1  0
 28 63  1  0
 28 64  1  0
 28 65  1  0
 29 66  1  0
 29 67  1  0
 29 68  1  0
 30 31  1  0
 30 69  1  6
 31 32  1  0
 31 70  1  0
 31 71  1  0
 32 33  1  0
 32 72  1  0
 32 73  1  0
 33 34  1  6
 34 74  1  0
 34 75  1  0
 34 76  1  0
 35 77  1  6
M  CHG  1  10  -1
M  END
>  <i_m_ct_stereo_status>  (104) 
1

>  <s_m_source_file>  (104) 
/var/tmp/pbs.5076255.sched01/tmp7e7yg0hy/0s0dyhj_r.sdf

>  <i_m_source_file_index>  (104) 
45

>  <i_lp_mmshare_version>  (104) 
48012

>  <i_f3d_flags>  (104) 
0

>  <s_epik_input>  (104) 
W0NIMl09QyhbQ0gzXSlbQ0BIXShbQ0gyXVtDSDJdMSlbQ0BASF0oW0NAQF0xMkMoPU8pW09IXSlbQ0BASF0zW0NAXShbQ0gzXSkoW0NIMl1bQ0gyXTIpW0NAXTQoW0NIM10pW0NAQEhdKFtDSDJdW0NIMl0zKVtDQF01KFtDSDNdKVtDQEBIXShbQ0gyXVtDSDJdNClDKFtDSDNdKShbQ0gzXSlDKD1PKUMoPVtDSF01KUMjTg==

>  <s_epik_cmdline>  (104) 
J2VwaWtfcHl0aG9uJywgJy1waHQnLCAnMi4wJywgJy1waCcsICc3LjAnLCAnLXRuJywgJzgnLCAnLW1hJywgJzIwMCcsICctaW1hZScsICc8aW5maWxlLm1hZT4nLCAnLW9tYWUnLCAnPG91dGZpbGUubWFlPic=

>  <r_epik_Ionization_Penalty>  (104) 
0.00754836

>  <r_epik_Ionization_Penalty_Charging>  (104) 
0.00754836

>  <r_epik_Ionization_Penalty_Neutral>  (104) 
0

>  <r_epik_State_Penalty>  (104) 
0.00564459

>  <r_epik_Charging_Adjusted_Penalty>  (104) 
0.013193

>  <i_epik_Tot_Q>  (104) 
-1

>  <i_epik_Tot_abs_Q>  (104) 
1

>  <s_lp_Force_Field>  (104) 
OPLS3e

>  <r_lp_Energy>  (104) 
97.8436

>  <b_lp_Chiralities_Consistent>  (104) 
1

>  <s_lp_Variant>  (104) 
30:0-1

>  <s_i_glide_gridfile>  (104) 
pfpi4k_grid

>  <i_i_glide_lignum>  (104) 
45

>  <i_i_glide_rotatable_bonds>  (104) 
3

>  <r_i_docking_score>  (104) 
-2.44622

>  <r_i_glide_ligand_efficiency>  (104) 
-0.0698919

>  <r_i_glide_ligand_efficiency_sa>  (104) 
-0.228621

>  <r_i_glide_ligand_efficiency_ln>  (104) 
-0.536999

>  <r_i_glide_gscore>  (104) 
-2.44622

>  <r_i_glide_lipo>  (104) 
-0.232568

>  <r_i_glide_hbond>  (104) 
-0.248246

>  <r_i_glide_metal>  (104) 
-0

>  <r_i_glide_rewards>  (104) 
-0.159068

>  <r_i_glide_evdw>  (104) 
-26.3055

>  <r_i_glide_ecoul>  (104) 
-3.12542

>  <r_i_glide_erotb>  (104) 
0.0891294

>  <r_i_glide_esite>  (104) 
-0.111375

>  <r_i_glide_emodel>  (104) 
-32.2086

>  <r_i_glide_energy>  (104) 
-29.431

>  <r_i_glide_einternal>  (104) 
4.15351

>  <r_i_glide_intrahb_reward>  (104) 
-0

>  <i_i_glide_confnum>  (104) 
3

>  <i_i_glide_posenum>  (104) 
2

>  <r_i_glide_eff_state_penalty>  (104) 
0

>  <ligand_id>  (104) 
30

>  <original_smiles>  (104) 
C=C(C)C1CCC2(C(=O)O)CCC3(C)C(CCC4C5(C)C=C(C#N)C(=O)C(C)(C)C5CCC43C)C12

>  <smiles>  (104) 
[H]C([H])=C(C([H])([H])[H])C1([H])C([H])([H])C([H])([H])C2(C(=O)[O-])C([H])([H])C([H])([H])C3(C([H])([H])[H])C([H])(C([H])([H])C([H])([H])C4([H])C5(C([H])([H])[H])C([H])=C(C#N)C(=O)C(C([H])([H])[H])(C([H])([H])[H])C5([H])C([H])([H])C([H])([H])C43C([H])([H])[H])C12[H]

$$$$
30:0:2
     RDKit          3D

 77 81  0  0  1  0  0  0  0  0999 V2000
    1.5190   -3.8326   -1.3209 C   0  0  0  0  0  0  0  0  0  0  0  0
    2.6161   -3.0905   -1.5275 C   0  0  0  0  0  0  0  0  0  0  0  0
    2.7112   -2.2416   -2.7784 C   0  0  0  0  0  0  0  0  0  0  0  0
    3.8186   -3.0089   -0.5673 C   0  0  2  0  0  0  0  0  0  0  0  0
    4.7870   -4.2097   -0.6359 C   0  0  0  0  0  0  0  0  0  0  0  0
    5.0768   -4.6184    0.8150 C   0  0  0  0  0  0  0  0  0  0  0  0
    3.8338   -4.1831    1.6277 C   0  0  1  0  0  0  0  0  0  0  0  0
    2.6915   -5.2275    1.4846 C   0  0  0  0  0  0  0  0  0  0  0  0
    1.6498   -5.0562    2.1648 O   0  0  0  0  0  0  0  0  0  0  0  0
    2.8588   -6.1922    0.7127 O   0  0  0  0  0  0  0  0  0  0  0  0
    4.1329   -4.1182    3.1522 C   0  0  0  0  0  0  0  0  0  0  0  0
    4.9214   -2.8898    3.6049 C   0  0  0  0  0  0  0  0  0  0  0  0
    4.4418   -1.4954    3.0988 C   0  0  1  0  0  0  0  0  0  0  0  0
    5.7100   -0.6104    3.3375 C   0  0  0  0  0  0  0  0  0  0  0  0
    4.2389   -1.5745    1.5431 C   0  0  2  0  0  0  0  0  0  0  0  0
    3.7270   -0.2272    0.9895 C   0  0  0  0  0  0  0  0  0  0  0  0
    2.4846    0.3270    1.7074 C   0  0  0  0  0  0  0  0  0  0  0  0
    2.7281    0.4830    3.2215 C   0  0  1  0  0  0  0  0  0  0  0  0
    1.7300    1.4269    4.0555 C   0  0  1  0  0  0  0  0  0  0  0  0
    2.4792    2.7624    4.3085 C   0  0  0  0  0  0  0  0  0  0  0  0
    0.4484    1.8148    3.2993 C   0  0  0  0  0  0  0  0  0  0  0  0
   -0.6952    2.2284    3.8973 C   0  0  0  0  0  0  0  0  0  0  0  0
   -1.8002    2.6309    3.0806 C   0  0  0  0  0  0  0  0  0  0  0  0
   -2.7364    2.9700    2.4921 N   0  0  0  0  0  0  0  0  0  0  0  0
   -0.7812    2.3215    5.3729 C   0  0  0  0  0  0  0  0  0  0  0  0
   -1.6692    2.9711    5.9128 O   0  0  0  0  0  0  0  0  0  0  0  0
    0.2374    1.5684    6.2730 C   0  0  0  0  0  0  0  0  0  0  0  0
    0.8946    2.5627    7.2625 C   0  0  0  0  0  0  0  0  0  0  0  0
   -0.5997    0.5774    7.1214 C   0  0  0  0  0  0  0  0  0  0  0  0
    1.2566    0.7621    5.3976 C   0  0  2  0  0  0  0  0  0  0  0  0
    2.3502    0.0065    6.1911 C   0  0  0  0  0  0  0  0  0  0  0  0
    3.5155   -0.5243    5.3406 C   0  0  0  0  0  0  0  0  0  0  0  0
    3.1677   -0.8786    3.8661 C   0  0  2  0  0  0  0  0  0  0  0  0
    1.9760   -1.8813    3.8399 C   0  0  0  0  0  0  0  0  0  0  0  0
    3.4638   -2.8153    0.9439 C   0  0  1  0  0  0  0  0  0  0  0  0
    0.6885   -3.7959   -2.0084 H   0  0  0  0  0  0  0  0  0  0  0  0
    1.4348   -4.4687   -0.4690 H   0  0  0  0  0  0  0  0  0  0  0  0
    3.5936   -2.4777   -3.3825 H   0  0  0  0  0  0  0  0  0  0  0  0
    2.7194   -1.1908   -2.4886 H   0  0  0  0  0  0  0  0  0  0  0  0
    1.8267   -2.4027   -3.3955 H   0  0  0  0  0  0  0  0  0  0  0  0
    4.3919   -2.1492   -0.8971 H   0  0  0  0  0  0  0  0  0  0  0  0
    4.3251   -5.0362   -1.1727 H   0  0  0  0  0  0  0  0  0  0  0  0
    5.7090   -3.9651   -1.1569 H   0  0  0  0  0  0  0  0  0  0  0  0
    5.3110   -5.6799    0.9150 H   0  0  0  0  0  0  0  0  0  0  0  0
    5.9667   -4.0790    1.1682 H   0  0  0  0  0  0  0  0  0  0  0  0
    3.2529   -4.1873    3.7882 H   0  0  0  0  0  0  0  0  0  0  0  0
    4.7113   -5.0041    3.4324 H   0  0  0  0  0  0  0  0  0  0  0  0
    4.9898   -2.9021    4.6903 H   0  0  0  0  0  0  0  0  0  0  0  0
    5.9331   -3.0578    3.2493 H   0  0  0  0  0  0  0  0  0  0  0  0
    5.6134    0.4376    3.0534 H   0  0  0  0  0  0  0  0  0  0  0  0
    6.5697   -0.9862    2.7803 H   0  0  0  0  0  0  0  0  0  0  0  0
    6.0134   -0.6325    4.3857 H   0  0  0  0  0  0  0  0  0  0  0  0
    5.2357   -1.6926    1.1306 H   0  0  0  0  0  0  0  0  0  0  0  0
    4.5237    0.5178    1.0533 H   0  0  0  0  0  0  0  0  0  0  0  0
    3.5093   -0.3138   -0.0704 H   0  0  0  0  0  0  0  0  0  0  0  0
    2.2647    1.3026    1.2700 H   0  0  0  0  0  0  0  0  0  0  0  0
    1.6269   -0.3195    1.5095 H   0  0  0  0  0  0  0  0  0  0  0  0
    3.6389    1.0712    3.2307 H   0  0  0  0  0  0  0  0  0  0  0  0
    3.3060    2.6504    5.0156 H   0  0  0  0  0  0  0  0  0  0  0  0
    1.8261    3.5526    4.6804 H   0  0  0  0  0  0  0  0  0  0  0  0
    2.8967    3.1567    3.3819 H   0  0  0  0  0  0  0  0  0  0  0  0
    0.4750    1.8065    2.2239 H   0  0  0  0  0  0  0  0  0  0  0  0
    1.4000    2.0509    8.0843 H   0  0  0  0  0  0  0  0  0  0  0  0
    0.1563    3.2142    7.7350 H   0  0  0  0  0  0  0  0  0  0  0  0
    1.6274    3.2169    6.7955 H   0  0  0  0  0  0  0  0  0  0  0  0
    0.0193    0.0059    7.8161 H   0  0  0  0  0  0  0  0  0  0  0  0
   -1.1327   -0.1300    6.4826 H   0  0  0  0  0  0  0  0  0  0  0  0
   -1.3519    1.0982    7.7215 H   0  0  0  0  0  0  0  0  0  0  0  0
    0.6043   -0.0318    5.0595 H   0  0  0  0  0  0  0  0  0  0  0  0
    2.7428    0.6022    7.0103 H   0  0  0  0  0  0  0  0  0  0  0  0
    1.8703   -0.8567    6.6541 H   0  0  0  0  0  0  0  0  0  0  0  0
    4.2627    0.2728    5.3415 H   0  0  0  0  0  0  0  0  0  0  0  0
    3.9774   -1.3639    5.8557 H   0  0  0  0  0  0  0  0  0  0  0  0
    1.9362   -2.4742    4.7514 H   0  0  0  0  0  0  0  0  0  0  0  0
    2.0219   -2.5776    3.0209 H   0  0  0  0  0  0  0  0  0  0  0  0
    1.0165   -1.4088    3.6709 H   0  0  0  0  0  0  0  0  0  0  0  0
    2.3981   -2.6224    1.0149 H   0  0  0  0  0  0  0  0  0  0  0  0
  1  2  2  0
  1 36  1  0
  1 37  1  0
  2  3  1  0
  2  4  1  0
  3 38  1  0
  3 39  1  0
  3 40  1  0
  4 35  1  0
  4  5  1  0
  4 41  1  6
  5  6  1  0
  5 42  1  0
  5 43  1  0
  6  7  1  0
  6 44  1  0
  6 45  1  0
  7 35  1  0
  7  8  1  1
  7 11  1  0
  8  9  2  0
  8 10  1  0
 11 12  1  0
 11 46  1  0
 11 47  1  0
 12 13  1  0
 12 48  1  0
 12 49  1  0
 13 33  1  0
 13 14  1  6
 13 15  1  0
 14 50  1  0
 14 51  1  0
 14 52  1  0
 15 16  1  0
 15 35  1  0
 15 53  1  6
 16 17  1  0
 16 54  1  0
 16 55  1  0
 17 18  1  0
 17 56  1  0
 17 57  1  0
 18 33  1  0
 18 19  1  0
 18 58  1  6
 19 30  1  0
 19 20  1  1
 19 21  1  0
 20 59  1  0
 20 60  1  0
 20 61  1  0
 21 22  2  0
 21 62  1  0
 22 23  1  0
 22 25  1  0
 23 24  3  0
 25 26  2  0
 25 27  1  0
 27 28  1  0
 27 29  1  0
 27 30  1  0
 28 63  1  0
 28 64  1  0
 28 65  1  0
 29 66  1  0
 29 67  1  0
 29 68  1  0
 30 31  1  0
 30 69  1  6
 31 32  1  0
 31 70  1  0
 31 71  1  0
 32 33  1  0
 32 72  1  0
 32 73  1  0
 33 34  1  1
 34 74  1  0
 34 75  1  0
 34 76  1  0
 35 77  1  6
M  CHG  1  10  -1
M  END
>  <i_m_ct_stereo_status>  (105) 
1

>  <s_m_source_file>  (105) 
/var/tmp/pbs.5076255.sched01/tmp7e7yg0hy/0s0dyhj_r.sdf

>  <i_m_source_file_index>  (105) 
45

>  <i_lp_mmshare_version>  (105) 
48012

>  <i_f3d_flags>  (105) 
0

>  <s_epik_input>  (105) 
W0NIMl09QyhbQ0gzXSlbQ0BIXShbQ0gyXVtDSDJdMSlbQ0BASF0oW0NAQF0xMkMoPU8pW09IXSlbQ0BASF0zW0NAXShbQ0gzXSkoW0NIMl1bQ0gyXTIpW0NAXTQoW0NIM10pW0NAQEhdKFtDSDJdW0NIMl0zKVtDQF01KFtDSDNdKVtDQEBIXShbQ0gyXVtDSDJdNClDKFtDSDNdKShbQ0gzXSlDKD1PKUMoPVtDSF01KUMjTg==

>  <s_epik_cmdline>  (105) 
J2VwaWtfcHl0aG9uJywgJy1waHQnLCAnMi4wJywgJy1waCcsICc3LjAnLCAnLXRuJywgJzgnLCAnLW1hJywgJzIwMCcsICctaW1hZScsICc8aW5maWxlLm1hZT4nLCAnLW9tYWUnLCAnPG91dGZpbGUubWFlPic=

>  <r_epik_Ionization_Penalty>  (105) 
0.00754836

>  <r_epik_Ionization_Penalty_Charging>  (105) 
0.00754836

>  <r_epik_Ionization_Penalty_Neutral>  (105) 
0

>  <r_epik_State_Penalty>  (105) 
0.00564459

>  <r_epik_Charging_Adjusted_Penalty>  (105) 
0.013193

>  <i_epik_Tot_Q>  (105) 
-1

>  <i_epik_Tot_abs_Q>  (105) 
1

>  <s_lp_Force_Field>  (105) 
OPLS3e

>  <r_lp_Energy>  (105) 
97.8436

>  <b_lp_Chiralities_Consistent>  (105) 
1

>  <s_lp_Variant>  (105) 
30:0-1

>  <s_i_glide_gridfile>  (105) 
pfpi4k_grid

>  <i_i_glide_lignum>  (105) 
45

>  <i_i_glide_rotatable_bonds>  (105) 
3

>  <r_i_docking_score>  (105) 
-1.98651

>  <r_i_glide_ligand_efficiency>  (105) 
-0.0567575

>  <r_i_glide_ligand_efficiency_sa>  (105) 
-0.185657

>  <r_i_glide_ligand_efficiency_ln>  (105) 
-0.436083

>  <r_i_glide_gscore>  (105) 
-1.98651

>  <r_i_glide_lipo>  (105) 
-0.307768

>  <r_i_glide_hbond>  (105) 
-0.0250717

>  <r_i_glide_metal>  (105) 
-0

>  <r_i_glide_rewards>  (105) 
-0.159068

>  <r_i_glide_evdw>  (105) 
-30.7878

>  <r_i_glide_ecoul>  (105) 
0.139691

>  <r_i_glide_erotb>  (105) 
0.0891294

>  <r_i_glide_esite>  (105) 
-0.0653002

>  <r_i_glide_emodel>  (105) 
-32.4942

>  <r_i_glide_energy>  (105) 
-30.6481

>  <r_i_glide_einternal>  (105) 
3.23456

>  <r_i_glide_intrahb_reward>  (105) 
-0

>  <i_i_glide_confnum>  (105) 
1

>  <i_i_glide_posenum>  (105) 
28

>  <r_i_glide_eff_state_penalty>  (105) 
0

>  <ligand_id>  (105) 
30

>  <original_smiles>  (105) 
C=C(C)C1CCC2(C(=O)O)CCC3(C)C(CCC4C5(C)C=C(C#N)C(=O)C(C)(C)C5CCC43C)C12

>  <smiles>  (105) 
[H]C([H])=C(C([H])([H])[H])C1([H])C([H])([H])C([H])([H])C2(C(=O)[O-])C([H])([H])C([H])([H])C3(C([H])([H])[H])C([H])(C([H])([H])C([H])([H])C4([H])C5(C([H])([H])[H])C([H])=C(C#N)C(=O)C(C([H])([H])[H])(C([H])([H])[H])C5([H])C([H])([H])C([H])([H])C43C([H])([H])[H])C12[H]

$$$$
31:0:0
     RDKit          3D

105115  0  0  1  0  0  0  0  0999 V2000
    4.6510   -7.4257    7.4250 C   0  0  0  0  0  0  0  0  0  0  0  0
    3.7124   -6.8174    8.1715 C   0  0  0  0  0  0  0  0  0  0  0  0
    3.7909   -7.2234    9.6530 C   0  0  0  0  0  0  0  0  0  0  0  0
    2.5566   -5.7760    7.7679 C   0  0  2  0  0  0  0  0  0  0  0  0
    1.4485   -6.8571    7.6444 C   0  0  1  0  0  0  0  0  0  0  0  0
    0.0802   -6.2710    8.1964 C   0  0  0  0  0  0  0  0  0  0  0  0
   -0.2930   -4.8791    7.6159 C   0  0  2  0  0  0  0  0  0  0  0  0
   -1.8269   -4.6716    7.5412 C   0  0  0  0  0  0  0  0  0  0  0  0
    0.3109   -5.0464    6.2657 C   0  0  0  0  0  0  0  0  0  0  0  0
    1.9543   -5.0383    6.3805 C   0  0  2  0  0  0  0  0  0  0  0  0
    2.3124   -6.1071    5.4231 C   0  0  2  0  0  0  0  0  0  0  0  0
    2.6985   -5.7201    3.9500 C   0  0  1  0  0  0  0  0  0  0  0  0
    1.7492   -4.6327    3.3873 C   0  0  0  0  0  0  0  0  0  0  0  0
    1.1900   -3.4845    3.8617 C   0  0  0  0  0  0  0  0  0  0  0  0
    1.2515   -2.7307    5.2236 C   0  0  1  0  0  0  0  0  0  0  0  0
   -0.0146   -2.3062    5.7529 O   0  0  0  0  0  0  0  0  0  0  0  0
   -0.8520   -1.5349    4.9038 C   0  0  0  0  0  0  0  0  0  0  0  0
    2.2144   -3.4270    6.3083 C   0  0  2  0  0  0  0  0  0  0  0  0
    3.5184   -2.5108    5.9482 C   0  0  1  0  0  0  0  0  0  0  0  0
    3.4431   -1.1199    6.6381 C   0  0  0  0  0  0  0  0  0  0  0  0
    4.9355   -3.0579    5.8326 C   0  0  2  0  0  0  0  0  0  0  0  0
    6.0614   -2.0839    6.2578 C   0  0  0  0  0  0  0  0  0  0  0  0
    5.2718   -3.3864    4.4567 O   0  0  0  0  0  0  0  0  0  0  0  0
    5.3141   -4.8071    4.7162 C   0  0  2  0  0  0  0  0  0  0  0  0
    6.5815   -5.3652    4.3713 O   0  0  0  0  0  0  0  0  0  0  0  0
    6.4278   -5.9894    3.0807 C   0  0  2  0  0  0  0  0  0  0  0  0
    6.0845   -4.8909    2.0594 C   0  0  0  0  0  0  0  0  0  0  0  0
    4.5473   -4.7723    2.1854 C   0  0  1  0  0  0  0  0  0  0  0  0
    4.1156   -3.2833    2.0064 C   0  0  0  0  0  0  0  0  0  0  0  0
    3.9171   -5.5145    0.9670 C   0  0  0  0  0  0  0  0  0  0  0  0
    4.4780   -6.9036    0.7409 C   0  0  0  0  0  0  0  0  0  0  0  0
    4.6345   -7.6379    2.0533 C   0  0  0  0  0  0  0  0  0  0  0  0
    5.1326   -6.7999    3.2701 C   0  0  1  0  0  0  0  0  0  0  0  0
    5.4128   -7.8988    4.3118 C   0  0  0  0  0  0  0  0  0  0  0  0
    4.3057   -5.4904    3.6172 C   0  0  2  0  0  0  0  0  0  0  0  0
    5.0588   -4.4565    6.2286 C   0  0  1  0  0  0  0  0  0  0  0  0
    5.5682   -4.5837    7.6762 C   0  0  0  0  0  0  0  0  0  0  0  0
    4.4017   -4.0951    8.6869 C   0  0  0  0  0  0  0  0  0  0  0  0
    2.8102   -4.4615    8.5937 C   0  0  2  0  0  0  0  0  0  0  0  0
    2.3447   -4.6365    9.9448 O   0  0  0  0  0  0  0  0  0  0  0  0
    2.4561   -3.5282   10.8481 C   0  0  0  0  0  0  0  0  0  0  0  0
    1.9052   -3.3588    7.8781 C   0  0  2  0  0  0  0  0  0  0  0  0
    0.4079   -3.6443    8.2381 C   0  0  0  0  0  0  0  0  0  0  0  0
   -0.2226   -2.8497    8.9650 O   0  0  0  0  0  0  0  0  0  0  0  0
    1.6830   -7.3082    6.1466 N   0  0  2  0  0  0  0  0  0  0  0  0
    0.7248   -8.2339    5.4541 C   0  0  0  0  0  0  0  0  0  0  0  0
    1.4507   -9.0982    4.3940 C   0  0  0  0  0  0  0  0  0  0  0  0
    5.3259   -8.1730    7.8313 H   0  0  0  0  0  0  0  0  0  0  0  0
    4.7839   -7.1512    6.4307 H   0  0  0  0  0  0  0  0  0  0  0  0
    2.8970   -7.6951   10.0584 H   0  0  0  0  0  0  0  0  0  0  0  0
    4.0628   -6.3875   10.3015 H   0  0  0  0  0  0  0  0  0  0  0  0
    4.6063   -7.9361    9.7865 H   0  0  0  0  0  0  0  0  0  0  0  0
    1.5958   -7.7338    8.2797 H   0  0  0  0  0  0  0  0  0  0  0  0
   -0.7256   -7.0000    8.0802 H   0  0  0  0  0  0  0  0  0  0  0  0
    0.1548   -6.1581    9.2797 H   0  0  0  0  0  0  0  0  0  0  0  0
   -2.3064   -5.4307    6.9254 H   0  0  0  0  0  0  0  0  0  0  0  0
   -2.0762   -3.7100    7.0907 H   0  0  0  0  0  0  0  0  0  0  0  0
   -2.2950   -4.7052    8.5298 H   0  0  0  0  0  0  0  0  0  0  0  0
   -0.1594   -5.9403    5.8867 H   0  0  0  0  0  0  0  0  0  0  0  0
   -0.2317   -4.4852    5.5305 H   0  0  0  0  0  0  0  0  0  0  0  0
    3.2758   -6.5019    5.5897 H   0  0  0  0  0  0  0  0  0  0  0  0
    2.4228   -6.5527    3.3204 H   0  0  0  0  0  0  0  0  0  0  0  0
    1.4515   -4.8782    2.3832 H   0  0  0  0  0  0  0  0  0  0  0  0
    0.5679   -2.9806    3.1362 H   0  0  0  0  0  0  0  0  0  0  0  0
    1.5697   -1.7388    4.9079 H   0  0  0  0  0  0  0  0  0  0  0  0
   -1.7090   -1.1859    5.4771 H   0  0  0  0  0  0  0  0  0  0  0  0
   -1.2484   -2.1400    4.0936 H   0  0  0  0  0  0  0  0  0  0  0  0
   -0.3413   -0.6656    4.4871 H   0  0  0  0  0  0  0  0  0  0  0  0
    3.4522   -2.2169    4.9062 H   0  0  0  0  0  0  0  0  0  0  0  0
    3.8062   -1.1464    7.6623 H   0  0  0  0  0  0  0  0  0  0  0  0
    2.4238   -0.7410    6.6731 H   0  0  0  0  0  0  0  0  0  0  0  0
    4.0241   -0.3736    6.0985 H   0  0  0  0  0  0  0  0  0  0  0  0
    5.9828   -1.7870    7.3078 H   0  0  0  0  0  0  0  0  0  0  0  0
    6.0813   -1.1783    5.6538 H   0  0  0  0  0  0  0  0  0  0  0  0
    7.0398   -2.5575    6.1546 H   0  0  0  0  0  0  0  0  0  0  0  0
    7.2936   -6.5859    2.7947 H   0  0  0  0  0  0  0  0  0  0  0  0
    6.5972   -3.9659    2.3089 H   0  0  0  0  0  0  0  0  0  0  0  0
    6.4170   -5.1376    1.0531 H   0  0  0  0  0  0  0  0  0  0  0  0
    3.3615   -3.1562    1.2321 H   0  0  0  0  0  0  0  0  0  0  0  0
    4.9486   -2.6349    1.7340 H   0  0  0  0  0  0  0  0  0  0  0  0
    3.6648   -2.8598    2.8920 H   0  0  0  0  0  0  0  0  0  0  0  0
    2.8412   -5.5910    1.0503 H   0  0  0  0  0  0  0  0  0  0  0  0
    4.0914   -4.9525    0.0491 H   0  0  0  0  0  0  0  0  0  0  0  0
    3.8425   -7.4774    0.0765 H   0  0  0  0  0  0  0  0  0  0  0  0
    5.4223   -6.8540    0.2100 H   0  0  0  0  0  0  0  0  0  0  0  0
    3.6841   -8.1075    2.2976 H   0  0  0  0  0  0  0  0  0  0  0  0
    5.3100   -8.4678    1.8523 H   0  0  0  0  0  0  0  0  0  0  0  0
    4.4871   -8.3006    4.7282 H   0  0  0  0  0  0  0  0  0  0  0  0
    6.1217   -7.5818    5.0752 H   0  0  0  0  0  0  0  0  0  0  0  0
    5.9316   -8.7493    3.8708 H   0  0  0  0  0  0  0  0  0  0  0  0
    4.1582   -4.9101    6.2476 H   0  0  0  0  0  0  0  0  0  0  0  0
    6.0193   -5.5462    7.9293 H   0  0  0  0  0  0  0  0  0  0  0  0
    6.4357   -3.9406    7.8490 H   0  0  0  0  0  0  0  0  0  0  0  0
    4.7541   -4.4296    9.6592 H   0  0  0  0  0  0  0  0  0  0  0  0
    4.4453   -3.0078    8.7511 H   0  0  0  0  0  0  0  0  0  0  0  0
    1.9515   -3.7675   11.7855 H   0  0  0  0  0  0  0  0  0  0  0  0
    1.9950   -2.6154   10.4704 H   0  0  0  0  0  0  0  0  0  0  0  0
    3.4923   -3.2965   11.0927 H   0  0  0  0  0  0  0  0  0  0  0  0
    2.1121   -2.3715    8.2710 H   0  0  0  0  0  0  0  0  0  0  0  0
    0.2833   -8.9065    6.2026 H   0  0  0  0  0  0  0  0  0  0  0  0
   -0.1045   -7.7165    4.9543 H   0  0  0  0  0  0  0  0  0  0  0  0
    0.7123   -9.7450    3.9109 H   0  0  0  0  0  0  0  0  0  0  0  0
    2.2421   -9.7276    4.8316 H   0  0  0  0  0  0  0  0  0  0  0  0
    1.8880   -8.4936    3.5942 H   0  0  0  0  0  0  0  0  0  0  0  0
    2.4862   -7.9039    6.2781 H   0  0  0  0  0  0  0  0  0  0  0  0
  1  2  2  0
  1 48  1  0
  1 49  1  0
  2  3  1  0
  4  2  1  6
  3 50  1  0
  3 51  1  0
  3 52  1  0
  4 10  1  0
  4 39  1  0
  4  5  1  0
  5 45  1  0
  5  6  1  0
  5 53  1  1
  6  7  1  0
  6 54  1  0
  6 55  1  0
  7 43  1  0
  7  8  1  6
  7  9  1  0
  8 56  1  0
  8 57  1  0
  8 58  1  0
 10  9  1  1
  9 59  1  0
  9 60  1  0
 18 10  1  6
 10 11  1  0
 11 12  1  0
 11 45  1  0
 11 61  1  1
 12 35  1  0
 12 13  1  0
 12 62  1  6
 13 14  2  0
 13 63  1  0
 14 15  1  0
 14 64  1  0
 15 16  1  0
 15 18  1  0
 15 65  1  6
 16 17  1  0
 17 66  1  0
 17 67  1  0
 17 68  1  0
 18 42  1  0
 18 19  1  0
 19 20  1  0
 19 21  1  0
 19 69  1  6
 20 70  1  0
 20 71  1  0
 20 72  1  0
 21 36  1  0
 21 22  1  1
 21 23  1  0
 22 73  1  0
 22 74  1  0
 22 75  1  0
 24 23  1  6
 24 35  1  0
 24 25  1  0
 24 36  1  0
 25 26  1  0
 26 33  1  0
 26 27  1  0
 26 76  1  6
 27 28  1  0
 27 77  1  0
 27 78  1  0
 35 28  1  6
 28 29  1  1
 28 30  1  0
 29 79  1  0
 29 80  1  0
 29 81  1  0
 30 31  1  0
 30 82  1  0
 30 83  1  0
 31 32  1  0
 31 84  1  0
 31 85  1  0
 32 33  1  0
 32 86  1  0
 32 87  1  0
 33 34  1  1
 33 35  1  0
 34 88  1  0
 34 89  1  0
 34 90  1  0
 36 37  1  0
 36 91  1  1
 37 38  1  0
 37 92  1  0
 37 93  1  0
 38 39  1  0
 38 94  1  0
 38 95  1  0
 39 40  1  1
 39 42  1  0
 40 41  1  0
 41 96  1  0
 41 97  1  0
 41 98  1  0
 42 43  1  0
 42 99  1  1
 43 44  2  0
 45 46  1  0
 45105  1  1
 46 47  1  0
 46100  1  0
 46101  1  0
 47102  1  0
 47103  1  0
 47104  1  0
M  CHG  1  45   1
M  END
>  <i_m_ct_stereo_status>  (106) 
1

>  <s_m_source_file>  (106) 
/var/tmp/pbs.5076255.sched01/tmpqm933_o1/456x1pmp19.sdf

>  <i_m_source_file_index>  (106) 
1

>  <i_lp_mmshare_version>  (106) 
48012

>  <i_f3d_flags>  (106) 
0

>  <s_epik_input>  (106) 
W0NAXTEyM1tDQF00NVtDQEBIXTZbQ0BAXTcoT1tDSDNdKVtDQEBdMShDKD1bQ0gyXSlbQ0gzXSlbQ0BASF0oW0NIMl1bQ0BdKFtDSDNdKShbQ0gyXTIpQzY9TylOKFtDSDJdW0NIM10pW0NASF0zW0NAQEhdKFtDSF09W0NIXVtDQEhdNE9bQ0gzXSlbQ0BdODlbQ0BAXTEoW0NAQEhdKFtDSDJdW0NIMl03KVtDQF0oTzEpKFtDSDNdKVtDQEBIXTVbQ0gzXSlPW0NASF0xW0NAXTkoW0NIM10pW0NIMl1bQ0gyXVtDSDJdW0NAQF04KFtDSDJdMSlbQ0gzXQ==

>  <s_epik_cmdline>  (106) 
J2VwaWtfcHl0aG9uJywgJy1waHQnLCAnMi4wJywgJy1waCcsICc3LjAnLCAnLXRuJywgJzgnLCAnLW1hJywgJzIwMCcsICctaW1hZScsICc8aW5maWxlLm1hZT4nLCAnLW9tYWUnLCAnPG91dGZpbGUubWFlPic=

>  <r_lp_tautomer_probability>  (106) 
0.99995

>  <r_epik_Ionization_Penalty>  (106) 
0.0115294

>  <r_epik_Ionization_Penalty_Charging>  (106) 
0.0115294

>  <r_epik_Ionization_Penalty_Neutral>  (106) 
1.59555e-11

>  <r_epik_State_Penalty>  (106) 
0.0088777

>  <r_epik_Charging_Adjusted_Penalty>  (106) 
0.0204071

>  <i_epik_Tot_Q>  (106) 
1

>  <i_epik_Tot_abs_Q>  (106) 
1

>  <s_lp_Force_Field>  (106) 
OPLS3e

>  <r_lp_Energy>  (106) 
421.231

>  <b_lp_Chiralities_Consistent>  (106) 
1

>  <s_lp_Variant>  (106) 
31:0-1

>  <s_i_glide_gridfile>  (106) 
pfpi4k_grid

>  <i_i_glide_lignum>  (106) 
1

>  <i_i_glide_rotatable_bonds>  (106) 
4

>  <r_i_docking_score>  (106) 
-2.09386

>  <r_i_glide_ligand_efficiency>  (106) 
-0.0445503

>  <r_i_glide_ligand_efficiency_sa>  (106) 
-0.160774

>  <r_i_glide_ligand_efficiency_ln>  (106) 
-0.431711

>  <r_i_glide_gscore>  (106) 
-2.09386

>  <r_i_glide_lipo>  (106) 
-0.384459

>  <r_i_glide_hbond>  (106) 
-0.16

>  <r_i_glide_metal>  (106) 
-0

>  <r_i_glide_rewards>  (106) 
-0.000801602

>  <r_i_glide_evdw>  (106) 
-17.8137

>  <r_i_glide_ecoul>  (106) 
-4.58818

>  <r_i_glide_erotb>  (106) 
0.0510002

>  <r_i_glide_esite>  (106) 
-0.0206903

>  <r_i_glide_emodel>  (106) 
-24.3624

>  <r_i_glide_energy>  (106) 
-22.4019

>  <r_i_glide_einternal>  (106) 
0.171155

>  <r_i_glide_intrahb_reward>  (106) 
-0

>  <i_i_glide_confnum>  (106) 
3

>  <i_i_glide_posenum>  (106) 
8

>  <r_i_glide_eff_state_penalty>  (106) 
0

>  <ligand_id>  (106) 
31

>  <original_smiles>  (106) 
C=C(C)C12C3CC4(C)CC15C(C1C=CC(OC)C56C(C)C5(C)OC7(OC8CC9(C)CCCC8(C)C197)C5CCC2(OC)C6C4=O)N3CC

>  <smiles>  (106) 
[H]C([H])=C(C([H])([H])[H])C12C3(OC([H])([H])[H])C([H])([H])C([H])([H])C4([H])C56OC7([H])C([H])([H])C8(C([H])([H])[H])C([H])([H])C([H])([H])C([H])([H])C7(C([H])([H])[H])C58C5([H])C([H])=C([H])C([H])(OC([H])([H])[H])C7(C3([H])C(=O)C3(C([H])([H])[H])C([H])([H])C17C5([H])[N+]([H])(C([H])([H])C([H])([H])[H])C2([H])C3([H])[H])C([H])(C([H])([H])[H])C4(C([H])([H])[H])O6

$$$$
31:0:1
     RDKit          3D

105115  0  0  1  0  0  0  0  0999 V2000
    4.4215   -7.6573    7.8840 C   0  0  0  0  0  0  0  0  0  0  0  0
    3.4659   -6.9557    8.5455 C   0  0  0  0  0  0  0  0  0  0  0  0
    3.4779   -7.2305   10.0480 C   0  0  0  0  0  0  0  0  0  0  0  0
    2.3778   -5.9149    7.9991 C   0  0  2  0  0  0  0  0  0  0  0  0
    1.2293   -6.9459    7.9639 C   0  0  1  0  0  0  0  0  0  0  0  0
   -0.1295   -6.2718    8.3895 C   0  0  0  0  0  0  0  0  0  0  0  0
   -0.4228   -4.9272    7.6814 C   0  0  2  0  0  0  0  0  0  0  0  0
   -1.9453   -4.6643    7.5420 C   0  0  0  0  0  0  0  0  0  0  0  0
    0.2021   -5.2331    6.3809 C   0  0  0  0  0  0  0  0  0  0  0  0
    1.8447   -5.2863    6.5395 C   0  0  2  0  0  0  0  0  0  0  0  0
    2.1945   -6.4536    5.7106 C   0  0  2  0  0  0  0  0  0  0  0  0
    2.6147   -6.2406    4.2180 C   0  0  1  0  0  0  0  0  0  0  0  0
    1.7341   -5.1757    3.5264 C   0  0  0  0  0  0  0  0  0  0  0  0
    1.2211   -3.9601    3.8723 C   0  0  0  0  0  0  0  0  0  0  0  0
    1.2685   -3.0789    5.1424 C   0  0  1  0  0  0  0  0  0  0  0  0
   -0.0429   -2.5865    5.4911 O   0  0  0  0  0  0  0  0  0  0  0  0
   -0.1307   -1.2487    5.9700 C   0  0  0  0  0  0  0  0  0  0  0  0
    2.1780   -3.6987    6.3254 C   0  0  2  0  0  0  0  0  0  0  0  0
    3.5343   -2.8871    5.9072 C   0  0  1  0  0  0  0  0  0  0  0  0
    3.5453   -1.4257    6.4431 C   0  0  0  0  0  0  0  0  0  0  0  0
    4.9238   -3.5005    5.8948 C   0  0  2  0  0  0  0  0  0  0  0  0
    6.0818   -2.5314    6.2435 C   0  0  0  0  0  0  0  0  0  0  0  0
    5.2509   -3.9733    4.5587 O   0  0  0  0  0  0  0  0  0  0  0  0
    5.2564   -5.3577    4.9504 C   0  0  2  0  0  0  0  0  0  0  0  0
    6.5112   -5.9659    4.6842 O   0  0  0  0  0  0  0  0  0  0  0  0
    6.3573   -6.7346    3.4765 C   0  0  2  0  0  0  0  0  0  0  0  0
    6.0937   -5.7368    2.3449 C   0  0  0  0  0  0  0  0  0  0  0  0
    4.5550   -5.5480    2.4119 C   0  0  1  0  0  0  0  0  0  0  0  0
    4.1861   -4.0681    2.0715 C   0  0  0  0  0  0  0  0  0  0  0  0
    3.9246   -6.3885    1.2506 C   0  0  0  0  0  0  0  0  0  0  0  0
    4.4309   -7.8183    1.1730 C   0  0  0  0  0  0  0  0  0  0  0  0
    4.5206   -8.4142    2.5603 C   0  0  0  0  0  0  0  0  0  0  0  0
    5.0201   -7.4740    3.7081 C   0  0  1  0  0  0  0  0  0  0  0  0
    5.2317   -8.4719    4.8598 C   0  0  0  0  0  0  0  0  0  0  0  0
    4.2388   -6.1097    3.9057 C   0  0  2  0  0  0  0  0  0  0  0  0
    4.9794   -4.8495    6.4178 C   0  0  1  0  0  0  0  0  0  0  0  0
    5.4366   -4.8460    7.8856 C   0  0  0  0  0  0  0  0  0  0  0  0
    4.2667   -4.2241    8.8100 C   0  0  0  0  0  0  0  0  0  0  0  0
    2.6647   -4.5389    8.7069 C   0  0  2  0  0  0  0  0  0  0  0  0
    2.1576   -4.5576   10.0657 O   0  0  0  0  0  0  0  0  0  0  0  0
    2.2938   -3.3618   10.8468 C   0  0  0  0  0  0  0  0  0  0  0  0
    1.8338   -3.4703    7.8615 C   0  0  2  0  0  0  0  0  0  0  0  0
    0.3179   -3.6705    8.2090 C   0  0  0  0  0  0  0  0  0  0  0  0
   -0.2904   -2.8105    8.8580 O   0  0  0  0  0  0  0  0  0  0  0  0
    1.4810   -7.5561    6.5233 N   0  0  2  0  0  0  0  0  0  0  0  0
    0.5017   -8.5163    5.8871 C   0  0  0  0  0  0  0  0  0  0  0  0
    1.2269   -9.5376    5.0078 C   0  0  0  0  0  0  0  0  0  0  0  0
    5.0488   -8.4129    8.3813 H   0  0  0  0  0  0  0  0  0  0  0  0
    4.5773   -7.4835    6.8671 H   0  0  0  0  0  0  0  0  0  0  0  0
    2.5637   -7.6214   10.4684 H   0  0  0  0  0  0  0  0  0  0  0  0
    3.7629   -6.3514   10.6289 H   0  0  0  0  0  0  0  0  0  0  0  0
    4.2551   -7.9516   10.2786 H   0  0  0  0  0  0  0  0  0  0  0  0
    1.3191   -7.7667    8.6704 H   0  0  0  0  0  0  0  0  0  0  0  0
   -0.9700   -6.9626    8.2638 H   0  0  0  0  0  0  0  0  0  0  0  0
   -0.0955   -6.0669    9.4511 H   0  0  0  0  0  0  0  0  0  0  0  0
   -2.4444   -5.4420    6.9862 H   0  0  0  0  0  0  0  0  0  0  0  0
   -2.1458   -3.7425    6.9959 H   0  0  0  0  0  0  0  0  0  0  0  0
   -2.4416   -4.5875    8.5156 H   0  0  0  0  0  0  0  0  0  0  0  0
   -0.2930   -6.1365    6.0762 H   0  0  0  0  0  0  0  0  0  0  0  0
   -0.2943   -4.7463    5.5682 H   0  0  0  0  0  0  0  0  0  0  0  0
    3.1212   -6.8734    5.9312 H   0  0  0  0  0  0  0  0  0  0  0  0
    2.3165   -7.1267    3.6615 H   0  0  0  0  0  0  0  0  0  0  0  0
    1.4430   -5.5013    2.5457 H   0  0  0  0  0  0  0  0  0  0  0  0
    0.6209   -3.4862    3.1118 H   0  0  0  0  0  0  0  0  0  0  0  0
    1.6500   -2.1613    4.6881 H   0  0  0  0  0  0  0  0  0  0  0  0
   -1.1404   -1.0567    6.3312 H   0  0  0  0  0  0  0  0  0  0  0  0
    0.1036   -0.5339    5.1805 H   0  0  0  0  0  0  0  0  0  0  0  0
    0.5173   -1.0733    6.8242 H   0  0  0  0  0  0  0  0  0  0  0  0
    3.4985   -2.6911    4.8341 H   0  0  0  0  0  0  0  0  0  0  0  0
    3.8561   -1.3665    7.4889 H   0  0  0  0  0  0  0  0  0  0  0  0
    2.5704   -0.9560    6.3668 H   0  0  0  0  0  0  0  0  0  0  0  0
    4.1977   -0.7753    5.8525 H   0  0  0  0  0  0  0  0  0  0  0  0
    5.9902   -2.1365    7.2513 H   0  0  0  0  0  0  0  0  0  0  0  0
    6.1377   -1.6800    5.5715 H   0  0  0  0  0  0  0  0  0  0  0  0
    7.0438   -3.0388    6.2006 H   0  0  0  0  0  0  0  0  0  0  0  0
    7.2057   -7.3921    3.2801 H   0  0  0  0  0  0  0  0  0  0  0  0
    6.6556   -4.8232    2.5201 H   0  0  0  0  0  0  0  0  0  0  0  0
    6.4324   -6.0991    1.3790 H   0  0  0  0  0  0  0  0  0  0  0  0
    3.4574   -3.9960    1.2698 H   0  0  0  0  0  0  0  0  0  0  0  0
    5.0524   -3.4875    1.7631 H   0  0  0  0  0  0  0  0  0  0  0  0
    3.7348   -3.5437    2.8971 H   0  0  0  0  0  0  0  0  0  0  0  0
    2.8442   -6.4117    1.3170 H   0  0  0  0  0  0  0  0  0  0  0  0
    4.1396   -5.9222    0.2892 H   0  0  0  0  0  0  0  0  0  0  0  0
    3.7750   -8.4258    0.5530 H   0  0  0  0  0  0  0  0  0  0  0  0
    5.4022   -7.8664    0.6865 H   0  0  0  0  0  0  0  0  0  0  0  0
    3.5455   -8.8165    2.8253 H   0  0  0  0  0  0  0  0  0  0  0  0
    5.1638   -9.2901    2.4689 H   0  0  0  0  0  0  0  0  0  0  0  0
    4.2857   -8.7964    5.2929 H   0  0  0  0  0  0  0  0  0  0  0  0
    5.9319   -8.1058    5.6069 H   0  0  0  0  0  0  0  0  0  0  0  0
    5.7220   -9.3859    4.5224 H   0  0  0  0  0  0  0  0  0  0  0  0
    4.0605   -5.2520    6.4430 H   0  0  0  0  0  0  0  0  0  0  0  0
    5.8551   -5.7840    8.2487 H   0  0  0  0  0  0  0  0  0  0  0  0
    6.3266   -4.2276    8.0196 H   0  0  0  0  0  0  0  0  0  0  0  0
    4.5800   -4.4737    9.8189 H   0  0  0  0  0  0  0  0  0  0  0  0
    4.3552   -3.1419    8.7689 H   0  0  0  0  0  0  0  0  0  0  0  0
    1.7569   -3.4850   11.7826 H   0  0  0  0  0  0  0  0  0  0  0  0
    1.8814   -2.4770   10.3649 H   0  0  0  0  0  0  0  0  0  0  0  0
    3.3303   -3.1485   11.0950 H   0  0  0  0  0  0  0  0  0  0  0  0
    2.0706   -2.4621    8.1642 H   0  0  0  0  0  0  0  0  0  0  0  0
   -0.0137   -9.0495    6.6718 H   0  0  0  0  0  0  0  0  0  0  0  0
   -0.2444   -8.0335    5.2770 H   0  0  0  0  0  0  0  0  0  0  0  0
    0.4895  -10.1926    4.5507 H   0  0  0  0  0  0  0  0  0  0  0  0
    1.9515  -10.1526    5.5583 H   0  0  0  0  0  0  0  0  0  0  0  0
    1.7579   -9.0783    4.1705 H   0  0  0  0  0  0  0  0  0  0  0  0
    2.2552   -8.1745    6.7307 H   0  0  0  0  0  0  0  0  0  0  0  0
  1  2  2  0
  1 48  1  0
  1 49  1  0
  2  3  1  0
  4  2  1  6
  3 50  1  0
  3 51  1  0
  3 52  1  0
  4 10  1  0
  4 39  1  0
  4  5  1  0
  5 45  1  0
  5  6  1  0
  5 53  1  1
  6  7  1  0
  6 54  1  0
  6 55  1  0
  7 43  1  0
  7  8  1  6
  7  9  1  0
  8 56  1  0
  8 57  1  0
  8 58  1  0
 10  9  1  1
  9 59  1  0
  9 60  1  0
 18 10  1  6
 10 11  1  0
 11 12  1  0
 11 45  1  0
 11 61  1  1
 12 35  1  0
 12 13  1  0
 12 62  1  6
 13 14  2  0
 13 63  1  0
 14 15  1  0
 14 64  1  0
 15 16  1  0
 15 18  1  0
 15 65  1  6
 16 17  1  0
 17 66  1  0
 17 67  1  0
 17 68  1  0
 18 42  1  0
 18 19  1  0
 19 20  1  0
 19 21  1  0
 19 69  1  6
 20 70  1  0
 20 71  1  0
 20 72  1  0
 21 36  1  0
 21 22  1  1
 21 23  1  0
 22 73  1  0
 22 74  1  0
 22 75  1  0
 24 23  1  6
 24 35  1  0
 24 25  1  0
 24 36  1  0
 25 26  1  0
 26 33  1  0
 26 27  1  0
 26 76  1  6
 27 28  1  0
 27 77  1  0
 27 78  1  0
 35 28  1  6
 28 29  1  1
 28 30  1  0
 29 79  1  0
 29 80  1  0
 29 81  1  0
 30 31  1  0
 30 82  1  0
 30 83  1  0
 31 32  1  0
 31 84  1  0
 31 85  1  0
 32 33  1  0
 32 86  1  0
 32 87  1  0
 33 34  1  1
 33 35  1  0
 34 88  1  0
 34 89  1  0
 34 90  1  0
 36 37  1  0
 36 91  1  1
 37 38  1  0
 37 92  1  0
 37 93  1  0
 38 39  1  0
 38 94  1  0
 38 95  1  0
 39 40  1  1
 39 42  1  0
 40 41  1  0
 41 96  1  0
 41 97  1  0
 41 98  1  0
 42 43  1  0
 42 99  1  1
 43 44  2  0
 45 46  1  0
 45105  1  1
 46 47  1  0
 46100  1  0
 46101  1  0
 47102  1  0
 47103  1  0
 47104  1  0
M  CHG  1  45   1
M  END
>  <i_m_ct_stereo_status>  (107) 
1

>  <s_m_source_file>  (107) 
/var/tmp/pbs.5076255.sched01/tmpqm933_o1/456x1pmp19.sdf

>  <i_m_source_file_index>  (107) 
1

>  <i_lp_mmshare_version>  (107) 
48012

>  <i_f3d_flags>  (107) 
0

>  <s_epik_input>  (107) 
W0NAXTEyM1tDQF00NVtDQEBIXTZbQ0BAXTcoT1tDSDNdKVtDQEBdMShDKD1bQ0gyXSlbQ0gzXSlbQ0BASF0oW0NIMl1bQ0BdKFtDSDNdKShbQ0gyXTIpQzY9TylOKFtDSDJdW0NIM10pW0NASF0zW0NAQEhdKFtDSF09W0NIXVtDQEhdNE9bQ0gzXSlbQ0BdODlbQ0BAXTEoW0NAQEhdKFtDSDJdW0NIMl03KVtDQF0oTzEpKFtDSDNdKVtDQEBIXTVbQ0gzXSlPW0NASF0xW0NAXTkoW0NIM10pW0NIMl1bQ0gyXVtDSDJdW0NAQF04KFtDSDJdMSlbQ0gzXQ==

>  <s_epik_cmdline>  (107) 
J2VwaWtfcHl0aG9uJywgJy1waHQnLCAnMi4wJywgJy1waCcsICc3LjAnLCAnLXRuJywgJzgnLCAnLW1hJywgJzIwMCcsICctaW1hZScsICc8aW5maWxlLm1hZT4nLCAnLW9tYWUnLCAnPG91dGZpbGUubWFlPic=

>  <r_lp_tautomer_probability>  (107) 
0.99995

>  <r_epik_Ionization_Penalty>  (107) 
0.0115294

>  <r_epik_Ionization_Penalty_Charging>  (107) 
0.0115294

>  <r_epik_Ionization_Penalty_Neutral>  (107) 
1.59555e-11

>  <r_epik_State_Penalty>  (107) 
0.0088777

>  <r_epik_Charging_Adjusted_Penalty>  (107) 
0.0204071

>  <i_epik_Tot_Q>  (107) 
1

>  <i_epik_Tot_abs_Q>  (107) 
1

>  <s_lp_Force_Field>  (107) 
OPLS3e

>  <r_lp_Energy>  (107) 
421.231

>  <b_lp_Chiralities_Consistent>  (107) 
1

>  <s_lp_Variant>  (107) 
31:0-1

>  <s_i_glide_gridfile>  (107) 
pfpi4k_grid

>  <i_i_glide_lignum>  (107) 
1

>  <i_i_glide_rotatable_bonds>  (107) 
4

>  <r_i_docking_score>  (107) 
-1.87123

>  <r_i_glide_ligand_efficiency>  (107) 
-0.0398134

>  <r_i_glide_ligand_efficiency_sa>  (107) 
-0.14368

>  <r_i_glide_ligand_efficiency_ln>  (107) 
-0.385809

>  <r_i_glide_gscore>  (107) 
-1.87123

>  <r_i_glide_lipo>  (107) 
-0.265204

>  <r_i_glide_hbond>  (107) 
-0.16

>  <r_i_glide_metal>  (107) 
-0

>  <r_i_glide_rewards>  (107) 
0

>  <r_i_glide_evdw>  (107) 
-17.9201

>  <r_i_glide_ecoul>  (107) 
-3.82684

>  <r_i_glide_erotb>  (107) 
0.0510002

>  <r_i_glide_esite>  (107) 
-0.026995

>  <r_i_glide_emodel>  (107) 
-22.5288

>  <r_i_glide_energy>  (107) 
-21.7469

>  <r_i_glide_einternal>  (107) 
2.80967

>  <r_i_glide_intrahb_reward>  (107) 
-0

>  <i_i_glide_confnum>  (107) 
1

>  <i_i_glide_posenum>  (107) 
6

>  <r_i_glide_eff_state_penalty>  (107) 
0

>  <ligand_id>  (107) 
31

>  <original_smiles>  (107) 
C=C(C)C12C3CC4(C)CC15C(C1C=CC(OC)C56C(C)C5(C)OC7(OC8CC9(C)CCCC8(C)C197)C5CCC2(OC)C6C4=O)N3CC

>  <smiles>  (107) 
[H]C([H])=C(C([H])([H])[H])C12C3(OC([H])([H])[H])C([H])([H])C([H])([H])C4([H])C56OC7([H])C([H])([H])C8(C([H])([H])[H])C([H])([H])C([H])([H])C([H])([H])C7(C([H])([H])[H])C58C5([H])C([H])=C([H])C([H])(OC([H])([H])[H])C7(C3([H])C(=O)C3(C([H])([H])[H])C([H])([H])C17C5([H])[N+]([H])(C([H])([H])C([H])([H])[H])C2([H])C3([H])[H])C([H])(C([H])([H])[H])C4(C([H])([H])[H])O6

$$$$
31:0:2
     RDKit          3D

105115  0  0  1  0  0  0  0  0999 V2000
    2.8936  -10.3231    5.8650 C   0  0  0  0  0  0  0  0  0  0  0  0
    3.0924   -9.2164    5.1172 C   0  0  0  0  0  0  0  0  0  0  0  0
    3.7270   -9.5067    3.7715 C   0  0  0  0  0  0  0  0  0  0  0  0
    2.5139   -7.8196    5.6348 C   0  0  2  0  0  0  0  0  0  0  0  0
    1.1061   -8.0882    5.0697 C   0  0  1  0  0  0  0  0  0  0  0  0
    0.0169   -7.5357    6.0410 C   0  0  0  0  0  0  0  0  0  0  0  0
    0.2952   -6.1090    6.5485 C   0  0  2  0  0  0  0  0  0  0  0  0
   -1.0149   -5.3754    6.9250 C   0  0  0  0  0  0  0  0  0  0  0  0
    0.9174   -5.5667    5.3095 C   0  0  0  0  0  0  0  0  0  0  0  0
    2.4215   -6.2255    5.1283 C   0  0  2  0  0  0  0  0  0  0  0  0
    2.4862   -6.5178    3.6801 C   0  0  2  0  0  0  0  0  0  0  0  0
    3.0615   -5.4221    2.7334 C   0  0  1  0  0  0  0  0  0  0  0  0
    2.6719   -3.9892    3.1743 C   0  0  0  0  0  0  0  0  0  0  0  0
    2.5835   -3.3100    4.3550 C   0  0  0  0  0  0  0  0  0  0  0  0
    2.7933   -3.6765    5.8483 C   0  0  1  0  0  0  0  0  0  0  0  0
    1.7038   -3.2118    6.6728 O   0  0  0  0  0  0  0  0  0  0  0  0
    2.0114   -2.7478    7.9841 C   0  0  0  0  0  0  0  0  0  0  0  0
    3.2881   -5.1930    6.0582 C   0  0  2  0  0  0  0  0  0  0  0  0
    4.8791   -4.8184    6.1252 C   0  0  1  0  0  0  0  0  0  0  0  0
    5.3131   -4.2921    7.5227 C   0  0  0  0  0  0  0  0  0  0  0  0
    5.9730   -5.6216    5.4426 C   0  0  2  0  0  0  0  0  0  0  0  0
    7.3479   -5.6225    6.1467 C   0  0  0  0  0  0  0  0  0  0  0  0
    6.2173   -5.0547    4.1219 O   0  0  0  0  0  0  0  0  0  0  0  0
    5.7324   -6.2028    3.4236 C   0  0  2  0  0  0  0  0  0  0  0  0
    6.7527   -6.7665    2.6031 O   0  0  0  0  0  0  0  0  0  0  0  0
    6.4961   -6.3163    1.2698 C   0  0  2  0  0  0  0  0  0  0  0  0
    6.7093   -4.8042    1.2329 C   0  0  0  0  0  0  0  0  0  0  0  0
    5.3139   -4.2643    1.6754 C   0  0  1  0  0  0  0  0  0  0  0  0
    5.4990   -2.9725    2.5287 C   0  0  0  0  0  0  0  0  0  0  0  0
    4.5866   -3.7360    0.3951 C   0  0  0  0  0  0  0  0  0  0  0  0
    4.5910   -4.7081   -0.7569 C   0  0  0  0  0  0  0  0  0  0  0  0
    4.3065   -6.1075   -0.2463 C   0  0  0  0  0  0  0  0  0  0  0  0
    4.9695   -6.5269    1.1109 C   0  0  1  0  0  0  0  0  0  0  0  0
    4.6804   -8.0330    1.1549 C   0  0  0  0  0  0  0  0  0  0  0  0
    4.6560   -5.5965    2.3413 C   0  0  2  0  0  0  0  0  0  0  0  0
    5.5134   -6.8597    4.8509 C   0  0  1  0  0  0  0  0  0  0  0  0
    5.7326   -8.0839    5.7502 C   0  0  0  0  0  0  0  0  0  0  0  0
    4.7669   -7.9647    7.0370 C   0  0  0  0  0  0  0  0  0  0  0  0
    3.1756   -7.5637    7.0263 C   0  0  2  0  0  0  0  0  0  0  0  0
    2.5443   -8.3755    8.0374 O   0  0  0  0  0  0  0  0  0  0  0  0
    3.0033   -8.2741    9.3876 C   0  0  0  0  0  0  0  0  0  0  0  0
    2.8691   -6.0389    7.3349 C   0  0  2  0  0  0  0  0  0  0  0  0
    1.3406   -5.9385    7.6923 C   0  0  0  0  0  0  0  0  0  0  0  0
    0.9831   -5.7277    8.8415 O   0  0  0  0  0  0  0  0  0  0  0  0
    1.3092   -7.5307    3.5991 N   0  0  2  0  0  0  0  0  0  0  0  0
    0.1271   -7.3458    2.6664 C   0  0  0  0  0  0  0  0  0  0  0  0
   -0.6659   -8.6441    2.5039 C   0  0  0  0  0  0  0  0  0  0  0  0
    3.2383  -11.2905    5.5443 H   0  0  0  0  0  0  0  0  0  0  0  0
    2.3877  -10.3097    6.8117 H   0  0  0  0  0  0  0  0  0  0  0  0
    4.5739   -8.8643    3.6246 H   0  0  0  0  0  0  0  0  0  0  0  0
    2.9760   -9.4839    2.9677 H   0  0  0  0  0  0  0  0  0  0  0  0
    4.1383  -10.5179    3.7356 H   0  0  0  0  0  0  0  0  0  0  0  0
    0.8135   -9.1310    4.9522 H   0  0  0  0  0  0  0  0  0  0  0  0
   -0.9631   -7.6061    5.5573 H   0  0  0  0  0  0  0  0  0  0  0  0
   -0.0097   -8.1964    6.8933 H   0  0  0  0  0  0  0  0  0  0  0  0
   -1.7054   -5.3489    6.0836 H   0  0  0  0  0  0  0  0  0  0  0  0
   -0.8254   -4.3455    7.2286 H   0  0  0  0  0  0  0  0  0  0  0  0
   -1.5275   -5.8599    7.7538 H   0  0  0  0  0  0  0  0  0  0  0  0
    0.2101   -5.7331    4.5259 H   0  0  0  0  0  0  0  0  0  0  0  0
    0.7215   -4.5162    5.2349 H   0  0  0  0  0  0  0  0  0  0  0  0
    3.2118   -7.2424    3.4058 H   0  0  0  0  0  0  0  0  0  0  0  0
    2.5144   -5.5409    1.7966 H   0  0  0  0  0  0  0  0  0  0  0  0
    2.4104   -3.3744    2.3340 H   0  0  0  0  0  0  0  0  0  0  0  0
    2.2654   -2.2831    4.2764 H   0  0  0  0  0  0  0  0  0  0  0  0
    3.5050   -2.9006    6.1313 H   0  0  0  0  0  0  0  0  0  0  0  0
    1.0834   -2.5699    8.5292 H   0  0  0  0  0  0  0  0  0  0  0  0
    2.5755   -1.8169    7.9504 H   0  0  0  0  0  0  0  0  0  0  0  0
    2.5712   -3.4846    8.5518 H   0  0  0  0  0  0  0  0  0  0  0  0
    5.0386   -3.9128    5.5366 H   0  0  0  0  0  0  0  0  0  0  0  0
    5.5120   -5.1084    8.2215 H   0  0  0  0  0  0  0  0  0  0  0  0
    4.5657   -3.6433    7.9749 H   0  0  0  0  0  0  0  0  0  0  0  0
    6.2215   -3.6782    7.4629 H   0  0  0  0  0  0  0  0  0  0  0  0
    7.2852   -6.0670    7.1365 H   0  0  0  0  0  0  0  0  0  0  0  0
    7.7654   -4.6214    6.2526 H   0  0  0  0  0  0  0  0  0  0  0  0
    8.0796   -6.2087    5.5907 H   0  0  0  0  0  0  0  0  0  0  0  0
    7.1232   -6.8569    0.5693 H   0  0  0  0  0  0  0  0  0  0  0  0
    7.5234   -4.5449    1.9027 H   0  0  0  0  0  0  0  0  0  0  0  0
    7.0135   -4.4438    0.2510 H   0  0  0  0  0  0  0  0  0  0  0  0
    4.9117   -2.1328    2.1701 H   0  0  0  0  0  0  0  0  0  0  0  0
    6.5305   -2.6352    2.4720 H   0  0  0  0  0  0  0  0  0  0  0  0
    5.2065   -3.0924    3.5588 H   0  0  0  0  0  0  0  0  0  0  0  0
    3.5608   -3.4617    0.6099 H   0  0  0  0  0  0  0  0  0  0  0  0
    5.0626   -2.8229    0.0330 H   0  0  0  0  0  0  0  0  0  0  0  0
    3.8408   -4.3964   -1.4768 H   0  0  0  0  0  0  0  0  0  0  0  0
    5.5346   -4.6830   -1.2986 H   0  0  0  0  0  0  0  0  0  0  0  0
    3.2273   -6.2250   -0.1671 H   0  0  0  0  0  0  0  0  0  0  0  0
    4.6004   -6.7918   -1.0425 H   0  0  0  0  0  0  0  0  0  0  0  0
    3.6292   -8.2139    1.3687 H   0  0  0  0  0  0  0  0  0  0  0  0
    5.3535   -8.5661    1.8135 H   0  0  0  0  0  0  0  0  0  0  0  0
    4.8869   -8.5090    0.1953 H   0  0  0  0  0  0  0  0  0  0  0  0
    4.5145   -6.8512    4.7856 H   0  0  0  0  0  0  0  0  0  0  0  0
    5.6481   -9.0373    5.2356 H   0  0  0  0  0  0  0  0  0  0  0  0
    6.7594   -8.0868    6.1330 H   0  0  0  0  0  0  0  0  0  0  0  0
    4.8419   -8.9522    7.4949 H   0  0  0  0  0  0  0  0  0  0  0  0
    5.2389   -7.2948    7.7731 H   0  0  0  0  0  0  0  0  0  0  0  0
    2.3472   -8.8650   10.0219 H   0  0  0  0  0  0  0  0  0  0  0  0
    2.9817   -7.2535    9.7599 H   0  0  0  0  0  0  0  0  0  0  0  0
    4.0104   -8.6599    9.5102 H   0  0  0  0  0  0  0  0  0  0  0  0
    3.4015   -5.7112    8.2229 H   0  0  0  0  0  0  0  0  0  0  0  0
   -0.5521   -6.5542    2.9690 H   0  0  0  0  0  0  0  0  0  0  0  0
    0.5662   -7.0714    1.7067 H   0  0  0  0  0  0  0  0  0  0  0  0
   -1.4897   -8.4643    1.8344 H   0  0  0  0  0  0  0  0  0  0  0  0
   -1.0879   -8.9919    3.4485 H   0  0  0  0  0  0  0  0  0  0  0  0
   -0.0642   -9.4570    2.0862 H   0  0  0  0  0  0  0  0  0  0  0  0
    1.7794   -8.3189    3.1575 H   0  0  0  0  0  0  0  0  0  0  0  0
  1  2  2  0
  1 48  1  0
  1 49  1  0
  2  3  1  0
  4  2  1  6
  3 50  1  0
  3 51  1  0
  3 52  1  0
  4 10  1  0
  4 39  1  0
  4  5  1  0
  5 45  1  0
  5  6  1  0
  5 53  1  6
  6  7  1  0
  6 54  1  0
  6 55  1  0
  7 43  1  0
  7  8  1  1
  7  9  1  0
  8 56  1  0
  8 57  1  0
  8 58  1  0
 10  9  1  6
  9 59  1  0
  9 60  1  0
 18 10  1  6
 10 11  1  0
 11 12  1  0
 11 45  1  0
 11 61  1  1
 12 35  1  0
 12 13  1  0
 12 62  1  6
 13 14  2  0
 13 63  1  0
 14 15  1  0
 14 64  1  0
 15 16  1  0
 15 18  1  0
 15 65  1  1
 16 17  1  0
 17 66  1  0
 17 67  1  0
 17 68  1  0
 18 42  1  0
 18 19  1  0
 19 20  1  0
 19 21  1  0
 19 69  1  6
 20 70  1  0
 20 71  1  0
 20 72  1  0
 21 36  1  0
 21 22  1  1
 21 23  1  0
 22 73  1  0
 22 74  1  0
 22 75  1  0
 24 23  1  1
 24 35  1  0
 24 25  1  0
 24 36  1  0
 25 26  1  0
 26 33  1  0
 26 27  1  0
 26 76  1  6
 27 28  1  0
 27 77  1  0
 27 78  1  0
 35 28  1  6
 28 29  1  1
 28 30  1  0
 29 79  1  0
 29 80  1  0
 29 81  1  0
 30 31  1  0
 30 82  1  0
 30 83  1  0
 31 32  1  0
 31 84  1  0
 31 85  1  0
 32 33  1  0
 32 86  1  0
 32 87  1  0
 33 34  1  1
 33 35  1  0
 34 88  1  0
 34 89  1  0
 34 90  1  0
 36 37  1  0
 36 91  1  1
 37 38  1  0
 37 92  1  0
 37 93  1  0
 38 39  1  0
 38 94  1  0
 38 95  1  0
 39 40  1  1
 39 42  1  0
 40 41  1  0
 41 96  1  0
 41 97  1  0
 41 98  1  0
 42 43  1  0
 42 99  1  1
 43 44  2  0
 45 46  1  0
 45105  1  6
 46 47  1  0
 46100  1  0
 46101  1  0
 47102  1  0
 47103  1  0
 47104  1  0
M  CHG  1  45   1
M  END
>  <i_m_ct_stereo_status>  (108) 
1

>  <s_m_source_file>  (108) 
/var/tmp/pbs.5076255.sched01/tmpqm933_o1/456x1pmp19.sdf

>  <i_m_source_file_index>  (108) 
1

>  <i_lp_mmshare_version>  (108) 
48012

>  <i_f3d_flags>  (108) 
0

>  <s_epik_input>  (108) 
W0NAXTEyM1tDQF00NVtDQEBIXTZbQ0BAXTcoT1tDSDNdKVtDQEBdMShDKD1bQ0gyXSlbQ0gzXSlbQ0BASF0oW0NIMl1bQ0BdKFtDSDNdKShbQ0gyXTIpQzY9TylOKFtDSDJdW0NIM10pW0NASF0zW0NAQEhdKFtDSF09W0NIXVtDQEhdNE9bQ0gzXSlbQ0BdODlbQ0BAXTEoW0NAQEhdKFtDSDJdW0NIMl03KVtDQF0oTzEpKFtDSDNdKVtDQEBIXTVbQ0gzXSlPW0NASF0xW0NAXTkoW0NIM10pW0NIMl1bQ0gyXVtDSDJdW0NAQF04KFtDSDJdMSlbQ0gzXQ==

>  <s_epik_cmdline>  (108) 
J2VwaWtfcHl0aG9uJywgJy1waHQnLCAnMi4wJywgJy1waCcsICc3LjAnLCAnLXRuJywgJzgnLCAnLW1hJywgJzIwMCcsICctaW1hZScsICc8aW5maWxlLm1hZT4nLCAnLW9tYWUnLCAnPG91dGZpbGUubWFlPic=

>  <r_lp_tautomer_probability>  (108) 
0.99995

>  <r_epik_Ionization_Penalty>  (108) 
0.0115294

>  <r_epik_Ionization_Penalty_Charging>  (108) 
0.0115294

>  <r_epik_Ionization_Penalty_Neutral>  (108) 
1.59555e-11

>  <r_epik_State_Penalty>  (108) 
0.0088777

>  <r_epik_Charging_Adjusted_Penalty>  (108) 
0.0204071

>  <i_epik_Tot_Q>  (108) 
1

>  <i_epik_Tot_abs_Q>  (108) 
1

>  <s_lp_Force_Field>  (108) 
OPLS3e

>  <r_lp_Energy>  (108) 
421.231

>  <b_lp_Chiralities_Consistent>  (108) 
1

>  <s_lp_Variant>  (108) 
31:0-1

>  <s_i_glide_gridfile>  (108) 
pfpi4k_grid

>  <i_i_glide_lignum>  (108) 
1

>  <i_i_glide_rotatable_bonds>  (108) 
4

>  <r_i_docking_score>  (108) 
-1.80395

>  <r_i_glide_ligand_efficiency>  (108) 
-0.038382

>  <r_i_glide_ligand_efficiency_sa>  (108) 
-0.138514

>  <r_i_glide_ligand_efficiency_ln>  (108) 
-0.371938

>  <r_i_glide_gscore>  (108) 
-1.80395

>  <r_i_glide_lipo>  (108) 
-0.533263

>  <r_i_glide_hbond>  (108) 
0

>  <r_i_glide_metal>  (108) 
-0

>  <r_i_glide_rewards>  (108) 
-0.000953707

>  <r_i_glide_evdw>  (108) 
-19.8021

>  <r_i_glide_ecoul>  (108) 
-2.11518

>  <r_i_glide_erotb>  (108) 
0.0510002

>  <r_i_glide_esite>  (108) 
-0.0133532

>  <r_i_glide_emodel>  (108) 
-22.2971

>  <r_i_glide_energy>  (108) 
-21.9173

>  <r_i_glide_einternal>  (108) 
4.39946

>  <r_i_glide_intrahb_reward>  (108) 
-0

>  <i_i_glide_confnum>  (108) 
4

>  <i_i_glide_posenum>  (108) 
16

>  <r_i_glide_eff_state_penalty>  (108) 
0

>  <ligand_id>  (108) 
31

>  <original_smiles>  (108) 
C=C(C)C12C3CC4(C)CC15C(C1C=CC(OC)C56C(C)C5(C)OC7(OC8CC9(C)CCCC8(C)C197)C5CCC2(OC)C6C4=O)N3CC

>  <smiles>  (108) 
[H]C([H])=C(C([H])([H])[H])C12C3(OC([H])([H])[H])C([H])([H])C([H])([H])C4([H])C56OC7([H])C([H])([H])C8(C([H])([H])[H])C([H])([H])C([H])([H])C([H])([H])C7(C([H])([H])[H])C58C5([H])C([H])=C([H])C([H])(OC([H])([H])[H])C7(C3([H])C(=O)C3(C([H])([H])[H])C([H])([H])C17C5([H])[N+]([H])(C([H])([H])C([H])([H])[H])C2([H])C3([H])[H])C([H])(C([H])([H])[H])C4(C([H])([H])[H])O6

$$$$
31:1:0
     RDKit          3D

104114  0  0  1  0  0  0  0  0999 V2000
    3.2395   -7.1011   10.4811 C   0  0  0  0  0  0  0  0  0  0  0  0
    3.3257   -6.9675    9.1437 C   0  0  0  0  0  0  0  0  0  0  0  0
    4.2577   -7.9788    8.5112 C   0  0  0  0  0  0  0  0  0  0  0  0
    2.3851   -5.9259    8.3835 C   0  0  2  0  0  0  0  0  0  0  0  0
    1.1999   -6.9094    8.3287 C   0  0  1  0  0  0  0  0  0  0  0  0
   -0.1331   -6.1376    8.5973 C   0  0  0  0  0  0  0  0  0  0  0  0
   -0.2988   -4.8680    7.7472 C   0  0  2  0  0  0  0  0  0  0  0  0
   -1.7968   -4.5542    7.4938 C   0  0  0  0  0  0  0  0  0  0  0  0
    0.4078   -5.3015    6.5174 C   0  0  0  0  0  0  0  0  0  0  0  0
    2.0388   -5.4273    6.8350 C   0  0  2  0  0  0  0  0  0  0  0  0
    2.4666   -6.6932    6.1798 C   0  0  2  0  0  0  0  0  0  0  0  0
    2.9723   -6.5717    4.7041 C   0  0  1  0  0  0  0  0  0  0  0  0
    2.1862   -5.5352    3.8540 C   0  0  0  0  0  0  0  0  0  0  0  0
    1.7078   -4.2606    4.0508 C   0  0  0  0  0  0  0  0  0  0  0  0
    1.7182   -3.2895    5.2581 C   0  0  1  0  0  0  0  0  0  0  0  0
    0.4557   -2.6551    5.5436 O   0  0  0  0  0  0  0  0  0  0  0  0
   -0.1452   -1.8786    4.5123 C   0  0  0  0  0  0  0  0  0  0  0  0
    2.4743   -3.8739    6.5493 C   0  0  2  0  0  0  0  0  0  0  0  0
    3.8942   -3.1377    6.2300 C   0  0  1  0  0  0  0  0  0  0  0  0
    3.8871   -1.6430    6.6776 C   0  0  0  0  0  0  0  0  0  0  0  0
    5.2622   -3.7957    6.3836 C   0  0  2  0  0  0  0  0  0  0  0  0
    6.4291   -2.8707    6.7698 C   0  0  0  0  0  0  0  0  0  0  0  0
    5.6632   -4.3875    5.1152 O   0  0  0  0  0  0  0  0  0  0  0  0
    5.5844   -5.7458    5.5867 C   0  0  2  0  0  0  0  0  0  0  0  0
    6.8068   -6.4078    5.4665 O   0  0  0  0  0  0  0  0  0  0  0  0
    6.7226   -7.2550    4.2963 C   0  0  2  0  0  0  0  0  0  0  0  0
    6.5966   -6.3207    3.0866 C   0  0  0  0  0  0  0  0  0  0  0  0
    5.0691   -6.0646    3.0102 C   0  0  1  0  0  0  0  0  0  0  0  0
    4.7834   -4.6097    2.5366 C   0  0  0  0  0  0  0  0  0  0  0  0
    4.4946   -6.9625    1.8565 C   0  0  0  0  0  0  0  0  0  0  0  0
    4.9422   -8.4095    1.9090 C   0  0  0  0  0  0  0  0  0  0  0  0
    4.8866   -8.9145    3.3343 C   0  0  0  0  0  0  0  0  0  0  0  0
    5.3426   -7.9118    4.4608 C   0  0  1  0  0  0  0  0  0  0  0  0
    5.3811   -8.8301    5.6863 C   0  0  0  0  0  0  0  0  0  0  0  0
    4.5969   -6.5177    4.5037 C   0  0  2  0  0  0  0  0  0  0  0  0
    5.1908   -5.1111    7.0000 C   0  0  1  0  0  0  0  0  0  0  0  0
    5.4876   -5.0649    8.5016 C   0  0  0  0  0  0  0  0  0  0  0  0
    4.2860   -4.2967    9.2623 C   0  0  0  0  0  0  0  0  0  0  0  0
    2.6885   -4.5228    9.0162 C   0  0  2  0  0  0  0  0  0  0  0  0
    2.0548   -4.4207   10.3075 O   0  0  0  0  0  0  0  0  0  0  0  0
    2.1987   -3.2085   11.0472 C   0  0  0  0  0  0  0  0  0  0  0  0
    2.0088   -3.5032    8.0219 C   0  0  2  0  0  0  0  0  0  0  0  0
    0.4395   -3.5855    8.2478 C   0  0  0  0  0  0  0  0  0  0  0  0
   -0.1607   -2.6733    8.7531 O   0  0  0  0  0  0  0  0  0  0  0  0
    1.5581   -7.5943    6.9911 N   0  0  0  0  0  0  0  0  0  0  0  0
    0.7056   -8.6188    6.3827 C   0  0  0  0  0  0  0  0  0  0  0  0
    0.1157   -9.5769    7.4311 C   0  0  0  0  0  0  0  0  0  0  0  0
    3.8442   -7.8168   11.0138 H   0  0  0  0  0  0  0  0  0  0  0  0
    2.5650   -6.5219   11.0813 H   0  0  0  0  0  0  0  0  0  0  0  0
    4.9704   -7.4725    7.8640 H   0  0  0  0  0  0  0  0  0  0  0  0
    3.6852   -8.7618    8.0107 H   0  0  0  0  0  0  0  0  0  0  0  0
    4.8835   -8.4885    9.2442 H   0  0  0  0  0  0  0  0  0  0  0  0
    1.2077   -7.6818    9.0907 H   0  0  0  0  0  0  0  0  0  0  0  0
   -0.9891   -6.8103    8.4300 H   0  0  0  0  0  0  0  0  0  0  0  0
   -0.1844   -5.8651    9.6457 H   0  0  0  0  0  0  0  0  0  0  0  0
   -2.2883   -5.3645    6.9559 H   0  0  0  0  0  0  0  0  0  0  0  0
   -1.9219   -3.6577    6.8904 H   0  0  0  0  0  0  0  0  0  0  0  0
   -2.3425   -4.4083    8.4252 H   0  0  0  0  0  0  0  0  0  0  0  0
   -0.0953   -6.1971    6.1963 H   0  0  0  0  0  0  0  0  0  0  0  0
    0.0135   -4.8043    5.6556 H   0  0  0  0  0  0  0  0  0  0  0  0
    3.3825   -7.0885    6.5578 H   0  0  0  0  0  0  0  0  0  0  0  0
    2.6613   -7.5151    4.2429 H   0  0  0  0  0  0  0  0  0  0  0  0
    1.9592   -5.9068    2.8744 H   0  0  0  0  0  0  0  0  0  0  0  0
    1.2090   -3.8413    3.1960 H   0  0  0  0  0  0  0  0  0  0  0  0
    2.1767   -2.3966    4.8305 H   0  0  0  0  0  0  0  0  0  0  0  0
   -1.0172   -1.3709    4.9187 H   0  0  0  0  0  0  0  0  0  0  0  0
   -0.4862   -2.4983    3.6855 H   0  0  0  0  0  0  0  0  0  0  0  0
    0.5264   -1.1136    4.1223 H   0  0  0  0  0  0  0  0  0  0  0  0
    3.9765   -2.9976    5.1506 H   0  0  0  0  0  0  0  0  0  0  0  0
    4.1303   -1.5252    7.7327 H   0  0  0  0  0  0  0  0  0  0  0  0
    2.9157   -1.1758    6.5240 H   0  0  0  0  0  0  0  0  0  0  0  0
    4.5980   -1.0428    6.1084 H   0  0  0  0  0  0  0  0  0  0  0  0
    6.2701   -2.4032    7.7383 H   0  0  0  0  0  0  0  0  0  0  0  0
    6.5909   -2.0728    6.0462 H   0  0  0  0  0  0  0  0  0  0  0  0
    7.3605   -3.4269    6.8422 H   0  0  0  0  0  0  0  0  0  0  0  0
    7.5517   -7.9571    4.2162 H   0  0  0  0  0  0  0  0  0  0  0  0
    7.1809   -5.4201    3.2648 H   0  0  0  0  0  0  0  0  0  0  0  0
    7.0018   -6.7567    2.1774 H   0  0  0  0  0  0  0  0  0  0  0  0
    4.0384   -4.5684    1.7442 H   0  0  0  0  0  0  0  0  0  0  0  0
    5.6779   -4.1205    2.1507 H   0  0  0  0  0  0  0  0  0  0  0  0
    4.3763   -3.9696    3.3032 H   0  0  0  0  0  0  0  0  0  0  0  0
    3.4116   -6.9468    1.8420 H   0  0  0  0  0  0  0  0  0  0  0  0
    4.7983   -6.5643    0.8865 H   0  0  0  0  0  0  0  0  0  0  0  0
    4.3111   -9.0274    1.2697 H   0  0  0  0  0  0  0  0  0  0  0  0
    5.9506   -8.5246    1.5125 H   0  0  0  0  0  0  0  0  0  0  0  0
    3.8755   -9.2539    3.5501 H   0  0  0  0  0  0  0  0  0  0  0  0
    5.4961   -9.8183    3.3578 H   0  0  0  0  0  0  0  0  0  0  0  0
    4.3723   -9.0700    6.0121 H   0  0  0  0  0  0  0  0  0  0  0  0
    6.0086   -8.4449    6.4840 H   0  0  0  0  0  0  0  0  0  0  0  0
    5.8603   -9.7843    5.4621 H   0  0  0  0  0  0  0  0  0  0  0  0
    4.2626   -5.4332    6.9861 H   0  0  0  0  0  0  0  0  0  0  0  0
    5.7085   -6.0441    8.9329 H   0  0  0  0  0  0  0  0  0  0  0  0
    6.4011   -4.5126    8.7062 H   0  0  0  0  0  0  0  0  0  0  0  0
    4.4826   -4.5113   10.3107 H   0  0  0  0  0  0  0  0  0  0  0  0
    4.4596   -3.2301    9.1734 H   0  0  0  0  0  0  0  0  0  0  0  0
    1.5735   -3.2629   11.9370 H   0  0  0  0  0  0  0  0  0  0  0  0
    1.8793   -2.3331   10.4837 H   0  0  0  0  0  0  0  0  0  0  0  0
    3.2213   -3.0422   11.3837 H   0  0  0  0  0  0  0  0  0  0  0  0
    2.2600   -2.4834    8.2867 H   0  0  0  0  0  0  0  0  0  0  0  0
   -0.1186   -8.2027    5.7947 H   0  0  0  0  0  0  0  0  0  0  0  0
    1.3138   -9.1867    5.6795 H   0  0  0  0  0  0  0  0  0  0  0  0
   -0.5230  -10.3200    6.9527 H   0  0  0  0  0  0  0  0  0  0  0  0
   -0.5032   -9.0644    8.1682 H   0  0  0  0  0  0  0  0  0  0  0  0
    0.9025  -10.1079    7.9648 H   0  0  0  0  0  0  0  0  0  0  0  0
  1  2  2  0
  1 48  1  0
  1 49  1  0
  2  3  1  0
  4  2  1  6
  3 50  1  0
  3 51  1  0
  3 52  1  0
  4 10  1  0
  4 39  1  0
  4  5  1  0
  5 45  1  0
  5  6  1  0
  5 53  1  1
  6  7  1  0
  6 54  1  0
  6 55  1  0
  7 43  1  0
  7  8  1  6
  7  9  1  0
  8 56  1  0
  8 57  1  0
  8 58  1  0
 10  9  1  1
  9 59  1  0
  9 60  1  0
 18 10  1  1
 10 11  1  0
 11 12  1  0
 11 45  1  0
 11 61  1  1
 12 35  1  0
 12 13  1  0
 12 62  1  6
 13 14  2  0
 13 63  1  0
 14 15  1  0
 14 64  1  0
 15 16  1  0
 15 18  1  0
 15 65  1  6
 16 17  1  0
 17 66  1  0
 17 67  1  0
 17 68  1  0
 18 42  1  0
 18 19  1  0
 19 20  1  0
 19 21  1  0
 19 69  1  6
 20 70  1  0
 20 71  1  0
 20 72  1  0
 21 36  1  0
 21 22  1  1
 21 23  1  0
 22 73  1  0
 22 74  1  0
 22 75  1  0
 24 23  1  6
 24 35  1  0
 24 25  1  0
 24 36  1  0
 25 26  1  0
 26 33  1  0
 26 27  1  0
 26 76  1  6
 27 28  1  0
 27 77  1  0
 27 78  1  0
 35 28  1  6
 28 29  1  6
 28 30  1  0
 29 79  1  0
 29 80  1  0
 29 81  1  0
 30 31  1  0
 30 82  1  0
 30 83  1  0
 31 32  1  0
 31 84  1  0
 31 85  1  0
 32 33  1  0
 32 86  1  0
 32 87  1  0
 33 34  1  1
 33 35  1  0
 34 88  1  0
 34 89  1  0
 34 90  1  0
 36 37  1  0
 36 91  1  1
 37 38  1  0
 37 92  1  0
 37 93  1  0
 38 39  1  0
 38 94  1  0
 38 95  1  0
 39 40  1  1
 39 42  1  0
 40 41  1  0
 41 96  1  0
 41 97  1  0
 41 98  1  0
 42 43  1  0
 42 99  1  1
 43 44  2  0
 45 46  1  0
 46 47  1  0
 46100  1  0
 46101  1  0
 47102  1  0
 47103  1  0
 47104  1  0
M  END
>  <i_m_ct_stereo_status>  (109) 
1

>  <s_m_source_file>  (109) 
/var/tmp/pbs.5076255.sched01/tmpqm933_o1/456x1pmp19.sdf

>  <i_m_source_file_index>  (109) 
2

>  <i_lp_mmshare_version>  (109) 
48012

>  <i_f3d_flags>  (109) 
0

>  <s_epik_input>  (109) 
W0NAXTEyM1tDQF00NVtDQEBIXTZbQ0BAXTcoT1tDSDNdKVtDQEBdMShDKD1bQ0gyXSlbQ0gzXSlbQ0BASF0oW0NIMl1bQ0BdKFtDSDNdKShbQ0gyXTIpQzY9TylOKFtDSDJdW0NIM10pW0NASF0zW0NAQEhdKFtDSF09W0NIXVtDQEhdNE9bQ0gzXSlbQ0BdODlbQ0BAXTEoW0NAQEhdKFtDSDJdW0NIMl03KVtDQF0oTzEpKFtDSDNdKVtDQEBIXTVbQ0gzXSlPW0NASF0xW0NAXTkoW0NIM10pW0NIMl1bQ0gyXVtDSDJdW0NAQF04KFtDSDJdMSlbQ0gzXQ==

>  <s_epik_cmdline>  (109) 
J2VwaWtfcHl0aG9uJywgJy1waHQnLCAnMi4wJywgJy1waCcsICc3LjAnLCAnLXRuJywgJzgnLCAnLW1hJywgJzIwMCcsICctaW1hZScsICc8aW5maWxlLm1hZT4nLCAnLW9tYWUnLCAnPG91dGZpbGUubWFlPic=

>  <r_lp_tautomer_probability>  (109) 
0.99995

>  <r_epik_Ionization_Penalty>  (109) 
2.33981

>  <r_epik_Ionization_Penalty_Charging>  (109) 
0

>  <r_epik_Ionization_Penalty_Neutral>  (109) 
2.33981

>  <r_epik_State_Penalty>  (109) 
2.49334

>  <r_epik_Charging_Adjusted_Penalty>  (109) 
2.49334

>  <i_epik_Tot_Q>  (109) 
0

>  <i_epik_Tot_abs_Q>  (109) 
0

>  <s_lp_Force_Field>  (109) 
OPLS3e

>  <r_lp_Energy>  (109) 
426.055

>  <b_lp_Chiralities_Consistent>  (109) 
1

>  <s_lp_Variant>  (109) 
31:0-2

>  <s_i_glide_gridfile>  (109) 
pfpi4k_grid

>  <i_i_glide_lignum>  (109) 
2

>  <i_i_glide_rotatable_bonds>  (109) 
4

>  <r_i_docking_score>  (109) 
-1.75515

>  <r_i_glide_ligand_efficiency>  (109) 
-0.0373436

>  <r_i_glide_ligand_efficiency_sa>  (109) 
-0.134767

>  <r_i_glide_ligand_efficiency_ln>  (109) 
-0.361876

>  <r_i_glide_gscore>  (109) 
-1.75515

>  <r_i_glide_lipo>  (109) 
-0.190198

>  <r_i_glide_hbond>  (109) 
-0.16

>  <r_i_glide_metal>  (109) 
-0

>  <r_i_glide_rewards>  (109) 
0

>  <r_i_glide_evdw>  (109) 
-18.4454

>  <r_i_glide_ecoul>  (109) 
-3.43603

>  <r_i_glide_erotb>  (109) 
0.0511493

>  <r_i_glide_esite>  (109) 
-0.0184279

>  <r_i_glide_emodel>  (109) 
-22.5535

>  <r_i_glide_energy>  (109) 
-21.8814

>  <r_i_glide_einternal>  (109) 
2.48936

>  <r_i_glide_intrahb_reward>  (109) 
-0

>  <i_i_glide_confnum>  (109) 
2

>  <i_i_glide_posenum>  (109) 
13

>  <r_i_glide_eff_state_penalty>  (109) 
0

>  <ligand_id>  (109) 
31

>  <original_smiles>  (109) 
C=C(C)C12C3CC4(C)CC15C(C1C=CC(OC)C56C(C)C5(C)OC7(OC8CC9(C)CCCC8(C)C197)C5CCC2(OC)C6C4=O)N3CC

>  <smiles>  (109) 
[H]C([H])=C(C([H])([H])[H])C12C3([H])N(C([H])([H])C([H])([H])[H])C4([H])C5([H])C([H])=C([H])C([H])(OC([H])([H])[H])C67C([H])(C(=O)C(C([H])([H])[H])(C3([H])[H])C([H])([H])C416)C2(OC([H])([H])[H])C([H])([H])C([H])([H])C1([H])C2(OC3([H])C([H])([H])C4(C([H])([H])[H])C([H])([H])C([H])([H])C([H])([H])C3(C([H])([H])[H])C254)OC1(C([H])([H])[H])C7([H])C([H])([H])[H]

$$$$
31:1:1
     RDKit          3D

104114  0  0  1  0  0  0  0  0999 V2000
   -0.8102    2.0595    9.6371 C   0  0  0  0  0  0  0  0  0  0  0  0
    0.0137    1.5287    8.6977 C   0  0  0  0  0  0  0  0  0  0  0  0
    0.5288    0.1506    9.0731 C   0  0  0  0  0  0  0  0  0  0  0  0
    0.2432    2.2789    7.3162 C   0  0  2  0  0  0  0  0  0  0  0  0
   -1.0483    1.7025    6.6870 C   0  0  1  0  0  0  0  0  0  0  0  0
   -1.7619    2.8130    5.8378 C   0  0  0  0  0  0  0  0  0  0  0  0
   -0.8159    3.5502    4.8544 C   0  0  2  0  0  0  0  0  0  0  0  0
   -1.5931    4.0584    3.6185 C   0  0  0  0  0  0  0  0  0  0  0  0
    0.1037    2.4222    4.5349 C   0  0  0  0  0  0  0  0  0  0  0  0
    1.0310    2.0744    5.8628 C   0  0  2  0  0  0  0  0  0  0  0  0
    1.0611    0.5844    5.9297 C   0  0  2  0  0  0  0  0  0  0  0  0
    2.2456   -0.1075    5.1752 C   0  0  1  0  0  0  0  0  0  0  0  0
    2.6300    0.5907    3.8344 C   0  0  0  0  0  0  0  0  0  0  0  0
    2.7969    1.8537    3.3994 C   0  0  0  0  0  0  0  0  0  0  0  0
    2.6629    3.2494    4.0750 C   0  0  1  0  0  0  0  0  0  0  0  0
    1.9287    4.1790    3.2700 O   0  0  0  0  0  0  0  0  0  0  0  0
    2.3726    5.5295    3.2364 C   0  0  0  0  0  0  0  0  0  0  0  0
    2.2501    3.1597    5.6299 C   0  0  2  0  0  0  0  0  0  0  0  0
    3.7957    3.2681    6.1893 C   0  0  1  0  0  0  0  0  0  0  0  0
    4.3136    4.7350    6.2115 C   0  0  0  0  0  0  0  0  0  0  0  0
    4.3449    2.4343    7.3304 C   0  0  2  0  0  0  0  0  0  0  0  0
    5.4439    3.1080    8.1892 C   0  0  0  0  0  0  0  0  0  0  0  0
    5.0223    1.2332    6.8260 O   0  0  0  0  0  0  0  0  0  0  0  0
    4.0250    0.3512    7.3631 C   0  0  2  0  0  0  0  0  0  0  0  0
    4.6246   -0.6059    8.2487 O   0  0  0  0  0  0  0  0  0  0  0  0
    4.7526   -1.8285    7.5059 C   0  0  2  0  0  0  0  0  0  0  0  0
    5.7411   -1.5775    6.3566 C   0  0  0  0  0  0  0  0  0  0  0  0
    4.8145   -1.0163    5.2346 C   0  0  1  0  0  0  0  0  0  0  0  0
    5.5665    0.0725    4.3964 C   0  0  0  0  0  0  0  0  0  0  0  0
    4.5478   -2.1743    4.2114 C   0  0  0  0  0  0  0  0  0  0  0  0
    4.1316   -3.4895    4.8416 C   0  0  0  0  0  0  0  0  0  0  0  0
    3.1275   -3.2293    5.9449 C   0  0  0  0  0  0  0  0  0  0  0  0
    3.3641   -1.9689    6.8426 C   0  0  1  0  0  0  0  0  0  0  0  0
    2.3199   -2.1759    7.9494 C   0  0  0  0  0  0  0  0  0  0  0  0
    3.5294   -0.5844    6.1138 C   0  0  2  0  0  0  0  0  0  0  0  0
    3.3573    1.6311    7.9989 C   0  0  1  0  0  0  0  0  0  0  0  0
    2.8042    2.3034    9.2735 C   0  0  0  0  0  0  0  0  0  0  0  0
    1.9457    3.6066    8.8691 C   0  0  0  0  0  0  0  0  0  0  0  0
    0.8229    3.6999    7.6770 C   0  0  2  0  0  0  0  0  0  0  0  0
   -0.2313    4.5537    8.1769 O   0  0  0  0  0  0  0  0  0  0  0  0
    0.0946    5.8944    8.5526 C   0  0  0  0  0  0  0  0  0  0  0  0
    1.3386    4.2850    6.2999 C   0  0  2  0  0  0  0  0  0  0  0  0
    0.0807    4.6531    5.4635 C   0  0  0  0  0  0  0  0  0  0  0  0
   -0.2321    5.8679    5.2884 O   0  0  0  0  0  0  0  0  0  0  0  0
   -0.4358    0.4026    6.1143 N   0  0  0  0  0  0  0  0  0  0  0  0
   -1.2501   -0.5248    5.3211 C   0  0  0  0  0  0  0  0  0  0  0  0
   -0.7717   -1.9770    5.4673 C   0  0  0  0  0  0  0  0  0  0  0  0
   -0.9969    1.5614   10.5681 H   0  0  0  0  0  0  0  0  0  0  0  0
   -1.3077    2.9937    9.4935 H   0  0  0  0  0  0  0  0  0  0  0  0
    1.5871    0.1134    8.9668 H   0  0  0  0  0  0  0  0  0  0  0  0
   -0.0004   -0.6214    8.4951 H   0  0  0  0  0  0  0  0  0  0  0  0
    0.3418   -0.0862   10.1198 H   0  0  0  0  0  0  0  0  0  0  0  0
   -1.8237    1.4069    7.3931 H   0  0  0  0  0  0  0  0  0  0  0  0
   -2.5993    2.3815    5.2936 H   0  0  0  0  0  0  0  0  0  0  0  0
   -2.1977    3.5561    6.5042 H   0  0  0  0  0  0  0  0  0  0  0  0
   -2.0662    3.2466    3.0737 H   0  0  0  0  0  0  0  0  0  0  0  0
   -0.9383    4.5768    2.9194 H   0  0  0  0  0  0  0  0  0  0  0  0
   -2.3833    4.7538    3.9022 H   0  0  0  0  0  0  0  0  0  0  0  0
   -0.5285    1.6368    4.1565 H   0  0  0  0  0  0  0  0  0  0  0  0
    0.5045    2.5468    3.5473 H   0  0  0  0  0  0  0  0  0  0  0  0
    1.3217    0.1996    6.8887 H   0  0  0  0  0  0  0  0  0  0  0  0
    1.8671   -1.0494    4.7875 H   0  0  0  0  0  0  0  0  0  0  0  0
    2.7573   -0.1368    3.0460 H   0  0  0  0  0  0  0  0  0  0  0  0
    3.0352    1.9711    2.3582 H   0  0  0  0  0  0  0  0  0  0  0  0
    3.6599    3.6376    3.8626 H   0  0  0  0  0  0  0  0  0  0  0  0
    1.6550    6.1185    2.6614 H   0  0  0  0  0  0  0  0  0  0  0  0
    3.3482    5.6217    2.7562 H   0  0  0  0  0  0  0  0  0  0  0  0
    2.4225    5.9601    4.2325 H   0  0  0  0  0  0  0  0  0  0  0  0
    4.4535    2.8501    5.4372 H   0  0  0  0  0  0  0  0  0  0  0  0
    3.9939    5.2697    7.1063 H   0  0  0  0  0  0  0  0  0  0  0  0
    3.9888    5.3117    5.3467 H   0  0  0  0  0  0  0  0  0  0  0  0
    5.4086    4.7730    6.1887 H   0  0  0  0  0  0  0  0  0  0  0  0
    5.0704    4.0008    8.6780 H   0  0  0  0  0  0  0  0  0  0  0  0
    6.3221    3.3802    7.6033 H   0  0  0  0  0  0  0  0  0  0  0  0
    5.7866    2.4371    8.9768 H   0  0  0  0  0  0  0  0  0  0  0  0
    5.0292   -2.6742    8.1372 H   0  0  0  0  0  0  0  0  0  0  0  0
    6.5028   -0.8677    6.6746 H   0  0  0  0  0  0  0  0  0  0  0  0
    6.2666   -2.4760    6.0597 H   0  0  0  0  0  0  0  0  0  0  0  0
    5.4559   -0.0901    3.3287 H   0  0  0  0  0  0  0  0  0  0  0  0
    6.6293    0.0982    4.6127 H   0  0  0  0  0  0  0  0  0  0  0  0
    5.1878    1.0648    4.5528 H   0  0  0  0  0  0  0  0  0  0  0  0
    3.7948   -1.8981    3.4834 H   0  0  0  0  0  0  0  0  0  0  0  0
    5.4491   -2.3736    3.6257 H   0  0  0  0  0  0  0  0  0  0  0  0
    3.7044   -4.1521    4.0959 H   0  0  0  0  0  0  0  0  0  0  0  0
    4.9926   -4.0253    5.2461 H   0  0  0  0  0  0  0  0  0  0  0  0
    2.1368   -3.1755    5.4986 H   0  0  0  0  0  0  0  0  0  0  0  0
    3.1057   -4.1387    6.5519 H   0  0  0  0  0  0  0  0  0  0  0  0
    1.3223   -1.9655    7.5743 H   0  0  0  0  0  0  0  0  0  0  0  0
    2.5499   -1.6375    8.8603 H   0  0  0  0  0  0  0  0  0  0  0  0
    2.3050   -3.2096    8.2989 H   0  0  0  0  0  0  0  0  0  0  0  0
    2.5129    1.5837    7.4536 H   0  0  0  0  0  0  0  0  0  0  0  0
    2.2717    1.6368    9.9302 H   0  0  0  0  0  0  0  0  0  0  0  0
    3.6299    2.6530    9.9002 H   0  0  0  0  0  0  0  0  0  0  0  0
    1.4472    3.8790    9.7974 H   0  0  0  0  0  0  0  0  0  0  0  0
    2.6334    4.4395    8.6937 H   0  0  0  0  0  0  0  0  0  0  0  0
   -0.8247    6.4235    8.7912 H   0  0  0  0  0  0  0  0  0  0  0  0
    0.5853    6.4461    7.7519 H   0  0  0  0  0  0  0  0  0  0  0  0
    0.7300    5.9368    9.4331 H   0  0  0  0  0  0  0  0  0  0  0  0
    1.8938    5.1910    6.4526 H   0  0  0  0  0  0  0  0  0  0  0  0
   -2.2774   -0.4562    5.6772 H   0  0  0  0  0  0  0  0  0  0  0  0
   -1.2828   -0.2568    4.2683 H   0  0  0  0  0  0  0  0  0  0  0  0
   -1.4232   -2.6572    4.9272 H   0  0  0  0  0  0  0  0  0  0  0  0
   -0.7568   -2.3010    6.5080 H   0  0  0  0  0  0  0  0  0  0  0  0
    0.2135   -2.1282    5.0370 H   0  0  0  0  0  0  0  0  0  0  0  0
  1  2  2  0
  1 48  1  0
  1 49  1  0
  2  3  1  0
  4  2  1  1
  3 50  1  0
  3 51  1  0
  3 52  1  0
  4 10  1  0
  4 39  1  0
  4  5  1  0
  5 45  1  0
  5  6  1  0
  5 53  1  1
  6  7  1  0
  6 54  1  0
  6 55  1  0
  7 43  1  0
  7  8  1  6
  7  9  1  0
  8 56  1  0
  8 57  1  0
  8 58  1  0
 10  9  1  6
  9 59  1  0
  9 60  1  0
 18 10  1  6
 10 11  1  0
 11 12  1  0
 11 45  1  0
 11 61  1  1
 12 35  1  0
 12 13  1  0
 12 62  1  6
 13 14  2  0
 13 63  1  0
 14 15  1  0
 14 64  1  0
 15 16  1  0
 15 18  1  0
 15 65  1  1
 16 17  1  0
 17 66  1  0
 17 67  1  0
 17 68  1  0
 18 42  1  0
 18 19  1  0
 19 20  1  0
 19 21  1  0
 19 69  1  6
 20 70  1  0
 20 71  1  0
 20 72  1  0
 21 36  1  0
 21 22  1  1
 21 23  1  0
 22 73  1  0
 22 74  1  0
 22 75  1  0
 24 23  1  6
 24 35  1  0
 24 25  1  0
 24 36  1  0
 25 26  1  0
 26 33  1  0
 26 27  1  0
 26 76  1  1
 27 28  1  0
 27 77  1  0
 27 78  1  0
 35 28  1  6
 28 29  1  6
 28 30  1  0
 29 79  1  0
 29 80  1  0
 29 81  1  0
 30 31  1  0
 30 82  1  0
 30 83  1  0
 31 32  1  0
 31 84  1  0
 31 85  1  0
 32 33  1  0
 32 86  1  0
 32 87  1  0
 33 34  1  1
 33 35  1  0
 34 88  1  0
 34 89  1  0
 34 90  1  0
 36 37  1  0
 36 91  1  6
 37 38  1  0
 37 92  1  0
 37 93  1  0
 38 39  1  0
 38 94  1  0
 38 95  1  0
 39 40  1  1
 39 42  1  0
 40 41  1  0
 41 96  1  0
 41 97  1  0
 41 98  1  0
 42 43  1  0
 42 99  1  1
 43 44  2  0
 45 46  1  0
 46 47  1  0
 46100  1  0
 46101  1  0
 47102  1  0
 47103  1  0
 47104  1  0
M  END
>  <i_m_ct_stereo_status>  (110) 
1

>  <s_m_source_file>  (110) 
/var/tmp/pbs.5076255.sched01/tmpqm933_o1/456x1pmp19.sdf

>  <i_m_source_file_index>  (110) 
2

>  <i_lp_mmshare_version>  (110) 
48012

>  <i_f3d_flags>  (110) 
0

>  <s_epik_input>  (110) 
W0NAXTEyM1tDQF00NVtDQEBIXTZbQ0BAXTcoT1tDSDNdKVtDQEBdMShDKD1bQ0gyXSlbQ0gzXSlbQ0BASF0oW0NIMl1bQ0BdKFtDSDNdKShbQ0gyXTIpQzY9TylOKFtDSDJdW0NIM10pW0NASF0zW0NAQEhdKFtDSF09W0NIXVtDQEhdNE9bQ0gzXSlbQ0BdODlbQ0BAXTEoW0NAQEhdKFtDSDJdW0NIMl03KVtDQF0oTzEpKFtDSDNdKVtDQEBIXTVbQ0gzXSlPW0NASF0xW0NAXTkoW0NIM10pW0NIMl1bQ0gyXVtDSDJdW0NAQF04KFtDSDJdMSlbQ0gzXQ==

>  <s_epik_cmdline>  (110) 
J2VwaWtfcHl0aG9uJywgJy1waHQnLCAnMi4wJywgJy1waCcsICc3LjAnLCAnLXRuJywgJzgnLCAnLW1hJywgJzIwMCcsICctaW1hZScsICc8aW5maWxlLm1hZT4nLCAnLW9tYWUnLCAnPG91dGZpbGUubWFlPic=

>  <r_lp_tautomer_probability>  (110) 
0.99995

>  <r_epik_Ionization_Penalty>  (110) 
2.33981

>  <r_epik_Ionization_Penalty_Charging>  (110) 
0

>  <r_epik_Ionization_Penalty_Neutral>  (110) 
2.33981

>  <r_epik_State_Penalty>  (110) 
2.49334

>  <r_epik_Charging_Adjusted_Penalty>  (110) 
2.49334

>  <i_epik_Tot_Q>  (110) 
0

>  <i_epik_Tot_abs_Q>  (110) 
0

>  <s_lp_Force_Field>  (110) 
OPLS3e

>  <r_lp_Energy>  (110) 
426.055

>  <b_lp_Chiralities_Consistent>  (110) 
1

>  <s_lp_Variant>  (110) 
31:0-2

>  <s_i_glide_gridfile>  (110) 
pfpi4k_grid

>  <i_i_glide_lignum>  (110) 
2

>  <i_i_glide_rotatable_bonds>  (110) 
4

>  <r_i_docking_score>  (110) 
-1.53308

>  <r_i_glide_ligand_efficiency>  (110) 
-0.0326187

>  <r_i_glide_ligand_efficiency_sa>  (110) 
-0.117715

>  <r_i_glide_ligand_efficiency_ln>  (110) 
-0.316089

>  <r_i_glide_gscore>  (110) 
-1.53308

>  <r_i_glide_lipo>  (110) 
-0.210956

>  <r_i_glide_hbond>  (110) 
0

>  <r_i_glide_metal>  (110) 
-0

>  <r_i_glide_rewards>  (110) 
0

>  <r_i_glide_evdw>  (110) 
-22.5651

>  <r_i_glide_ecoul>  (110) 
-1.53188

>  <r_i_glide_erotb>  (110) 
0.0511493

>  <r_i_glide_esite>  (110) 
-0.0152334

>  <r_i_glide_emodel>  (110) 
-23.1812

>  <r_i_glide_energy>  (110) 
-24.097

>  <r_i_glide_einternal>  (110) 
4.75592

>  <r_i_glide_intrahb_reward>  (110) 
-0

>  <i_i_glide_confnum>  (110) 
4

>  <i_i_glide_posenum>  (110) 
7

>  <r_i_glide_eff_state_penalty>  (110) 
0

>  <ligand_id>  (110) 
31

>  <original_smiles>  (110) 
C=C(C)C12C3CC4(C)CC15C(C1C=CC(OC)C56C(C)C5(C)OC7(OC8CC9(C)CCCC8(C)C197)C5CCC2(OC)C6C4=O)N3CC

>  <smiles>  (110) 
[H]C([H])=C(C([H])([H])[H])C12C3([H])N(C([H])([H])C([H])([H])[H])C4([H])C5([H])C([H])=C([H])C([H])(OC([H])([H])[H])C67C([H])(C(=O)C(C([H])([H])[H])(C3([H])[H])C([H])([H])C416)C2(OC([H])([H])[H])C([H])([H])C([H])([H])C1([H])C2(OC3([H])C([H])([H])C4(C([H])([H])[H])C([H])([H])C([H])([H])C([H])([H])C3(C([H])([H])[H])C254)OC1(C([H])([H])[H])C7([H])C([H])([H])[H]

$$$$
31:1:2
     RDKit          3D

104114  0  0  1  0  0  0  0  0999 V2000
    0.6402    0.3488    9.0597 C   0  0  0  0  0  0  0  0  0  0  0  0
    0.0702    1.4996    8.6558 C   0  0  0  0  0  0  0  0  0  0  0  0
   -0.8482    2.1130    9.7014 C   0  0  0  0  0  0  0  0  0  0  0  0
    0.2624    2.2842    7.2640 C   0  0  2  0  0  0  0  0  0  0  0  0
   -1.0405    1.7165    6.6528 C   0  0  1  0  0  0  0  0  0  0  0  0
   -1.7618    2.8292    5.7965 C   0  0  0  0  0  0  0  0  0  0  0  0
   -0.8264    3.5641    4.8097 C   0  0  2  0  0  0  0  0  0  0  0  0
   -1.6183    4.0662    3.5735 C   0  0  0  0  0  0  0  0  0  0  0  0
    0.0850    2.4423    4.4738 C   0  0  0  0  0  0  0  0  0  0  0  0
    1.0233    2.0939    5.7962 C   0  0  2  0  0  0  0  0  0  0  0  0
    1.0383    0.6092    5.7999 C   0  0  2  0  0  0  0  0  0  0  0  0
    2.2420   -0.1073    5.0862 C   0  0  1  0  0  0  0  0  0  0  0  0
    2.6157    0.5673    3.7388 C   0  0  0  0  0  0  0  0  0  0  0  0
    2.7796    1.8523    3.3058 C   0  0  0  0  0  0  0  0  0  0  0  0
    2.6493    3.2390    3.9801 C   0  0  1  0  0  0  0  0  0  0  0  0
    1.9118    4.1703    3.1748 O   0  0  0  0  0  0  0  0  0  0  0  0
    2.4118    5.4928    3.0423 C   0  0  0  0  0  0  0  0  0  0  0  0
    2.2510    3.1632    5.5421 C   0  0  2  0  0  0  0  0  0  0  0  0
    3.7926    3.2709    6.0903 C   0  0  1  0  0  0  0  0  0  0  0  0
    4.3208    4.7384    6.1132 C   0  0  0  0  0  0  0  0  0  0  0  0
    4.3567    2.4306    7.2268 C   0  0  2  0  0  0  0  0  0  0  0  0
    5.4524    3.1104    8.0807 C   0  0  0  0  0  0  0  0  0  0  0  0
    5.0206    1.2395    6.7252 O   0  0  0  0  0  0  0  0  0  0  0  0
    4.0366    0.3452    7.2750 C   0  0  2  0  0  0  0  0  0  0  0  0
    4.6233   -0.5898    8.1536 O   0  0  0  0  0  0  0  0  0  0  0  0
    4.7448   -1.8282    7.4235 C   0  0  2  0  0  0  0  0  0  0  0  0
    5.7264   -1.5797    6.2665 C   0  0  0  0  0  0  0  0  0  0  0  0
    4.8016   -1.0261    5.1516 C   0  0  1  0  0  0  0  0  0  0  0  0
    5.5459    0.0582    4.3056 C   0  0  0  0  0  0  0  0  0  0  0  0
    4.5226   -2.1860    4.1357 C   0  0  0  0  0  0  0  0  0  0  0  0
    4.1080   -3.4956    4.7788 C   0  0  0  0  0  0  0  0  0  0  0  0
    3.1087   -3.2326    5.8848 C   0  0  0  0  0  0  0  0  0  0  0  0
    3.3535   -1.9671    6.7775 C   0  0  1  0  0  0  0  0  0  0  0  0
    2.3209   -2.1737    7.9026 C   0  0  0  0  0  0  0  0  0  0  0  0
    3.5106   -0.5811    6.0241 C   0  0  2  0  0  0  0  0  0  0  0  0
    3.3487    1.6287    7.8996 C   0  0  1  0  0  0  0  0  0  0  0  0
    2.8654    2.3214    9.1858 C   0  0  0  0  0  0  0  0  0  0  0  0
    1.9821    3.6199    8.7880 C   0  0  0  0  0  0  0  0  0  0  0  0
    0.8407    3.7024    7.6168 C   0  0  2  0  0  0  0  0  0  0  0  0
   -0.2145    4.5549    8.1260 O   0  0  0  0  0  0  0  0  0  0  0  0
    0.1146    5.9017    8.4762 C   0  0  0  0  0  0  0  0  0  0  0  0
    1.3511    4.2849    6.2250 C   0  0  2  0  0  0  0  0  0  0  0  0
    0.0858    4.6856    5.3857 C   0  0  0  0  0  0  0  0  0  0  0  0
   -0.1590    5.8778    5.1822 O   0  0  0  0  0  0  0  0  0  0  0  0
   -0.4417    0.4089    6.0679 N   0  0  0  0  0  0  0  0  0  0  0  0
   -1.2682   -0.5144    5.2884 C   0  0  0  0  0  0  0  0  0  0  0  0
   -0.7969   -1.9672    5.4635 C   0  0  0  0  0  0  0  0  0  0  0  0
    0.3973   -0.1237   10.0118 H   0  0  0  0  0  0  0  0  0  0  0  0
    1.3464   -0.1250    8.4711 H   0  0  0  0  0  0  0  0  0  0  0  0
   -1.8743    2.2628    9.3714 H   0  0  0  0  0  0  0  0  0  0  0  0
   -0.4739    3.0633   10.0922 H   0  0  0  0  0  0  0  0  0  0  0  0
   -0.9032    1.4697   10.5832 H   0  0  0  0  0  0  0  0  0  0  0  0
   -1.7994    1.4289    7.3752 H   0  0  0  0  0  0  0  0  0  0  0  0
   -2.6061    2.3968    5.2579 H   0  0  0  0  0  0  0  0  0  0  0  0
   -2.1976    3.5747    6.4590 H   0  0  0  0  0  0  0  0  0  0  0  0
   -2.0882    3.2501    3.0244 H   0  0  0  0  0  0  0  0  0  0  0  0
   -0.9622    4.5876    2.8755 H   0  0  0  0  0  0  0  0  0  0  0  0
   -2.4106    4.7626    3.8507 H   0  0  0  0  0  0  0  0  0  0  0  0
   -0.5543    1.6533    4.1109 H   0  0  0  0  0  0  0  0  0  0  0  0
    0.4743    2.5528    3.4797 H   0  0  0  0  0  0  0  0  0  0  0  0
    1.3108    0.2078    6.7365 H   0  0  0  0  0  0  0  0  0  0  0  0
    1.8482   -1.0478    4.7028 H   0  0  0  0  0  0  0  0  0  0  0  0
    2.7372   -0.1541    2.9541 H   0  0  0  0  0  0  0  0  0  0  0  0
    3.0147    1.9545    2.2556 H   0  0  0  0  0  0  0  0  0  0  0  0
    3.6503    3.6219    3.7638 H   0  0  0  0  0  0  0  0  0  0  0  0
    1.6849    6.0861    2.4898 H   0  0  0  0  0  0  0  0  0  0  0  0
    3.3529    5.5054    2.4910 H   0  0  0  0  0  0  0  0  0  0  0  0
    2.5494    5.9753    4.0087 H   0  0  0  0  0  0  0  0  0  0  0  0
    4.4507    2.8478    5.3397 H   0  0  0  0  0  0  0  0  0  0  0  0
    4.0081    5.2742    7.0079 H   0  0  0  0  0  0  0  0  0  0  0  0
    3.9791    5.3075    5.2485 H   0  0  0  0  0  0  0  0  0  0  0  0
    5.4113    4.7734    6.0701 H   0  0  0  0  0  0  0  0  0  0  0  0
    5.0883    4.0094    8.5730 H   0  0  0  0  0  0  0  0  0  0  0  0
    6.3302    3.3846    7.4941 H   0  0  0  0  0  0  0  0  0  0  0  0
    5.8064    2.4480    8.8746 H   0  0  0  0  0  0  0  0  0  0  0  0
    5.0311   -2.6649    8.0605 H   0  0  0  0  0  0  0  0  0  0  0  0
    6.4971   -0.8747    6.5781 H   0  0  0  0  0  0  0  0  0  0  0  0
    6.2509   -2.4828    5.9724 H   0  0  0  0  0  0  0  0  0  0  0  0
    5.4287   -0.1040    3.2373 H   0  0  0  0  0  0  0  0  0  0  0  0
    6.6137    0.0846    4.5116 H   0  0  0  0  0  0  0  0  0  0  0  0
    5.1732    1.0553    4.4610 H   0  0  0  0  0  0  0  0  0  0  0  0
    3.7666   -1.9133    3.4119 H   0  0  0  0  0  0  0  0  0  0  0  0
    5.4200   -2.3893    3.5454 H   0  0  0  0  0  0  0  0  0  0  0  0
    3.6744   -4.1621    4.0371 H   0  0  0  0  0  0  0  0  0  0  0  0
    4.9709   -4.0321    5.1761 H   0  0  0  0  0  0  0  0  0  0  0  0
    2.1168   -3.1780    5.4463 H   0  0  0  0  0  0  0  0  0  0  0  0
    3.0936   -4.1360    6.4981 H   0  0  0  0  0  0  0  0  0  0  0  0
    1.3107   -1.9599    7.5625 H   0  0  0  0  0  0  0  0  0  0  0  0
    2.5745   -1.6338    8.8143 H   0  0  0  0  0  0  0  0  0  0  0  0
    2.2936   -3.2085    8.2484 H   0  0  0  0  0  0  0  0  0  0  0  0
    2.5156    1.5508    7.3566 H   0  0  0  0  0  0  0  0  0  0  0  0
    2.3896    1.6662    9.9097 H   0  0  0  0  0  0  0  0  0  0  0  0
    3.7033    2.6727    9.7850 H   0  0  0  0  0  0  0  0  0  0  0  0
    1.5088    3.9017    9.7251 H   0  0  0  0  0  0  0  0  0  0  0  0
    2.6638    4.4430    8.5900 H   0  0  0  0  0  0  0  0  0  0  0  0
   -0.7973    6.4445    8.7180 H   0  0  0  0  0  0  0  0  0  0  0  0
    0.6013    6.4511    7.6690 H   0  0  0  0  0  0  0  0  0  0  0  0
    0.7602    5.9580    9.3504 H   0  0  0  0  0  0  0  0  0  0  0  0
    1.9009    5.2000    6.3655 H   0  0  0  0  0  0  0  0  0  0  0  0
   -2.2985   -0.4348    5.6389 H   0  0  0  0  0  0  0  0  0  0  0  0
   -1.2887   -0.2584    4.2306 H   0  0  0  0  0  0  0  0  0  0  0  0
   -1.4289   -2.6552    4.9131 H   0  0  0  0  0  0  0  0  0  0  0  0
   -0.7950   -2.2764    6.5086 H   0  0  0  0  0  0  0  0  0  0  0  0
    0.1939   -2.1333    5.0484 H   0  0  0  0  0  0  0  0  0  0  0  0
  1  2  2  0
  1 48  1  0
  1 49  1  0
  2  3  1  0
  4  2  1  1
  3 50  1  0
  3 51  1  0
  3 52  1  0
  4 10  1  0
  4 39  1  0
  4  5  1  0
  5 45  1  0
  5  6  1  0
  5 53  1  1
  6  7  1  0
  6 54  1  0
  6 55  1  0
  7 43  1  0
  7  8  1  6
  7  9  1  0
  8 56  1  0
  8 57  1  0
  8 58  1  0
 10  9  1  6
  9 59  1  0
  9 60  1  0
 18 10  1  6
 10 11  1  0
 11 12  1  0
 11 45  1  0
 11 61  1  1
 12 35  1  0
 12 13  1  0
 12 62  1  6
 13 14  2  0
 13 63  1  0
 14 15  1  0
 14 64  1  0
 15 16  1  0
 15 18  1  0
 15 65  1  1
 16 17  1  0
 17 66  1  0
 17 67  1  0
 17 68  1  0
 18 42  1  0
 18 19  1  0
 19 20  1  0
 19 21  1  0
 19 69  1  6
 20 70  1  0
 20 71  1  0
 20 72  1  0
 21 36  1  0
 21 22  1  1
 21 23  1  0
 22 73  1  0
 22 74  1  0
 22 75  1  0
 24 23  1  6
 24 35  1  0
 24 25  1  0
 24 36  1  0
 25 26  1  0
 26 33  1  0
 26 27  1  0
 26 76  1  1
 27 28  1  0
 27 77  1  0
 27 78  1  0
 35 28  1  6
 28 29  1  6
 28 30  1  0
 29 79  1  0
 29 80  1  0
 29 81  1  0
 30 31  1  0
 30 82  1  0
 30 83  1  0
 31 32  1  0
 31 84  1  0
 31 85  1  0
 32 33  1  0
 32 86  1  0
 32 87  1  0
 33 34  1  1
 33 35  1  0
 34 88  1  0
 34 89  1  0
 34 90  1  0
 36 37  1  0
 36 91  1  6
 37 38  1  0
 37 92  1  0
 37 93  1  0
 38 39  1  0
 38 94  1  0
 38 95  1  0
 39 40  1  1
 39 42  1  0
 40 41  1  0
 41 96  1  0
 41 97  1  0
 41 98  1  0
 42 43  1  0
 42 99  1  1
 43 44  2  0
 45 46  1  0
 46 47  1  0
 46100  1  0
 46101  1  0
 47102  1  0
 47103  1  0
 47104  1  0
M  END
>  <i_m_ct_stereo_status>  (111) 
1

>  <s_m_source_file>  (111) 
/var/tmp/pbs.5076255.sched01/tmpqm933_o1/456x1pmp19.sdf

>  <i_m_source_file_index>  (111) 
2

>  <i_lp_mmshare_version>  (111) 
48012

>  <i_f3d_flags>  (111) 
0

>  <s_epik_input>  (111) 
W0NAXTEyM1tDQF00NVtDQEBIXTZbQ0BAXTcoT1tDSDNdKVtDQEBdMShDKD1bQ0gyXSlbQ0gzXSlbQ0BASF0oW0NIMl1bQ0BdKFtDSDNdKShbQ0gyXTIpQzY9TylOKFtDSDJdW0NIM10pW0NASF0zW0NAQEhdKFtDSF09W0NIXVtDQEhdNE9bQ0gzXSlbQ0BdODlbQ0BAXTEoW0NAQEhdKFtDSDJdW0NIMl03KVtDQF0oTzEpKFtDSDNdKVtDQEBIXTVbQ0gzXSlPW0NASF0xW0NAXTkoW0NIM10pW0NIMl1bQ0gyXVtDSDJdW0NAQF04KFtDSDJdMSlbQ0gzXQ==

>  <s_epik_cmdline>  (111) 
J2VwaWtfcHl0aG9uJywgJy1waHQnLCAnMi4wJywgJy1waCcsICc3LjAnLCAnLXRuJywgJzgnLCAnLW1hJywgJzIwMCcsICctaW1hZScsICc8aW5maWxlLm1hZT4nLCAnLW9tYWUnLCAnPG91dGZpbGUubWFlPic=

>  <r_lp_tautomer_probability>  (111) 
0.99995

>  <r_epik_Ionization_Penalty>  (111) 
2.33981

>  <r_epik_Ionization_Penalty_Charging>  (111) 
0

>  <r_epik_Ionization_Penalty_Neutral>  (111) 
2.33981

>  <r_epik_State_Penalty>  (111) 
2.49334

>  <r_epik_Charging_Adjusted_Penalty>  (111) 
2.49334

>  <i_epik_Tot_Q>  (111) 
0

>  <i_epik_Tot_abs_Q>  (111) 
0

>  <s_lp_Force_Field>  (111) 
OPLS3e

>  <r_lp_Energy>  (111) 
426.055

>  <b_lp_Chiralities_Consistent>  (111) 
1

>  <s_lp_Variant>  (111) 
31:0-2

>  <s_i_glide_gridfile>  (111) 
pfpi4k_grid

>  <i_i_glide_lignum>  (111) 
2

>  <i_i_glide_rotatable_bonds>  (111) 
4

>  <r_i_docking_score>  (111) 
-1.52481

>  <r_i_glide_ligand_efficiency>  (111) 
-0.0324428

>  <r_i_glide_ligand_efficiency_sa>  (111) 
-0.11708

>  <r_i_glide_ligand_efficiency_ln>  (111) 
-0.314384

>  <r_i_glide_gscore>  (111) 
-1.52481

>  <r_i_glide_lipo>  (111) 
-0.206608

>  <r_i_glide_hbond>  (111) 
0

>  <r_i_glide_metal>  (111) 
-0

>  <r_i_glide_rewards>  (111) 
0

>  <r_i_glide_evdw>  (111) 
-23.2003

>  <r_i_glide_ecoul>  (111) 
-1.28251

>  <r_i_glide_erotb>  (111) 
0.0511493

>  <r_i_glide_esite>  (111) 
-0.0169594

>  <r_i_glide_emodel>  (111) 
-24.0432

>  <r_i_glide_energy>  (111) 
-24.4828

>  <r_i_glide_einternal>  (111) 
2.73714

>  <r_i_glide_intrahb_reward>  (111) 
-0

>  <i_i_glide_confnum>  (111) 
3

>  <i_i_glide_posenum>  (111) 
10

>  <r_i_glide_eff_state_penalty>  (111) 
0

>  <ligand_id>  (111) 
31

>  <original_smiles>  (111) 
C=C(C)C12C3CC4(C)CC15C(C1C=CC(OC)C56C(C)C5(C)OC7(OC8CC9(C)CCCC8(C)C197)C5CCC2(OC)C6C4=O)N3CC

>  <smiles>  (111) 
[H]C([H])=C(C([H])([H])[H])C12C3([H])N(C([H])([H])C([H])([H])[H])C4([H])C5([H])C([H])=C([H])C([H])(OC([H])([H])[H])C67C([H])(C(=O)C(C([H])([H])[H])(C3([H])[H])C([H])([H])C416)C2(OC([H])([H])[H])C([H])([H])C([H])([H])C1([H])C2(OC3([H])C([H])([H])C4(C([H])([H])[H])C([H])([H])C([H])([H])C([H])([H])C3(C([H])([H])[H])C254)OC1(C([H])([H])[H])C7([H])C([H])([H])[H]

$$$$
32:0:0
     RDKit          3D

 68 72  0  0  1  0  0  0  0  0999 V2000
    5.0347   -3.6460   -1.7766 C   0  0  0  0  0  0  0  0  0  0  0  0
    3.9212   -2.6557   -2.0668 C   0  0  0  0  0  0  0  0  0  0  0  0
    3.2608   -2.8453   -3.4208 C   0  0  0  0  0  0  0  0  0  0  0  0
    3.5265   -1.6726   -1.2264 C   0  0  0  0  0  0  0  0  0  0  0  0
    4.0930   -1.3583    0.1504 C   0  0  0  0  0  0  0  0  0  0  0  0
    3.0094   -1.0325    1.1997 C   0  0  0  0  0  0  0  0  0  0  0  0
    3.5386   -0.7834    2.6470 C   0  0  1  0  0  0  0  0  0  0  0  0
    4.2906   -1.9990    3.2536 C   0  0  0  0  0  0  0  0  0  0  0  0
    4.6023    0.1394    2.4354 O   0  0  0  0  0  0  0  0  0  0  0  0
    2.4214   -0.1282    3.5875 C   0  0  2  0  0  0  0  0  0  0  0  0
    3.0586    0.9676    4.5415 C   0  0  0  0  0  0  0  0  0  0  0  0
    2.3070    2.1417    5.2742 C   0  0  1  0  0  0  0  0  0  0  0  0
    3.4317    2.7820    6.1500 C   0  0  0  0  0  0  0  0  0  0  0  0
    1.7935    3.2623    4.3134 C   0  0  1  0  0  0  0  0  0  0  0  0
    0.7477    2.7972    3.2987 C   0  0  0  0  0  0  0  0  0  0  0  0
   -0.3421    1.8644    3.8604 C   0  0  0  0  0  0  0  0  0  0  0  0
   -0.0160    1.0779    5.1714 C   0  0  1  0  0  0  0  0  0  0  0  0
    0.1558   -0.4547    4.9566 C   0  0  2  0  0  0  0  0  0  0  0  0
   -1.1139   -0.8900    4.4883 O   0  0  0  0  0  0  0  0  0  0  0  0
    0.4539   -1.2720    6.2325 C   0  0  0  0  0  0  0  0  0  0  0  0
   -0.1975   -1.6205    7.2212 O   0  0  0  0  0  0  0  0  0  0  0  0
    1.8785   -1.5428    5.7634 C   0  0  0  0  0  0  0  0  0  0  0  0
    1.4383   -1.1172    4.3255 C   0  0  2  0  0  0  0  0  0  0  0  0
    1.0126   -2.3172    3.4374 C   0  0  0  0  0  0  0  0  0  0  0  0
    1.0535    1.7664    6.0396 C   0  0  1  0  0  0  0  0  0  0  0  0
    0.9110    1.3619    7.3902 O   0  0  0  0  0  0  0  0  0  0  0  0
    0.7668    2.7826    7.1404 C   0  0  2  0  0  0  0  0  0  0  0  0
   -0.3486    3.6652    6.6313 C   0  0  1  0  0  0  0  0  0  0  0  0
   -1.0151    4.2429    7.7402 O   0  0  0  0  0  0  0  0  0  0  0  0
    0.2635    4.7795    5.7373 C   0  0  0  0  0  0  0  0  0  0  0  0
   -0.1862    5.9205    5.8069 O   0  0  0  0  0  0  0  0  0  0  0  0
    1.3433    4.5013    4.9076 O   0  0  0  0  0  0  0  0  0  0  0  0
    4.6345   -4.6586   -1.8055 H   0  0  0  0  0  0  0  0  0  0  0  0
    5.5246   -3.5144   -0.8145 H   0  0  0  0  0  0  0  0  0  0  0  0
    5.8038   -3.5664   -2.5446 H   0  0  0  0  0  0  0  0  0  0  0  0
    4.0018   -2.7503   -4.2135 H   0  0  0  0  0  0  0  0  0  0  0  0
    2.4730   -2.1137   -3.6046 H   0  0  0  0  0  0  0  0  0  0  0  0
    2.8178   -3.8389   -3.4920 H   0  0  0  0  0  0  0  0  0  0  0  0
    2.7328   -1.0175   -1.5563 H   0  0  0  0  0  0  0  0  0  0  0  0
    4.6776   -2.1815    0.5476 H   0  0  0  0  0  0  0  0  0  0  0  0
    4.7739   -0.5160    0.0171 H   0  0  0  0  0  0  0  0  0  0  0  0
    2.4553   -0.1539    0.8556 H   0  0  0  0  0  0  0  0  0  0  0  0
    2.3028   -1.8606    1.1815 H   0  0  0  0  0  0  0  0  0  0  0  0
    3.8012   -2.9571    3.1241 H   0  0  0  0  0  0  0  0  0  0  0  0
    4.4781   -1.8547    4.3153 H   0  0  0  0  0  0  0  0  0  0  0  0
    5.2702   -2.1282    2.7872 H   0  0  0  0  0  0  0  0  0  0  0  0
    4.2547    1.0156    2.3226 H   0  0  0  0  0  0  0  0  0  0  0  0
    1.8040    0.4210    2.8906 H   0  0  0  0  0  0  0  0  0  0  0  0
    3.7243    0.4639    5.2469 H   0  0  0  0  0  0  0  0  0  0  0  0
    3.7284    1.5723    3.9393 H   0  0  0  0  0  0  0  0  0  0  0  0
    3.1994    3.7855    6.5079 H   0  0  0  0  0  0  0  0  0  0  0  0
    4.3510    2.9152    5.5799 H   0  0  0  0  0  0  0  0  0  0  0  0
    3.6807    2.1597    7.0144 H   0  0  0  0  0  0  0  0  0  0  0  0
    2.6537    3.5872    3.7290 H   0  0  0  0  0  0  0  0  0  0  0  0
    0.2642    3.6797    2.8834 H   0  0  0  0  0  0  0  0  0  0  0  0
    1.2484    2.3519    2.4401 H   0  0  0  0  0  0  0  0  0  0  0  0
   -1.2406    2.4626    4.0326 H   0  0  0  0  0  0  0  0  0  0  0  0
   -0.6209    1.1825    3.0571 H   0  0  0  0  0  0  0  0  0  0  0  0
   -0.9289    1.1376    5.7636 H   0  0  0  0  0  0  0  0  0  0  0  0
   -1.3025   -0.3853    3.7181 H   0  0  0  0  0  0  0  0  0  0  0  0
    2.5942   -0.8945    6.2657 H   0  0  0  0  0  0  0  0  0  0  0  0
    2.2030   -2.5820    5.8236 H   0  0  0  0  0  0  0  0  0  0  0  0
    0.2484   -2.9199    3.9345 H   0  0  0  0  0  0  0  0  0  0  0  0
    1.7874   -3.0349    3.2146 H   0  0  0  0  0  0  0  0  0  0  0  0
    0.5730   -1.9831    2.5029 H   0  0  0  0  0  0  0  0  0  0  0  0
    1.5295    3.3257    7.6870 H   0  0  0  0  0  0  0  0  0  0  0  0
   -1.1024    3.1289    6.0674 H   0  0  0  0  0  0  0  0  0  0  0  0
   -0.3740    4.6693    8.2881 H   0  0  0  0  0  0  0  0  0  0  0  0
  1  2  1  0
  1 33  1  0
  1 34  1  0
  1 35  1  0
  2  3  1  0
  2  4  2  3
  3 36  1  0
  3 37  1  0
  3 38  1  0
  4  5  1  0
  4 39  1  0
  5  6  1  0
  5 40  1  0
  5 41  1  0
  6  7  1  0
  6 42  1  0
  6 43  1  0
  7  8  1  0
  7  9  1  6
  7 10  1  0
  8 44  1  0
  8 45  1  0
  8 46  1  0
  9 47  1  0
 10 23  1  0
 10 11  1  0
 10 48  1  6
 11 12  1  0
 11 49  1  0
 11 50  1  0
 12 25  1  0
 12 13  1  1
 12 14  1  0
 13 51  1  0
 13 52  1  0
 13 53  1  0
 14 32  1  0
 14 15  1  0
 14 54  1  6
 15 16  1  0
 15 55  1  0
 15 56  1  0
 16 17  1  0
 16 57  1  0
 16 58  1  0
 17 18  1  0
 17 25  1  0
 17 59  1  1
 18 23  1  0
 18 19  1  6
 18 20  1  0
 19 60  1  0
 20 21  2  0
 20 22  1  0
 22 23  1  0
 22 61  1  0
 22 62  1  0
 23 24  1  6
 24 63  1  0
 24 64  1  0
 24 65  1  0
 25 27  1  0
 25 26  1  1
 26 27  1  0
 27 28  1  0
 27 66  1  1
 28 29  1  0
 28 30  1  0
 28 67  1  6
 29 68  1  0
 30 31  2  0
 30 32  1  0
M  END
>  <i_m_ct_stereo_status>  (112) 
1

>  <s_m_source_file>  (112) 
/var/tmp/pbs.5076255.sched01/tmpqm933_o1/456x1pmp19.sdf

>  <i_m_source_file_index>  (112) 
3

>  <i_lp_mmshare_version>  (112) 
48012

>  <i_f3d_flags>  (112) 
0

>  <s_epik_input>  (112) 
W0NIM11DKFtDSDNdKT1bQ0hdW0NIMl1bQ0gyXVtDQEBdKFtDSDNdKShbT0hdKVtDQEhdKFtDSDJdMSlbQ0BAXShbQ0gzXSkoW0NIMl1DMj1PKVtDQF0yKFtPSF0pW0NAQEhdM1tDSDJdW0NIMl1bQ0BIXShbQ0BdMShbQ0BAXTM0NSlbQ0gzXSlPQyg9TylbQ0BASF0oW0NASF01TzQpW09IXQ==

>  <s_epik_cmdline>  (112) 
J2VwaWtfcHl0aG9uJywgJy1waHQnLCAnMi4wJywgJy1waCcsICc3LjAnLCAnLXRuJywgJzgnLCAnLW1hJywgJzIwMCcsICctaW1hZScsICc8aW5maWxlLm1hZT4nLCAnLW9tYWUnLCAnPG91dGZpbGUubWFlPic=

>  <r_epik_Ionization_Penalty>  (112) 
0.000310349

>  <r_epik_Ionization_Penalty_Charging>  (112) 
0

>  <r_epik_Ionization_Penalty_Neutral>  (112) 
0.000310349

>  <r_epik_State_Penalty>  (112) 
0.000186875

>  <r_epik_Charging_Adjusted_Penalty>  (112) 
0.000186875

>  <i_epik_Tot_Q>  (112) 
0

>  <i_epik_Tot_abs_Q>  (112) 
0

>  <s_epik_Chemistry_Notes>  (112) 
This compound has an ester and may undergo hydrolysis at high or low pH.

>  <s_lp_Force_Field>  (112) 
OPLS3e

>  <r_lp_Energy>  (112) 
92.4265

>  <b_lp_Chiralities_Consistent>  (112) 
1

>  <s_lp_Variant>  (112) 
32:0-1

>  <s_i_glide_gridfile>  (112) 
pfpi4k_grid

>  <i_i_glide_lignum>  (112) 
3

>  <i_i_glide_rotatable_bonds>  (112) 
7

>  <r_i_docking_score>  (112) 
-2.76

>  <r_i_glide_ligand_efficiency>  (112) 
-0.08625

>  <r_i_glide_ligand_efficiency_sa>  (112) 
-0.273827

>  <r_i_glide_ligand_efficiency_ln>  (112) 
-0.618039

>  <r_i_glide_gscore>  (112) 
-2.76

>  <r_i_glide_lipo>  (112) 
-0.274659

>  <r_i_glide_hbond>  (112) 
-0.1985

>  <r_i_glide_metal>  (112) 
-0

>  <r_i_glide_rewards>  (112) 
-0.350801

>  <r_i_glide_evdw>  (112) 
-20.9118

>  <r_i_glide_ecoul>  (112) 
-8.40479

>  <r_i_glide_erotb>  (112) 
0.398291

>  <r_i_glide_esite>  (112) 
-0.0280236

>  <r_i_glide_emodel>  (112) 
-29.8367

>  <r_i_glide_energy>  (112) 
-29.3166

>  <r_i_glide_einternal>  (112) 
8.79162

>  <r_i_glide_intrahb_reward>  (112) 
-0

>  <i_i_glide_confnum>  (112) 
5

>  <i_i_glide_posenum>  (112) 
13

>  <r_i_glide_eff_state_penalty>  (112) 
0

>  <ligand_id>  (112) 
32

>  <original_smiles>  (112) 
CC(C)=CCCC(C)(O)C1CC2(C)C3CCC(C4(O)C(=O)CC14C)C21OC1C(O)C(=O)O3

>  <smiles>  (112) 
[H]OC1([H])C(=O)OC2([H])C([H])([H])C([H])([H])C3([H])C4(O[H])C(=O)C([H])([H])C4(C([H])([H])[H])C([H])(C(O[H])(C([H])([H])[H])C([H])([H])C([H])([H])C([H])=C(C([H])([H])[H])C([H])([H])[H])C([H])([H])C2(C([H])([H])[H])C32OC12[H]

$$$$
32:0:1
     RDKit          3D

 68 72  0  0  1  0  0  0  0  0999 V2000
    5.1785   -3.7858   -1.5849 C   0  0  0  0  0  0  0  0  0  0  0  0
    4.1550   -2.7201   -1.9484 C   0  0  0  0  0  0  0  0  0  0  0  0
    3.5666   -2.8825   -3.3389 C   0  0  0  0  0  0  0  0  0  0  0  0
    3.7833   -1.7042   -1.1429 C   0  0  0  0  0  0  0  0  0  0  0  0
    4.3003   -1.4009    0.2561 C   0  0  0  0  0  0  0  0  0  0  0  0
    3.1792   -1.0036    1.2312 C   0  0  0  0  0  0  0  0  0  0  0  0
    3.6308   -0.7426    2.7084 C   0  0  1  0  0  0  0  0  0  0  0  0
    4.2823   -1.9721    3.3871 C   0  0  0  0  0  0  0  0  0  0  0  0
    4.7286    0.1419    2.5313 O   0  0  0  0  0  0  0  0  0  0  0  0
    2.4950   -0.0327    3.5749 C   0  0  2  0  0  0  0  0  0  0  0  0
    3.1326    0.9554    4.6484 C   0  0  0  0  0  0  0  0  0  0  0  0
    2.4238    2.1579    5.3616 C   0  0  1  0  0  0  0  0  0  0  0  0
    3.5075    2.6496    6.3766 C   0  0  0  0  0  0  0  0  0  0  0  0
    2.0943    3.3618    4.4295 C   0  0  1  0  0  0  0  0  0  0  0  0
    1.1184    3.0382    3.2982 C   0  0  0  0  0  0  0  0  0  0  0  0
   -0.0997    2.1829    3.7107 C   0  0  0  0  0  0  0  0  0  0  0  0
    0.0412    1.3094    4.9986 C   0  0  1  0  0  0  0  0  0  0  0  0
    0.0960   -0.2157    4.7130 C   0  0  2  0  0  0  0  0  0  0  0  0
   -1.1540   -0.5241    4.1272 O   0  0  0  0  0  0  0  0  0  0  0  0
    0.2000   -1.1176    5.9755 C   0  0  0  0  0  0  0  0  0  0  0  0
   -0.5767   -1.4582    6.8677 O   0  0  0  0  0  0  0  0  0  0  0  0
    1.6394   -1.4911    5.6221 C   0  0  0  0  0  0  0  0  0  0  0  0
    1.3745   -0.9635    4.1774 C   0  0  2  0  0  0  0  0  0  0  0  0
    0.9458   -2.0885    3.2083 C   0  0  0  0  0  0  0  0  0  0  0  0
    1.0682    1.8632    6.0055 C   0  0  1  0  0  0  0  0  0  0  0  0
    0.7703    1.4115    7.3017 O   0  0  0  0  0  0  0  0  0  0  0  0
    0.7729    2.8431    7.1144 C   0  0  2  0  0  0  0  0  0  0  0  0
   -0.2151    3.8507    6.5688 C   0  0  1  0  0  0  0  0  0  0  0  0
   -0.9227    4.4265    7.6415 O   0  0  0  0  0  0  0  0  0  0  0  0
    0.5599    4.9378    5.7782 C   0  0  0  0  0  0  0  0  0  0  0  0
    0.1659    6.1113    5.8454 O   0  0  0  0  0  0  0  0  0  0  0  0
    1.6909    4.6079    5.0526 O   0  0  0  0  0  0  0  0  0  0  0  0
    4.7084   -4.7676   -1.6251 H   0  0  0  0  0  0  0  0  0  0  0  0
    5.6208   -3.6806   -0.5983 H   0  0  0  0  0  0  0  0  0  0  0  0
    5.9947   -3.7696   -2.3056 H   0  0  0  0  0  0  0  0  0  0  0  0
    4.3598   -2.8511   -4.0849 H   0  0  0  0  0  0  0  0  0  0  0  0
    2.8451   -2.0989   -3.5774 H   0  0  0  0  0  0  0  0  0  0  0  0
    3.0606   -3.8441   -3.4286 H   0  0  0  0  0  0  0  0  0  0  0  0
    3.0408   -1.0059   -1.5112 H   0  0  0  0  0  0  0  0  0  0  0  0
    4.8036   -2.2540    0.7003 H   0  0  0  0  0  0  0  0  0  0  0  0
    5.0416   -0.6063    0.1554 H   0  0  0  0  0  0  0  0  0  0  0  0
    2.6651   -0.1205    0.8382 H   0  0  0  0  0  0  0  0  0  0  0  0
    2.4697   -1.8242    1.1638 H   0  0  0  0  0  0  0  0  0  0  0  0
    3.7272   -2.8974    3.2929 H   0  0  0  0  0  0  0  0  0  0  0  0
    4.4451   -1.7995    4.4479 H   0  0  0  0  0  0  0  0  0  0  0  0
    5.2558   -2.1903    2.9534 H   0  0  0  0  0  0  0  0  0  0  0  0
    4.4260    1.0345    2.4543 H   0  0  0  0  0  0  0  0  0  0  0  0
    1.9941    0.5971    2.8512 H   0  0  0  0  0  0  0  0  0  0  0  0
    3.6794    0.3548    5.3780 H   0  0  0  0  0  0  0  0  0  0  0  0
    3.9170    1.5183    4.1477 H   0  0  0  0  0  0  0  0  0  0  0  0
    3.3320    3.6522    6.7627 H   0  0  0  0  0  0  0  0  0  0  0  0
    4.4873    2.7265    5.8972 H   0  0  0  0  0  0  0  0  0  0  0  0
    3.6233    1.9712    7.2220 H   0  0  0  0  0  0  0  0  0  0  0  0
    3.0326    3.6344    3.9420 H   0  0  0  0  0  0  0  0  0  0  0  0
    0.7540    3.9768    2.8861 H   0  0  0  0  0  0  0  0  0  0  0  0
    1.6561    2.5877    2.4684 H   0  0  0  0  0  0  0  0  0  0  0  0
   -0.9536    2.8511    3.8344 H   0  0  0  0  0  0  0  0  0  0  0  0
   -0.3587    1.5663    2.8479 H   0  0  0  0  0  0  0  0  0  0  0  0
   -0.9228    1.4231    5.5099 H   0  0  0  0  0  0  0  0  0  0  0  0
   -1.2456    0.0394    3.3709 H   0  0  0  0  0  0  0  0  0  0  0  0
    2.3504   -0.9340    6.2259 H   0  0  0  0  0  0  0  0  0  0  0  0
    1.8596   -2.5564    5.6552 H   0  0  0  0  0  0  0  0  0  0  0  0
    0.1173   -2.6688    3.6130 H   0  0  0  0  0  0  0  0  0  0  0  0
    1.6956   -2.8393    3.0160 H   0  0  0  0  0  0  0  0  0  0  0  0
    0.6118   -1.6822    2.2565 H   0  0  0  0  0  0  0  0  0  0  0  0
    1.5225    3.2989    7.7623 H   0  0  0  0  0  0  0  0  0  0  0  0
   -0.9548    3.4017    5.9108 H   0  0  0  0  0  0  0  0  0  0  0  0
   -1.3321    3.7358    8.1476 H   0  0  0  0  0  0  0  0  0  0  0  0
  1  2  1  0
  1 33  1  0
  1 34  1  0
  1 35  1  0
  2  3  1  0
  2  4  2  3
  3 36  1  0
  3 37  1  0
  3 38  1  0
  4  5  1  0
  4 39  1  0
  5  6  1  0
  5 40  1  0
  5 41  1  0
  6  7  1  0
  6 42  1  0
  6 43  1  0
  7  8  1  0
  7  9  1  6
  7 10  1  0
  8 44  1  0
  8 45  1  0
  8 46  1  0
  9 47  1  0
 10 23  1  0
 10 11  1  0
 10 48  1  6
 11 12  1  0
 11 49  1  0
 11 50  1  0
 12 25  1  0
 12 13  1  1
 12 14  1  0
 13 51  1  0
 13 52  1  0
 13 53  1  0
 14 32  1  0
 14 15  1  0
 14 54  1  6
 15 16  1  0
 15 55  1  0
 15 56  1  0
 16 17  1  0
 16 57  1  0
 16 58  1  0
 17 18  1  0
 17 25  1  0
 17 59  1  1
 18 23  1  0
 18 19  1  6
 18 20  1  0
 19 60  1  0
 20 21  2  0
 20 22  1  0
 22 23  1  0
 22 61  1  0
 22 62  1  0
 23 24  1  6
 24 63  1  0
 24 64  1  0
 24 65  1  0
 25 27  1  0
 25 26  1  1
 26 27  1  0
 27 28  1  0
 27 66  1  1
 28 29  1  0
 28 30  1  0
 28 67  1  6
 29 68  1  0
 30 31  2  0
 30 32  1  0
M  END
>  <i_m_ct_stereo_status>  (113) 
1

>  <s_m_source_file>  (113) 
/var/tmp/pbs.5076255.sched01/tmpqm933_o1/456x1pmp19.sdf

>  <i_m_source_file_index>  (113) 
3

>  <i_lp_mmshare_version>  (113) 
48012

>  <i_f3d_flags>  (113) 
0

>  <s_epik_input>  (113) 
W0NIM11DKFtDSDNdKT1bQ0hdW0NIMl1bQ0gyXVtDQEBdKFtDSDNdKShbT0hdKVtDQEhdKFtDSDJdMSlbQ0BAXShbQ0gzXSkoW0NIMl1DMj1PKVtDQF0yKFtPSF0pW0NAQEhdM1tDSDJdW0NIMl1bQ0BIXShbQ0BdMShbQ0BAXTM0NSlbQ0gzXSlPQyg9TylbQ0BASF0oW0NASF01TzQpW09IXQ==

>  <s_epik_cmdline>  (113) 
J2VwaWtfcHl0aG9uJywgJy1waHQnLCAnMi4wJywgJy1waCcsICc3LjAnLCAnLXRuJywgJzgnLCAnLW1hJywgJzIwMCcsICctaW1hZScsICc8aW5maWxlLm1hZT4nLCAnLW9tYWUnLCAnPG91dGZpbGUubWFlPic=

>  <r_epik_Ionization_Penalty>  (113) 
0.000310349

>  <r_epik_Ionization_Penalty_Charging>  (113) 
0

>  <r_epik_Ionization_Penalty_Neutral>  (113) 
0.000310349

>  <r_epik_State_Penalty>  (113) 
0.000186875

>  <r_epik_Charging_Adjusted_Penalty>  (113) 
0.000186875

>  <i_epik_Tot_Q>  (113) 
0

>  <i_epik_Tot_abs_Q>  (113) 
0

>  <s_epik_Chemistry_Notes>  (113) 
This compound has an ester and may undergo hydrolysis at high or low pH.

>  <s_lp_Force_Field>  (113) 
OPLS3e

>  <r_lp_Energy>  (113) 
92.4265

>  <b_lp_Chiralities_Consistent>  (113) 
1

>  <s_lp_Variant>  (113) 
32:0-1

>  <s_i_glide_gridfile>  (113) 
pfpi4k_grid

>  <i_i_glide_lignum>  (113) 
3

>  <i_i_glide_rotatable_bonds>  (113) 
7

>  <r_i_docking_score>  (113) 
-2.63352

>  <r_i_glide_ligand_efficiency>  (113) 
-0.0822976

>  <r_i_glide_ligand_efficiency_sa>  (113) 
-0.261279

>  <r_i_glide_ligand_efficiency_ln>  (113) 
-0.589718

>  <r_i_glide_gscore>  (113) 
-2.63352

>  <r_i_glide_lipo>  (113) 
-0.194766

>  <r_i_glide_hbond>  (113) 
-0.259097

>  <r_i_glide_metal>  (113) 
-0

>  <r_i_glide_rewards>  (113) 
-0.350801

>  <r_i_glide_evdw>  (113) 
-20.1188

>  <r_i_glide_ecoul>  (113) 
-7.95153

>  <r_i_glide_erotb>  (113) 
0.398291

>  <r_i_glide_esite>  (113) 
-0.02848

>  <r_i_glide_emodel>  (113) 
-29.5896

>  <r_i_glide_energy>  (113) 
-28.0703

>  <r_i_glide_einternal>  (113) 
6.71794

>  <r_i_glide_intrahb_reward>  (113) 
-0

>  <i_i_glide_confnum>  (113) 
5

>  <i_i_glide_posenum>  (113) 
35

>  <r_i_glide_eff_state_penalty>  (113) 
0

>  <ligand_id>  (113) 
32

>  <original_smiles>  (113) 
CC(C)=CCCC(C)(O)C1CC2(C)C3CCC(C4(O)C(=O)CC14C)C21OC1C(O)C(=O)O3

>  <smiles>  (113) 
[H]OC1([H])C(=O)OC2([H])C([H])([H])C([H])([H])C3([H])C4(O[H])C(=O)C([H])([H])C4(C([H])([H])[H])C([H])(C(O[H])(C([H])([H])[H])C([H])([H])C([H])([H])C([H])=C(C([H])([H])[H])C([H])([H])[H])C([H])([H])C2(C([H])([H])[H])C32OC12[H]

$$$$
32:0:2
     RDKit          3D

 68 72  0  0  1  0  0  0  0  0999 V2000
    4.6788   -3.8134   -1.1735 C   0  0  0  0  0  0  0  0  0  0  0  0
    4.7330   -2.3606   -1.6234 C   0  0  0  0  0  0  0  0  0  0  0  0
    4.6063   -2.1872   -3.1250 C   0  0  0  0  0  0  0  0  0  0  0  0
    4.8806   -1.3001   -0.8015 C   0  0  0  0  0  0  0  0  0  0  0  0
    5.0531   -1.3103    0.7118 C   0  0  0  0  0  0  0  0  0  0  0  0
    3.9245   -0.5492    1.4361 C   0  0  0  0  0  0  0  0  0  0  0  0
    4.0848   -0.4518    2.9854 C   0  0  1  0  0  0  0  0  0  0  0  0
    4.2915   -1.8199    3.6868 C   0  0  0  0  0  0  0  0  0  0  0  0
    5.3661    0.1295    3.1092 O   0  0  0  0  0  0  0  0  0  0  0  0
    2.9605    0.4864    3.6402 C   0  0  2  0  0  0  0  0  0  0  0  0
    3.5809    1.3652    4.8124 C   0  0  0  0  0  0  0  0  0  0  0  0
    2.9972    2.7009    5.4116 C   0  0  1  0  0  0  0  0  0  0  0  0
    3.9680    3.0023    6.6015 C   0  0  0  0  0  0  0  0  0  0  0  0
    3.0770    3.9236    4.4374 C   0  0  1  0  0  0  0  0  0  0  0  0
    2.2735    3.7677    3.1429 C   0  0  0  0  0  0  0  0  0  0  0  0
    0.8674    3.1620    3.3283 C   0  0  0  0  0  0  0  0  0  0  0  0
    0.5960    2.3112    4.6141 C   0  0  1  0  0  0  0  0  0  0  0  0
    0.4005    0.7990    4.3269 C   0  0  2  0  0  0  0  0  0  0  0  0
   -0.7538    0.7157    3.5070 O   0  0  0  0  0  0  0  0  0  0  0  0
    0.0892   -0.0702    5.5726 C   0  0  0  0  0  0  0  0  0  0  0  0
   -0.8846   -0.2271    6.3112 O   0  0  0  0  0  0  0  0  0  0  0  0
    1.4773   -0.7224    5.4863 C   0  0  0  0  0  0  0  0  0  0  0  0
    1.5879   -0.1890    4.0222 C   0  0  2  0  0  0  0  0  0  0  0  0
    1.1176   -1.2262    2.9645 C   0  0  0  0  0  0  0  0  0  0  0  0
    1.5232    2.6808    5.7897 C   0  0  1  0  0  0  0  0  0  0  0  0
    0.9206    2.3408    7.0180 O   0  0  0  0  0  0  0  0  0  0  0  0
    1.2372    3.7393    6.8421 C   0  0  2  0  0  0  0  0  0  0  0  0
    0.5729    4.8926    6.1360 C   0  0  1  0  0  0  0  0  0  0  0  0
   -0.1884    5.6184    7.0775 O   0  0  0  0  0  0  0  0  0  0  0  0
    1.6725    5.7972    5.5114 C   0  0  0  0  0  0  0  0  0  0  0  0
    1.5288    7.0238    5.5421 O   0  0  0  0  0  0  0  0  0  0  0  0
    2.8283    5.2418    4.9861 O   0  0  0  0  0  0  0  0  0  0  0  0
    3.7364   -4.2571   -1.4963 H   0  0  0  0  0  0  0  0  0  0  0  0
    4.7591   -3.9637   -0.0987 H   0  0  0  0  0  0  0  0  0  0  0  0
    5.4825   -4.3729   -1.6499 H   0  0  0  0  0  0  0  0  0  0  0  0
    5.4093   -2.7301   -3.6193 H   0  0  0  0  0  0  0  0  0  0  0  0
    4.6565   -1.1423   -3.4320 H   0  0  0  0  0  0  0  0  0  0  0  0
    3.6582   -2.5930   -3.4788 H   0  0  0  0  0  0  0  0  0  0  0  0
    4.8854   -0.3132   -1.2415 H   0  0  0  0  0  0  0  0  0  0  0  0
    5.0831   -2.3220    1.1139 H   0  0  0  0  0  0  0  0  0  0  0  0
    6.0333   -0.8686    0.9101 H   0  0  0  0  0  0  0  0  0  0  0  0
    3.8510    0.4552    1.0183 H   0  0  0  0  0  0  0  0  0  0  0  0
    3.0047   -1.0491    1.1648 H   0  0  0  0  0  0  0  0  0  0  0  0
    3.6058   -2.5977    3.3815 H   0  0  0  0  0  0  0  0  0  0  0  0
    4.2237   -1.7246    4.7672 H   0  0  0  0  0  0  0  0  0  0  0  0
    5.2790   -2.2308    3.4768 H   0  0  0  0  0  0  0  0  0  0  0  0
    6.0124   -0.4880    2.8206 H   0  0  0  0  0  0  0  0  0  0  0  0
    2.7370    1.1823    2.8433 H   0  0  0  0  0  0  0  0  0  0  0  0
    3.8672    0.6931    5.6248 H   0  0  0  0  0  0  0  0  0  0  0  0
    4.5301    1.7539    4.4504 H   0  0  0  0  0  0  0  0  0  0  0  0
    3.9206    4.0283    6.9570 H   0  0  0  0  0  0  0  0  0  0  0  0
    5.0103    2.8743    6.3005 H   0  0  0  0  0  0  0  0  0  0  0  0
    3.7949    2.3344    7.4446 H   0  0  0  0  0  0  0  0  0  0  0  0
    4.1234    3.9926    4.1316 H   0  0  0  0  0  0  0  0  0  0  0  0
    2.1802    4.7374    2.6552 H   0  0  0  0  0  0  0  0  0  0  0  0
    2.8570    3.1911    2.4357 H   0  0  0  0  0  0  0  0  0  0  0  0
    0.1488    3.9851    3.2991 H   0  0  0  0  0  0  0  0  0  0  0  0
    0.6444    2.5830    2.4334 H   0  0  0  0  0  0  0  0  0  0  0  0
   -0.3992    2.6254    4.9463 H   0  0  0  0  0  0  0  0  0  0  0  0
   -0.5781    1.2155    2.7241 H   0  0  0  0  0  0  0  0  0  0  0  0
    2.1734   -0.2975    6.2050 H   0  0  0  0  0  0  0  0  0  0  0  0
    1.4888   -1.8116    5.5482 H   0  0  0  0  0  0  0  0  0  0  0  0
    0.1386   -1.6281    3.2350 H   0  0  0  0  0  0  0  0  0  0  0  0
    1.7262   -2.1173    2.8687 H   0  0  0  0  0  0  0  0  0  0  0  0
    0.9867   -0.7830    1.9716 H   0  0  0  0  0  0  0  0  0  0  0  0
    1.9319    4.0554    7.6162 H   0  0  0  0  0  0  0  0  0  0  0  0
   -0.1161    4.5844    5.3545 H   0  0  0  0  0  0  0  0  0  0  0  0
   -0.7637    5.0196    7.5297 H   0  0  0  0  0  0  0  0  0  0  0  0
  1  2  1  0
  1 33  1  0
  1 34  1  0
  1 35  1  0
  2  3  1  0
  2  4  2  3
  3 36  1  0
  3 37  1  0
  3 38  1  0
  4  5  1  0
  4 39  1  0
  5  6  1  0
  5 40  1  0
  5 41  1  0
  6  7  1  0
  6 42  1  0
  6 43  1  0
  7  8  1  0
  7  9  1  6
  7 10  1  0
  8 44  1  0
  8 45  1  0
  8 46  1  0
  9 47  1  0
 10 23  1  0
 10 11  1  0
 10 48  1  6
 11 12  1  0
 11 49  1  0
 11 50  1  0
 12 25  1  0
 12 13  1  1
 12 14  1  0
 13 51  1  0
 13 52  1  0
 13 53  1  0
 14 32  1  0
 14 15  1  0
 14 54  1  6
 15 16  1  0
 15 55  1  0
 15 56  1  0
 16 17  1  0
 16 57  1  0
 16 58  1  0
 17 18  1  0
 17 25  1  0
 17 59  1  1
 18 23  1  0
 18 19  1  6
 18 20  1  0
 19 60  1  0
 20 21  2  0
 20 22  1  0
 22 23  1  0
 22 61  1  0
 22 62  1  0
 23 24  1  6
 24 63  1  0
 24 64  1  0
 24 65  1  0
 25 27  1  0
 25 26  1  1
 26 27  1  0
 27 28  1  0
 27 66  1  1
 28 29  1  0
 28 30  1  0
 28 67  1  6
 29 68  1  0
 30 31  2  0
 30 32  1  0
M  END
>  <i_m_ct_stereo_status>  (114) 
1

>  <s_m_source_file>  (114) 
/var/tmp/pbs.5076255.sched01/tmpqm933_o1/456x1pmp19.sdf

>  <i_m_source_file_index>  (114) 
3

>  <i_lp_mmshare_version>  (114) 
48012

>  <i_f3d_flags>  (114) 
0

>  <s_epik_input>  (114) 
W0NIM11DKFtDSDNdKT1bQ0hdW0NIMl1bQ0gyXVtDQEBdKFtDSDNdKShbT0hdKVtDQEhdKFtDSDJdMSlbQ0BAXShbQ0gzXSkoW0NIMl1DMj1PKVtDQF0yKFtPSF0pW0NAQEhdM1tDSDJdW0NIMl1bQ0BIXShbQ0BdMShbQ0BAXTM0NSlbQ0gzXSlPQyg9TylbQ0BASF0oW0NASF01TzQpW09IXQ==

>  <s_epik_cmdline>  (114) 
J2VwaWtfcHl0aG9uJywgJy1waHQnLCAnMi4wJywgJy1waCcsICc3LjAnLCAnLXRuJywgJzgnLCAnLW1hJywgJzIwMCcsICctaW1hZScsICc8aW5maWxlLm1hZT4nLCAnLW9tYWUnLCAnPG91dGZpbGUubWFlPic=

>  <r_epik_Ionization_Penalty>  (114) 
0.000310349

>  <r_epik_Ionization_Penalty_Charging>  (114) 
0

>  <r_epik_Ionization_Penalty_Neutral>  (114) 
0.000310349

>  <r_epik_State_Penalty>  (114) 
0.000186875

>  <r_epik_Charging_Adjusted_Penalty>  (114) 
0.000186875

>  <i_epik_Tot_Q>  (114) 
0

>  <i_epik_Tot_abs_Q>  (114) 
0

>  <s_epik_Chemistry_Notes>  (114) 
This compound has an ester and may undergo hydrolysis at high or low pH.

>  <s_lp_Force_Field>  (114) 
OPLS3e

>  <r_lp_Energy>  (114) 
92.4265

>  <b_lp_Chiralities_Consistent>  (114) 
1

>  <s_lp_Variant>  (114) 
32:0-1

>  <s_i_glide_gridfile>  (114) 
pfpi4k_grid

>  <i_i_glide_lignum>  (114) 
3

>  <i_i_glide_rotatable_bonds>  (114) 
7

>  <r_i_docking_score>  (114) 
-2.30742

>  <r_i_glide_ligand_efficiency>  (114) 
-0.072107

>  <r_i_glide_ligand_efficiency_sa>  (114) 
-0.228925

>  <r_i_glide_ligand_efficiency_ln>  (114) 
-0.516695

>  <r_i_glide_gscore>  (114) 
-2.30742

>  <r_i_glide_lipo>  (114) 
-0.247239

>  <r_i_glide_hbond>  (114) 
-0.1505

>  <r_i_glide_metal>  (114) 
-0

>  <r_i_glide_rewards>  (114) 
-0.350801

>  <r_i_glide_evdw>  (114) 
-22.8276

>  <r_i_glide_ecoul>  (114) 
-5.32699

>  <r_i_glide_erotb>  (114) 
0.398291

>  <r_i_glide_esite>  (114) 
-0.0167429

>  <r_i_glide_emodel>  (114) 
-29.0417

>  <r_i_glide_energy>  (114) 
-28.1546

>  <r_i_glide_einternal>  (114) 
6.69032

>  <r_i_glide_intrahb_reward>  (114) 
-0

>  <i_i_glide_confnum>  (114) 
5

>  <i_i_glide_posenum>  (114) 
28

>  <r_i_glide_eff_state_penalty>  (114) 
0

>  <ligand_id>  (114) 
32

>  <original_smiles>  (114) 
CC(C)=CCCC(C)(O)C1CC2(C)C3CCC(C4(O)C(=O)CC14C)C21OC1C(O)C(=O)O3

>  <smiles>  (114) 
[H]OC1([H])C(=O)OC2([H])C([H])([H])C([H])([H])C3([H])C4(O[H])C(=O)C([H])([H])C4(C([H])([H])[H])C([H])(C(O[H])(C([H])([H])[H])C([H])([H])C([H])([H])C([H])=C(C([H])([H])[H])C([H])([H])[H])C([H])([H])C2(C([H])([H])[H])C32OC12[H]

$$$$
33:0:0
     RDKit          3D

 96104  0  0  1  0  0  0  0  0999 V2000
    6.5139   -5.0700    5.2308 C   0  0  0  0  0  0  0  0  0  0  0  0
    6.7023   -5.9215    6.4971 C   0  0  0  0  0  0  0  0  0  0  0  0
    8.2173   -6.2560    6.4817 C   0  0  0  0  0  0  0  0  0  0  0  0
    6.4051   -5.1471    7.7769 C   0  0  0  0  0  0  0  0  0  0  0  0
    5.3676   -4.3311    8.0263 C   0  0  0  0  0  0  0  0  0  0  0  0
    4.3017   -4.0214    7.0953 C   0  0  0  0  0  0  0  0  0  0  0  0
    3.5526   -4.9309    6.4446 C   0  0  0  0  0  0  0  0  0  0  0  0
    3.5004   -6.4500    6.6639 C   0  0  1  0  0  0  0  0  0  0  0  0
    1.9769   -6.8341    6.5145 C   0  0  0  0  0  0  0  0  0  0  0  0
    1.4203   -8.2845    6.4450 C   0  0  2  0  0  0  0  0  0  0  0  0
    2.0521   -9.3072    7.4633 C   0  0  2  0  0  0  0  0  0  0  0  0
    1.9013   -9.1959    8.9897 C   0  0  0  0  0  0  0  0  0  0  0  0
    2.9256  -10.2507    9.5071 C   0  0  0  0  0  0  0  0  0  0  0  0
    3.8315  -10.6269    8.3115 C   0  0  0  0  0  0  0  0  0  0  0  0
    3.5666   -9.4667    7.3707 C   0  0  1  0  0  0  0  0  0  0  0  0
    3.9634   -9.6010    5.9816 N   0  0  0  0  0  0  0  0  0  0  0  0
    4.2011   -8.4998    5.3221 C   0  0  0  0  0  0  0  0  0  0  0  0
    4.5700   -7.2596    5.9456 N   0  0  0  0  0  0  0  0  0  0  0  0
    5.8526   -7.2212    6.4506 C   0  0  0  0  0  0  0  0  0  0  0  0
    6.4122   -8.2342    6.8820 O   0  0  0  0  0  0  0  0  0  0  0  0
    4.0714   -8.4573    3.7499 C   0  0  1  0  0  0  0  0  0  0  0  0
    4.0578   -9.8899    3.0751 C   0  0  0  0  0  0  0  0  0  0  0  0
    3.1031  -11.0543    3.4212 C   0  0  0  0  0  0  0  0  0  0  0  0
    1.5877  -10.8134    3.4746 C   0  0  2  0  0  0  0  0  0  0  0  0
    0.9931  -10.1313    2.2395 C   0  0  0  0  0  0  0  0  0  0  0  0
    0.5323   -8.7129    2.5277 C   0  0  0  0  0  0  0  0  0  0  0  0
    1.2833   -8.0802    3.7458 C   0  0  2  0  0  0  0  0  0  0  0  0
    2.7843   -7.6205    3.3108 C   0  0  1  0  0  0  0  0  0  0  0  0
    2.8532   -6.3128    3.8074 O   0  0  0  0  0  0  0  0  0  0  0  0
    2.8813   -7.2288    1.7914 C   0  0  0  0  0  0  0  0  0  0  0  0
    4.1390   -6.4879    1.3106 C   0  0  1  0  0  0  0  0  0  0  0  0
    3.9685   -4.9561    1.3229 C   0  0  0  0  0  0  0  0  0  0  0  0
    4.4981   -4.1859    2.3775 C   0  0  0  0  0  0  0  0  0  0  0  0
    4.3163   -2.7984    2.4438 C   0  0  0  0  0  0  0  0  0  0  0  0
    3.6278   -2.1304    1.4103 C   0  0  0  0  0  0  0  0  0  0  0  0
    3.1174   -2.8746    0.3286 C   0  0  0  0  0  0  0  0  0  0  0  0
    3.2737   -4.2794    0.2877 C   0  0  0  0  0  0  0  0  0  0  0  0
    5.4012   -7.0010    1.9976 C   0  0  0  0  0  0  0  0  0  0  0  0
    6.6307   -6.6081    1.4232 C   0  0  0  0  0  0  0  0  0  0  0  0
    7.8469   -7.0822    1.9332 C   0  0  0  0  0  0  0  0  0  0  0  0
    7.8501   -7.9695    3.0127 C   0  0  0  0  0  0  0  0  0  0  0  0
    6.6357   -8.3705    3.5906 C   0  0  0  0  0  0  0  0  0  0  0  0
    5.3824   -7.8823    3.1173 C   0  0  0  0  0  0  0  0  0  0  0  0
    0.9159   -8.8310    5.0600 N   0  0  2  0  0  0  0  0  0  0  0  0
   -0.5851   -8.7082    5.2009 C   0  0  0  0  0  0  0  0  0  0  0  0
    1.1183  -10.3232    4.8580 C   0  0  0  0  0  0  0  0  0  0  0  0
    5.4773   -5.0109    4.9866 H   0  0  0  0  0  0  0  0  0  0  0  0
    7.0134   -5.4980    4.3584 H   0  0  0  0  0  0  0  0  0  0  0  0
    6.8818   -4.0503    5.3675 H   0  0  0  0  0  0  0  0  0  0  0  0
    8.5338   -6.8083    7.3675 H   0  0  0  0  0  0  0  0  0  0  0  0
    8.8154   -5.3437    6.4266 H   0  0  0  0  0  0  0  0  0  0  0  0
    8.4817   -6.8542    5.6067 H   0  0  0  0  0  0  0  0  0  0  0  0
    7.1161   -5.3116    8.5752 H   0  0  0  0  0  0  0  0  0  0  0  0
    5.3055   -3.8953    9.0118 H   0  0  0  0  0  0  0  0  0  0  0  0
    4.1764   -2.9858    6.8175 H   0  0  0  0  0  0  0  0  0  0  0  0
    2.8678   -4.5405    5.7052 H   0  0  0  0  0  0  0  0  0  0  0  0
    3.7203   -6.5554    7.7286 H   0  0  0  0  0  0  0  0  0  0  0  0
    1.5476   -6.4269    7.4294 H   0  0  0  0  0  0  0  0  0  0  0  0
    1.4670   -6.2315    5.7694 H   0  0  0  0  0  0  0  0  0  0  0  0
    0.5204   -8.1031    7.0265 H   0  0  0  0  0  0  0  0  0  0  0  0
    1.5323  -10.2419    7.3402 H   0  0  0  0  0  0  0  0  0  0  0  0
    2.1646   -8.1987    9.3419 H   0  0  0  0  0  0  0  0  0  0  0  0
    0.8874   -9.4216    9.3294 H   0  0  0  0  0  0  0  0  0  0  0  0
    3.5134   -9.8282   10.3212 H   0  0  0  0  0  0  0  0  0  0  0  0
    2.4304  -11.1416    9.8907 H   0  0  0  0  0  0  0  0  0  0  0  0
    4.8843  -10.6953    8.5828 H   0  0  0  0  0  0  0  0  0  0  0  0
    3.5205  -11.5732    7.8680 H   0  0  0  0  0  0  0  0  0  0  0  0
    4.0524   -8.6440    7.8805 H   0  0  0  0  0  0  0  0  0  0  0  0
    4.0252   -9.7832    1.9924 H   0  0  0  0  0  0  0  0  0  0  0  0
    5.0292  -10.3525    3.2483 H   0  0  0  0  0  0  0  0  0  0  0  0
    3.2687  -11.8248    2.6636 H   0  0  0  0  0  0  0  0  0  0  0  0
    3.4287  -11.5546    4.3332 H   0  0  0  0  0  0  0  0  0  0  0  0
    1.1936  -11.8262    3.4216 H   0  0  0  0  0  0  0  0  0  0  0  0
    1.7429  -10.1034    1.4469 H   0  0  0  0  0  0  0  0  0  0  0  0
    0.1489  -10.7083    1.8426 H   0  0  0  0  0  0  0  0  0  0  0  0
    0.5916   -8.1282    1.6175 H   0  0  0  0  0  0  0  0  0  0  0  0
   -0.5455   -8.7210    2.6412 H   0  0  0  0  0  0  0  0  0  0  0  0
    0.7452   -7.1395    3.8434 H   0  0  0  0  0  0  0  0  0  0  0  0
    3.6684   -5.9406    3.5128 H   0  0  0  0  0  0  0  0  0  0  0  0
    2.8509   -8.1576    1.2264 H   0  0  0  0  0  0  0  0  0  0  0  0
    2.0214   -6.6492    1.4534 H   0  0  0  0  0  0  0  0  0  0  0  0
    4.2591   -6.7546    0.2612 H   0  0  0  0  0  0  0  0  0  0  0  0
    5.0634   -4.6868    3.1303 H   0  0  0  0  0  0  0  0  0  0  0  0
    4.7126   -2.2395    3.2784 H   0  0  0  0  0  0  0  0  0  0  0  0
    3.5048   -1.0530    1.4434 H   0  0  0  0  0  0  0  0  0  0  0  0
    2.6097   -2.3558   -0.4737 H   0  0  0  0  0  0  0  0  0  0  0  0
    2.8749   -4.8457   -0.5505 H   0  0  0  0  0  0  0  0  0  0  0  0
    6.6460   -5.9522    0.5703 H   0  0  0  0  0  0  0  0  0  0  0  0
    8.7834   -6.7940    1.4787 H   0  0  0  0  0  0  0  0  0  0  0  0
    8.7869   -8.3550    3.3897 H   0  0  0  0  0  0  0  0  0  0  0  0
    6.6833   -9.0836    4.3999 H   0  0  0  0  0  0  0  0  0  0  0  0
   -1.1454   -9.2295    4.4340 H   0  0  0  0  0  0  0  0  0  0  0  0
   -0.9304   -7.6725    5.2144 H   0  0  0  0  0  0  0  0  0  0  0  0
   -0.9540   -9.1947    6.1071 H   0  0  0  0  0  0  0  0  0  0  0  0
    0.2166  -10.8819    5.1135 H   0  0  0  0  0  0  0  0  0  0  0  0
    1.8433  -10.7801    5.5074 H   0  0  0  0  0  0  0  0  0  0  0  0
  1  2  1  0
  1 47  1  0
  1 48  1  0
  1 49  1  0
  2 19  1  0
  2  3  1  0
  2  4  1  0
  3 50  1  0
  3 51  1  0
  3 52  1  0
  4  5  2  3
  4 53  1  0
  5  6  1  0
  5 54  1  0
  6  7  2  3
  6 55  1  0
  7  8  1  0
  7 56  1  0
  8 18  1  0
  8  9  1  0
  8 57  1  1
  9 10  1  0
  9 58  1  0
  9 59  1  0
 10 44  1  0
 10 11  1  0
 10 60  1  1
 11 15  1  0
 11 12  1  0
 11 61  1  6
 12 13  1  0
 12 62  1  0
 12 63  1  0
 13 14  1  0
 13 64  1  0
 13 65  1  0
 14 15  1  0
 14 66  1  0
 14 67  1  0
 15 16  1  0
 15 68  1  1
 16 17  2  3
 17 18  1  0
 17 21  1  0
 18 19  1  0
 19 20  2  0
 21 28  1  0
 21 43  1  6
 21 22  1  0
 22 23  1  0
 22 69  1  0
 22 70  1  0
 23 24  1  0
 23 71  1  0
 23 72  1  0
 24 46  1  0
 24 25  1  0
 24 73  1  6
 25 26  1  0
 25 74  1  0
 25 75  1  0
 26 27  1  0
 26 76  1  0
 26 77  1  0
 27 28  1  0
 27 44  1  0
 27 78  1  1
 28 29  1  1
 28 30  1  0
 29 79  1  0
 30 31  1  0
 30 80  1  0
 30 81  1  0
 31 32  1  0
 31 38  1  0
 31 82  1  6
 32 37  1  0
 32 33  2  0
 33 34  1  0
 33 83  1  0
 34 35  2  0
 34 84  1  0
 35 36  1  0
 35 85  1  0
 36 37  2  0
 36 86  1  0
 37 87  1  0
 38 43  2  0
 38 39  1  0
 39 40  2  0
 39 88  1  0
 40 41  1  0
 40 89  1  0
 41 42  2  0
 41 90  1  0
 42 43  1  0
 42 91  1  0
 44 45  1  1
 44 46  1  0
 45 92  1  0
 45 93  1  0
 45 94  1  0
 46 95  1  0
 46 96  1  0
M  CHG  1  44   1
M  END
>  <i_m_ct_stereo_status>  (115) 
1

>  <s_m_source_file>  (115) 
/var/tmp/pbs.5076255.sched01/tmpqm933_o1/456x1pmp19.sdf

>  <i_m_source_file_index>  (115) 
4

>  <i_lp_mmshare_version>  (115) 
48012

>  <i_f3d_flags>  (115) 
0

>  <s_epik_input>  (115) 
Tz1DMUMoW0NIM10pKFtDSDNdKS9bQ0hdPVtDSF1cW0NIXT1bQ0hdL1tDQEhdKE4xL0MyW0NAQF0zNDUpW0NIMl1bQ0hdKFtDQEhdNltDQEhdKC9OPTIpW0NIMl1bQ0gyXVtDSDJdNilbTkBAK103KFtDSDNdKVtDQEhdKFtDSDJdW0NIMl1bQ0BIXShbQ0gyXTcpW0NIMl1bQ0gyXTMpW0NAXTQoW09IXSlbQ0gyXVtDQEBIXShjOFtjSF1bY0hdW2NIXVtjSF1bY0hdOCljOWM1W2NIXVtjSF1bY0hdW2NIXTk=

>  <s_epik_cmdline>  (115) 
J2VwaWtfcHl0aG9uJywgJy1waHQnLCAnMi4wJywgJy1waCcsICc3LjAnLCAnLXRuJywgJzgnLCAnLW1hJywgJzIwMCcsICctaW1hZScsICc8aW5maWxlLm1hZT4nLCAnLW9tYWUnLCAnPG91dGZpbGUubWFlPic=

>  <r_lp_tautomer_probability>  (115) 
1

>  <r_epik_Ionization_Penalty>  (115) 
0.0248322

>  <r_epik_Ionization_Penalty_Charging>  (115) 
0

>  <r_epik_Ionization_Penalty_Neutral>  (115) 
0.0248322

>  <r_epik_State_Penalty>  (115) 
0.0199713

>  <r_epik_Charging_Adjusted_Penalty>  (115) 
0.0199713

>  <i_epik_Tot_Q>  (115) 
1

>  <i_epik_Tot_abs_Q>  (115) 
1

>  <s_epik_Chemistry_Notes>  (115) 
This compound has an imine and may undergo hydrolysis.

>  <s_lp_Force_Field>  (115) 
OPLS3e

>  <r_lp_Energy>  (115) 
239.546

>  <b_lp_Chiralities_Consistent>  (115) 
1

>  <s_lp_Variant>  (115) 
33:0-1

>  <s_i_glide_gridfile>  (115) 
pfpi4k_grid

>  <i_i_glide_lignum>  (115) 
4

>  <i_i_glide_rotatable_bonds>  (115) 
2

>  <r_i_docking_score>  (115) 
-2.4389

>  <r_i_glide_ligand_efficiency>  (115) 
-0.0530196

>  <r_i_glide_ligand_efficiency_sa>  (115) 
-0.189972

>  <r_i_glide_ligand_efficiency_ln>  (115) 
-0.505091

>  <r_i_glide_gscore>  (115) 
-2.4389

>  <r_i_glide_lipo>  (115) 
-0.583201

>  <r_i_glide_hbond>  (115) 
0

>  <r_i_glide_metal>  (115) 
-0

>  <r_i_glide_rewards>  (115) 
0

>  <r_i_glide_evdw>  (115) 
-26.3312

>  <r_i_glide_ecoul>  (115) 
-3.76165

>  <r_i_glide_erotb>  (115) 
0.0554054

>  <r_i_glide_esite>  (115) 
-0.0303002

>  <r_i_glide_emodel>  (115) 
-34.5082

>  <r_i_glide_energy>  (115) 
-30.0928

>  <r_i_glide_einternal>  (115) 
0.343257

>  <r_i_glide_intrahb_reward>  (115) 
-0

>  <i_i_glide_confnum>  (115) 
2

>  <i_i_glide_posenum>  (115) 
24

>  <r_i_glide_eff_state_penalty>  (115) 
0

>  <ligand_id>  (115) 
33

>  <original_smiles>  (115) 
CC1(C)C=CC=CC2CC3C4CCCC4N=C(N2C1=O)C12CCC4CCC(C1(O)CC(c1ccccc1)c1ccccc12)[N+]3(C)C4

>  <smiles>  (115) 
[H]OC12C([H])([H])C([H])(c3c([H])c([H])c([H])c([H])c3[H])c3c([H])c([H])c([H])c([H])c3C13C1=NC4([H])C([H])([H])C([H])([H])C([H])([H])C4([H])C([H])(C([H])([H])C4([H])C([H])=C([H])C([H])=C([H])C(C([H])([H])[H])(C([H])([H])[H])C(=O)N14)[N+]1(C([H])([H])[H])C([H])([H])C([H])(C([H])([H])C3([H])[H])C([H])([H])C([H])([H])C21[H]

$$$$
33:0:1
     RDKit          3D

 96104  0  0  1  0  0  0  0  0999 V2000
    4.8225   -6.7950    5.7302 C   0  0  0  0  0  0  0  0  0  0  0  0
    5.9937   -5.8482    6.0412 C   0  0  0  0  0  0  0  0  0  0  0  0
    6.5821   -6.4327    7.3497 C   0  0  0  0  0  0  0  0  0  0  0  0
    7.0823   -5.8864    4.9789 C   0  0  0  0  0  0  0  0  0  0  0  0
    6.9355   -5.8600    3.6400 C   0  0  0  0  0  0  0  0  0  0  0  0
    5.6717   -5.7895    2.9400 C   0  0  0  0  0  0  0  0  0  0  0  0
    4.7094   -4.8740    3.1581 C   0  0  0  0  0  0  0  0  0  0  0  0
    4.7798   -3.6026    4.0205 C   0  0  1  0  0  0  0  0  0  0  0  0
    3.9959   -2.4965    3.2088 C   0  0  0  0  0  0  0  0  0  0  0  0
    3.6065   -1.0862    3.7484 C   0  0  2  0  0  0  0  0  0  0  0  0
    4.7273   -0.3391    4.5695 C   0  0  2  0  0  0  0  0  0  0  0  0
    6.0609    0.1282    3.9646 C   0  0  0  0  0  0  0  0  0  0  0  0
    6.8856    0.5447    5.2199 C   0  0  0  0  0  0  0  0  0  0  0  0
    6.1521   -0.0505    6.4467 C   0  0  0  0  0  0  0  0  0  0  0  0
    5.2542   -1.0870    5.7860 C   0  0  1  0  0  0  0  0  0  0  0  0
    4.1496   -1.6352    6.5500 N   0  0  0  0  0  0  0  0  0  0  0  0
    3.7228   -2.8292    6.2053 C   0  0  0  0  0  0  0  0  0  0  0  0
    4.5238   -3.7958    5.5092 N   0  0  0  0  0  0  0  0  0  0  0  0
    5.5135   -4.3834    6.2624 C   0  0  0  0  0  0  0  0  0  0  0  0
    6.0788   -3.7782    7.1776 O   0  0  0  0  0  0  0  0  0  0  0  0
    2.2462   -3.2717    6.5242 C   0  0  1  0  0  0  0  0  0  0  0  0
    1.5339   -2.3691    7.6107 C   0  0  0  0  0  0  0  0  0  0  0  0
    1.3750   -0.8332    7.5639 C   0  0  0  0  0  0  0  0  0  0  0  0
    0.8125   -0.1611    6.3014 C   0  0  2  0  0  0  0  0  0  0  0  0
   -0.5196   -0.7270    5.7936 C   0  0  0  0  0  0  0  0  0  0  0  0
   -0.3399   -1.4737    4.4799 C   0  0  0  0  0  0  0  0  0  0  0  0
    1.1182   -2.0051    4.2714 C   0  0  2  0  0  0  0  0  0  0  0  0
    1.3792   -3.3366    5.1832 C   0  0  1  0  0  0  0  0  0  0  0  0
    1.9570   -4.2326    4.2720 O   0  0  0  0  0  0  0  0  0  0  0  0
    0.0640   -4.1577    5.4403 C   0  0  0  0  0  0  0  0  0  0  0  0
    0.1936   -5.5775    6.0105 C   0  0  1  0  0  0  0  0  0  0  0  0
    0.2243   -6.6557    4.9090 C   0  0  0  0  0  0  0  0  0  0  0  0
    1.4451   -7.2274    4.5144 C   0  0  0  0  0  0  0  0  0  0  0  0
    1.5254   -8.1838    3.4857 C   0  0  0  0  0  0  0  0  0  0  0  0
    0.3513   -8.6208    2.8529 C   0  0  0  0  0  0  0  0  0  0  0  0
   -0.8937   -8.0814    3.2454 C   0  0  0  0  0  0  0  0  0  0  0  0
   -0.9578   -7.0973    4.2635 C   0  0  0  0  0  0  0  0  0  0  0  0
    1.2982   -5.6765    7.0589 C   0  0  0  0  0  0  0  0  0  0  0  0
    1.3064   -6.8388    7.8634 C   0  0  0  0  0  0  0  0  0  0  0  0
    2.2407   -6.9956    8.9016 C   0  0  0  0  0  0  0  0  0  0  0  0
    3.1664   -5.9779    9.1573 C   0  0  0  0  0  0  0  0  0  0  0  0
    3.1639   -4.8146    8.3676 C   0  0  0  0  0  0  0  0  0  0  0  0
    2.2488   -4.6392    7.2889 C   0  0  0  0  0  0  0  0  0  0  0  0
    2.1045   -0.8121    4.1087 N   0  0  2  0  0  0  0  0  0  0  0  0
    1.6235   -0.0155    2.9112 C   0  0  0  0  0  0  0  0  0  0  0  0
    1.9078    0.1474    5.2600 C   0  0  0  0  0  0  0  0  0  0  0  0
    4.1837   -6.3359    5.0076 H   0  0  0  0  0  0  0  0  0  0  0  0
    4.1990   -6.9990    6.6040 H   0  0  0  0  0  0  0  0  0  0  0  0
    5.1477   -7.7598    5.3246 H   0  0  0  0  0  0  0  0  0  0  0  0
    7.4814   -5.9101    7.6779 H   0  0  0  0  0  0  0  0  0  0  0  0
    6.8395   -7.4873    7.2194 H   0  0  0  0  0  0  0  0  0  0  0  0
    5.8576   -6.3901    8.1661 H   0  0  0  0  0  0  0  0  0  0  0  0
    8.0910   -5.9047    5.3675 H   0  0  0  0  0  0  0  0  0  0  0  0
    7.8366   -5.8580    3.0456 H   0  0  0  0  0  0  0  0  0  0  0  0
    5.4367   -6.6034    2.2702 H   0  0  0  0  0  0  0  0  0  0  0  0
    3.7829   -5.0255    2.6222 H   0  0  0  0  0  0  0  0  0  0  0  0
    5.8179   -3.3070    3.9466 H   0  0  0  0  0  0  0  0  0  0  0  0
    4.6849   -2.2954    2.3857 H   0  0  0  0  0  0  0  0  0  0  0  0
    3.1532   -2.9083    2.6562 H   0  0  0  0  0  0  0  0  0  0  0  0
    3.7804   -0.5570    2.8181 H   0  0  0  0  0  0  0  0  0  0  0  0
    4.3531    0.6443    4.8325 H   0  0  0  0  0  0  0  0  0  0  0  0
    6.5504   -0.6545    3.3902 H   0  0  0  0  0  0  0  0  0  0  0  0
    5.9304    0.9445    3.2796 H   0  0  0  0  0  0  0  0  0  0  0  0
    7.9049    0.1721    5.1500 H   0  0  0  0  0  0  0  0  0  0  0  0
    6.9563    1.6237    5.3152 H   0  0  0  0  0  0  0  0  0  0  0  0
    6.8301   -0.5073    7.1692 H   0  0  0  0  0  0  0  0  0  0  0  0
    5.5581    0.7090    6.9561 H   0  0  0  0  0  0  0  0  0  0  0  0
    5.9660   -1.8418    5.4761 H   0  0  0  0  0  0  0  0  0  0  0  0
    0.5483   -2.7728    7.8231 H   0  0  0  0  0  0  0  0  0  0  0  0
    2.0668   -2.4997    8.5518 H   0  0  0  0  0  0  0  0  0  0  0  0
    0.7109   -0.5631    8.3897 H   0  0  0  0  0  0  0  0  0  0  0  0
    2.3075   -0.3487    7.8567 H   0  0  0  0  0  0  0  0  0  0  0  0
    0.5415    0.8239    6.6732 H   0  0  0  0  0  0  0  0  0  0  0  0
   -0.9320   -1.4089    6.5396 H   0  0  0  0  0  0  0  0  0  0  0  0
   -1.2681    0.0646    5.6607 H   0  0  0  0  0  0  0  0  0  0  0  0
   -1.0979   -2.2441    4.4094 H   0  0  0  0  0  0  0  0  0  0  0  0
   -0.6715   -0.8273    3.6746 H   0  0  0  0  0  0  0  0  0  0  0  0
    1.0365   -2.3933    3.2594 H   0  0  0  0  0  0  0  0  0  0  0  0
    1.3720   -4.3550    3.5385 H   0  0  0  0  0  0  0  0  0  0  0  0
   -0.5286   -3.6052    6.1671 H   0  0  0  0  0  0  0  0  0  0  0  0
   -0.5537   -4.2286    4.5473 H   0  0  0  0  0  0  0  0  0  0  0  0
   -0.7262   -5.7664    6.5595 H   0  0  0  0  0  0  0  0  0  0  0  0
    2.3241   -6.9173    5.0349 H   0  0  0  0  0  0  0  0  0  0  0  0
    2.4848   -8.5884    3.2003 H   0  0  0  0  0  0  0  0  0  0  0  0
    0.4040   -9.3838    2.0821 H   0  0  0  0  0  0  0  0  0  0  0  0
   -1.7983   -8.4430    2.7723 H   0  0  0  0  0  0  0  0  0  0  0  0
   -1.9185   -6.6955    4.5679 H   0  0  0  0  0  0  0  0  0  0  0  0
    0.5878   -7.6230    7.6914 H   0  0  0  0  0  0  0  0  0  0  0  0
    2.2364   -7.8875    9.5149 H   0  0  0  0  0  0  0  0  0  0  0  0
    3.8806   -6.0817    9.9625 H   0  0  0  0  0  0  0  0  0  0  0  0
    3.8775   -4.0441    8.6213 H   0  0  0  0  0  0  0  0  0  0  0  0
    0.6741    0.4902    3.0520 H   0  0  0  0  0  0  0  0  0  0  0  0
    1.5521   -0.6156    2.0037 H   0  0  0  0  0  0  0  0  0  0  0  0
    2.2798    0.8282    2.6907 H   0  0  0  0  0  0  0  0  0  0  0  0
    1.7359    1.1603    4.9001 H   0  0  0  0  0  0  0  0  0  0  0  0
    2.7653    0.2905    5.8909 H   0  0  0  0  0  0  0  0  0  0  0  0
  1  2  1  0
  1 47  1  0
  1 48  1  0
  1 49  1  0
  2 19  1  0
  2  3  1  0
  2  4  1  0
  3 50  1  0
  3 51  1  0
  3 52  1  0
  4  5  2  3
  4 53  1  0
  5  6  1  0
  5 54  1  0
  6  7  2  3
  6 55  1  0
  7  8  1  0
  7 56  1  0
  8 18  1  0
  8  9  1  0
  8 57  1  1
  9 10  1  0
  9 58  1  0
  9 59  1  0
 10 44  1  0
 10 11  1  0
 10 60  1  6
 11 15  1  0
 11 12  1  0
 11 61  1  1
 12 13  1  0
 12 62  1  0
 12 63  1  0
 13 14  1  0
 13 64  1  0
 13 65  1  0
 14 15  1  0
 14 66  1  0
 14 67  1  0
 15 16  1  0
 15 68  1  6
 16 17  2  3
 17 18  1  0
 17 21  1  0
 18 19  1  0
 19 20  2  0
 21 28  1  0
 21 43  1  1
 21 22  1  0
 22 23  1  0
 22 69  1  0
 22 70  1  0
 23 24  1  0
 23 71  1  0
 23 72  1  0
 24 46  1  0
 24 25  1  0
 24 73  1  1
 25 26  1  0
 25 74  1  0
 25 75  1  0
 26 27  1  0
 26 76  1  0
 26 77  1  0
 27 28  1  0
 27 44  1  0
 27 78  1  6
 28 29  1  6
 28 30  1  0
 29 79  1  0
 30 31  1  0
 30 80  1  0
 30 81  1  0
 31 32  1  0
 31 38  1  0
 31 82  1  1
 32 37  1  0
 32 33  2  0
 33 34  1  0
 33 83  1  0
 34 35  2  0
 34 84  1  0
 35 36  1  0
 35 85  1  0
 36 37  2  0
 36 86  1  0
 37 87  1  0
 38 43  2  0
 38 39  1  0
 39 40  2  0
 39 88  1  0
 40 41  1  0
 40 89  1  0
 41 42  2  0
 41 90  1  0
 42 43  1  0
 42 91  1  0
 44 45  1  6
 44 46  1  0
 45 92  1  0
 45 93  1  0
 45 94  1  0
 46 95  1  0
 46 96  1  0
M  CHG  1  44   1
M  END
>  <i_m_ct_stereo_status>  (116) 
1

>  <s_m_source_file>  (116) 
/var/tmp/pbs.5076255.sched01/tmpqm933_o1/456x1pmp19.sdf

>  <i_m_source_file_index>  (116) 
4

>  <i_lp_mmshare_version>  (116) 
48012

>  <i_f3d_flags>  (116) 
0

>  <s_epik_input>  (116) 
Tz1DMUMoW0NIM10pKFtDSDNdKS9bQ0hdPVtDSF1cW0NIXT1bQ0hdL1tDQEhdKE4xL0MyW0NAQF0zNDUpW0NIMl1bQ0hdKFtDQEhdNltDQEhdKC9OPTIpW0NIMl1bQ0gyXVtDSDJdNilbTkBAK103KFtDSDNdKVtDQEhdKFtDSDJdW0NIMl1bQ0BIXShbQ0gyXTcpW0NIMl1bQ0gyXTMpW0NAXTQoW09IXSlbQ0gyXVtDQEBIXShjOFtjSF1bY0hdW2NIXVtjSF1bY0hdOCljOWM1W2NIXVtjSF1bY0hdW2NIXTk=

>  <s_epik_cmdline>  (116) 
J2VwaWtfcHl0aG9uJywgJy1waHQnLCAnMi4wJywgJy1waCcsICc3LjAnLCAnLXRuJywgJzgnLCAnLW1hJywgJzIwMCcsICctaW1hZScsICc8aW5maWxlLm1hZT4nLCAnLW9tYWUnLCAnPG91dGZpbGUubWFlPic=

>  <r_lp_tautomer_probability>  (116) 
1

>  <r_epik_Ionization_Penalty>  (116) 
0.0248322

>  <r_epik_Ionization_Penalty_Charging>  (116) 
0

>  <r_epik_Ionization_Penalty_Neutral>  (116) 
0.0248322

>  <r_epik_State_Penalty>  (116) 
0.0199713

>  <r_epik_Charging_Adjusted_Penalty>  (116) 
0.0199713

>  <i_epik_Tot_Q>  (116) 
1

>  <i_epik_Tot_abs_Q>  (116) 
1

>  <s_epik_Chemistry_Notes>  (116) 
This compound has an imine and may undergo hydrolysis.

>  <s_lp_Force_Field>  (116) 
OPLS3e

>  <r_lp_Energy>  (116) 
239.546

>  <b_lp_Chiralities_Consistent>  (116) 
1

>  <s_lp_Variant>  (116) 
33:0-1

>  <s_i_glide_gridfile>  (116) 
pfpi4k_grid

>  <i_i_glide_lignum>  (116) 
4

>  <i_i_glide_rotatable_bonds>  (116) 
2

>  <r_i_docking_score>  (116) 
-2.18646

>  <r_i_glide_ligand_efficiency>  (116) 
-0.0475317

>  <r_i_glide_ligand_efficiency_sa>  (116) 
-0.170308

>  <r_i_glide_ligand_efficiency_ln>  (116) 
-0.45281

>  <r_i_glide_gscore>  (116) 
-2.18646

>  <r_i_glide_lipo>  (116) 
-0.506642

>  <r_i_glide_hbond>  (116) 
0

>  <r_i_glide_metal>  (116) 
-0

>  <r_i_glide_rewards>  (116) 
-0.00464506

>  <r_i_glide_evdw>  (116) 
-24.0818

>  <r_i_glide_ecoul>  (116) 
-3.50847

>  <r_i_glide_erotb>  (116) 
0.0554054

>  <r_i_glide_esite>  (116) 
-0.000217694

>  <r_i_glide_emodel>  (116) 
-31.3442

>  <r_i_glide_energy>  (116) 
-27.5902

>  <r_i_glide_einternal>  (116) 
0.374156

>  <r_i_glide_intrahb_reward>  (116) 
-0

>  <i_i_glide_confnum>  (116) 
2

>  <i_i_glide_posenum>  (116) 
11

>  <r_i_glide_eff_state_penalty>  (116) 
0

>  <ligand_id>  (116) 
33

>  <original_smiles>  (116) 
CC1(C)C=CC=CC2CC3C4CCCC4N=C(N2C1=O)C12CCC4CCC(C1(O)CC(c1ccccc1)c1ccccc12)[N+]3(C)C4

>  <smiles>  (116) 
[H]OC12C([H])([H])C([H])(c3c([H])c([H])c([H])c([H])c3[H])c3c([H])c([H])c([H])c([H])c3C13C1=NC4([H])C([H])([H])C([H])([H])C([H])([H])C4([H])C([H])(C([H])([H])C4([H])C([H])=C([H])C([H])=C([H])C(C([H])([H])[H])(C([H])([H])[H])C(=O)N14)[N+]1(C([H])([H])[H])C([H])([H])C([H])(C([H])([H])C3([H])[H])C([H])([H])C([H])([H])C21[H]

$$$$
33:0:2
     RDKit          3D

 96104  0  0  1  0  0  0  0  0999 V2000
    4.7827   -6.7698    5.7705 C   0  0  0  0  0  0  0  0  0  0  0  0
    5.9548   -5.8281    6.0907 C   0  0  0  0  0  0  0  0  0  0  0  0
    6.5191   -6.4064    7.4122 C   0  0  0  0  0  0  0  0  0  0  0  0
    7.0627   -5.8793    5.0483 C   0  0  0  0  0  0  0  0  0  0  0  0
    6.9404   -5.8619    3.7090 C   0  0  0  0  0  0  0  0  0  0  0  0
    5.6895   -5.7921    2.9862 C   0  0  0  0  0  0  0  0  0  0  0  0
    4.7251   -4.8705    3.1803 C   0  0  0  0  0  0  0  0  0  0  0  0
    4.7793   -3.5932    4.0341 C   0  0  1  0  0  0  0  0  0  0  0  0
    4.0237   -2.4914    3.1996 C   0  0  0  0  0  0  0  0  0  0  0  0
    3.6369   -1.0769    3.7224 C   0  0  2  0  0  0  0  0  0  0  0  0
    4.7440   -0.3283    4.5595 C   0  0  2  0  0  0  0  0  0  0  0  0
    6.0869    0.1229    3.9755 C   0  0  0  0  0  0  0  0  0  0  0  0
    6.8962    0.5426    5.2406 C   0  0  0  0  0  0  0  0  0  0  0  0
    6.1357   -0.0316    6.4603 C   0  0  0  0  0  0  0  0  0  0  0  0
    5.2443   -1.0672    5.7905 C   0  0  1  0  0  0  0  0  0  0  0  0
    4.1262   -1.6051    6.5386 N   0  0  0  0  0  0  0  0  0  0  0  0
    3.7028   -2.7940    6.1947 C   0  0  0  0  0  0  0  0  0  0  0  0
    4.5026   -3.7687    5.5159 N   0  0  0  0  0  0  0  0  0  0  0  0
    5.4877   -4.3604    6.2933 C   0  0  0  0  0  0  0  0  0  0  0  0
    6.0314   -3.7510    7.2113 O   0  0  0  0  0  0  0  0  0  0  0  0
    2.2220   -3.2311    6.4902 C   0  0  1  0  0  0  0  0  0  0  0  0
    1.4902   -2.3185    7.5567 C   0  0  0  0  0  0  0  0  0  0  0  0
    1.3381   -0.7814    7.4951 C   0  0  0  0  0  0  0  0  0  0  0  0
    0.8010   -0.1192    6.2194 C   0  0  2  0  0  0  0  0  0  0  0  0
   -0.5238   -0.6817    5.6929 C   0  0  0  0  0  0  0  0  0  0  0  0
   -0.3221   -1.4441    4.3946 C   0  0  0  0  0  0  0  0  0  0  0  0
    1.1340   -1.9798    4.2125 C   0  0  2  0  0  0  0  0  0  0  0  0
    1.3763   -3.2992    5.1395 C   0  0  1  0  0  0  0  0  0  0  0  0
    1.9438   -4.2119    4.2403 O   0  0  0  0  0  0  0  0  0  0  0  0
    0.0619   -4.1160    5.3734 C   0  0  0  0  0  0  0  0  0  0  0  0
    0.1791   -5.5350    5.9597 C   0  0  1  0  0  0  0  0  0  0  0  0
    0.1813   -6.6313    4.8769 C   0  0  0  0  0  0  0  0  0  0  0  0
   -1.0303   -7.0551    4.2747 C   0  0  0  0  0  0  0  0  0  0  0  0
   -1.0203   -8.0465    3.2662 C   0  0  0  0  0  0  0  0  0  0  0  0
    0.1930   -8.6167    2.8288 C   0  0  0  0  0  0  0  0  0  0  0  0
    1.4030   -8.2043    3.4215 C   0  0  0  0  0  0  0  0  0  0  0  0
    1.3805   -7.2377    4.4484 C   0  0  0  0  0  0  0  0  0  0  0  0
    1.2645   -5.6425    7.0132 C   0  0  0  0  0  0  0  0  0  0  0  0
    1.2504   -6.7915    7.8298 C   0  0  0  0  0  0  0  0  0  0  0  0
    2.1533   -6.9440    8.8912 C   0  0  0  0  0  0  0  0  0  0  0  0
    3.0839   -5.9221    9.1595 C   0  0  0  0  0  0  0  0  0  0  0  0
    3.0988   -4.7675    8.3595 C   0  0  0  0  0  0  0  0  0  0  0  0
    2.2168   -4.5921    7.2606 C   0  0  0  0  0  0  0  0  0  0  0  0
    2.1278   -0.7928    4.0505 N   0  0  2  0  0  0  0  0  0  0  0  0
    1.6735   -0.0039    2.8432 C   0  0  0  0  0  0  0  0  0  0  0  0
    1.9118    0.1759    5.1942 C   0  0  0  0  0  0  0  0  0  0  0  0
    4.1508   -6.3014    5.0425 H   0  0  0  0  0  0  0  0  0  0  0  0
    4.1505   -6.9746    6.6384 H   0  0  0  0  0  0  0  0  0  0  0  0
    5.1045   -7.7327    5.3649 H   0  0  0  0  0  0  0  0  0  0  0  0
    7.4139   -5.8848    7.7504 H   0  0  0  0  0  0  0  0  0  0  0  0
    6.7738   -7.4607    7.2926 H   0  0  0  0  0  0  0  0  0  0  0  0
    5.7818   -6.3547    8.2156 H   0  0  0  0  0  0  0  0  0  0  0  0
    8.0631   -5.8973    5.4564 H   0  0  0  0  0  0  0  0  0  0  0  0
    7.8525   -5.8658    3.1312 H   0  0  0  0  0  0  0  0  0  0  0  0
    5.4680   -6.6066    2.3145 H   0  0  0  0  0  0  0  0  0  0  0  0
    3.8113   -5.0194    2.6240 H   0  0  0  0  0  0  0  0  0  0  0  0
    5.8236   -3.3001    3.9751 H   0  0  0  0  0  0  0  0  0  0  0  0
    4.7253   -2.2995    2.3902 H   0  0  0  0  0  0  0  0  0  0  0  0
    3.1860   -2.9056    2.6398 H   0  0  0  0  0  0  0  0  0  0  0  0
    3.8269   -0.5519    2.7906 H   0  0  0  0  0  0  0  0  0  0  0  0
    4.3704    0.6620    4.8056 H   0  0  0  0  0  0  0  0  0  0  0  0
    6.5922   -0.6495    3.4073 H   0  0  0  0  0  0  0  0  0  0  0  0
    5.9748    0.9405    3.2792 H   0  0  0  0  0  0  0  0  0  0  0  0
    7.9141    0.1538    5.1917 H   0  0  0  0  0  0  0  0  0  0  0  0
    6.9757    1.6247    5.3273 H   0  0  0  0  0  0  0  0  0  0  0  0
    6.7997   -0.4840    7.1976 H   0  0  0  0  0  0  0  0  0  0  0  0
    5.5392    0.7378    6.9486 H   0  0  0  0  0  0  0  0  0  0  0  0
    5.9603   -1.8254    5.4973 H   0  0  0  0  0  0  0  0  0  0  0  0
    0.4977   -2.7168    7.7521 H   0  0  0  0  0  0  0  0  0  0  0  0
    2.0031   -2.4444    8.5084 H   0  0  0  0  0  0  0  0  0  0  0  0
    0.6603   -0.5023    8.3066 H   0  0  0  0  0  0  0  0  0  0  0  0
    2.2670   -0.2982    7.8007 H   0  0  0  0  0  0  0  0  0  0  0  0
    0.5288    0.8672    6.5747 H   0  0  0  0  0  0  0  0  0  0  0  0
   -0.9551   -1.3545    6.4399 H   0  0  0  0  0  0  0  0  0  0  0  0
   -1.2670    0.1119    5.5371 H   0  0  0  0  0  0  0  0  0  0  0  0
   -1.0773   -2.2059    4.3038 H   0  0  0  0  0  0  0  0  0  0  0  0
   -0.6281   -0.7916    3.5872 H   0  0  0  0  0  0  0  0  0  0  0  0
    1.0734   -2.3861    3.2048 H   0  0  0  0  0  0  0  0  0  0  0  0
    2.0649   -5.0292    4.6958 H   0  0  0  0  0  0  0  0  0  0  0  0
   -0.5470   -3.5602    6.0851 H   0  0  0  0  0  0  0  0  0  0  0  0
   -0.5363   -4.1964    4.4729 H   0  0  0  0  0  0  0  0  0  0  0  0
   -0.7464   -5.7030    6.5122 H   0  0  0  0  0  0  0  0  0  0  0  0
   -1.9652   -6.6423    4.6075 H   0  0  0  0  0  0  0  0  0  0  0  0
   -1.9511   -8.3870    2.8295 H   0  0  0  0  0  0  0  0  0  0  0  0
    0.2051   -9.3851    2.0706 H   0  0  0  0  0  0  0  0  0  0  0  0
    2.3395   -8.6398    3.1078 H   0  0  0  0  0  0  0  0  0  0  0  0
    2.2964   -6.9680    4.9361 H   0  0  0  0  0  0  0  0  0  0  0  0
    0.5202   -7.5694    7.6543 H   0  0  0  0  0  0  0  0  0  0  0  0
    2.1314   -7.8253    9.5153 H   0  0  0  0  0  0  0  0  0  0  0  0
    3.7769   -6.0245    9.9779 H   0  0  0  0  0  0  0  0  0  0  0  0
    3.8105   -3.9923    8.6244 H   0  0  0  0  0  0  0  0  0  0  0  0
    0.7240    0.5119    2.9602 H   0  0  0  0  0  0  0  0  0  0  0  0
    1.6128   -0.6061    1.9364 H   0  0  0  0  0  0  0  0  0  0  0  0
    2.3346    0.8377    2.6268 H   0  0  0  0  0  0  0  0  0  0  0  0
    1.7558    1.1875    4.8220 H   0  0  0  0  0  0  0  0  0  0  0  0
    2.7607    0.3220    5.8363 H   0  0  0  0  0  0  0  0  0  0  0  0
  1  2  1  0
  1 47  1  0
  1 48  1  0
  1 49  1  0
  2 19  1  0
  2  3  1  0
  2  4  1  0
  3 50  1  0
  3 51  1  0
  3 52  1  0
  4  5  2  3
  4 53  1  0
  5  6  1  0
  5 54  1  0
  6  7  2  3
  6 55  1  0
  7  8  1  0
  7 56  1  0
  8 18  1  0
  8  9  1  0
  8 57  1  1
  9 10  1  0
  9 58  1  0
  9 59  1  0
 10 44  1  0
 10 11  1  0
 10 60  1  6
 11 15  1  0
 11 12  1  0
 11 61  1  1
 12 13  1  0
 12 62  1  0
 12 63  1  0
 13 14  1  0
 13 64  1  0
 13 65  1  0
 14 15  1  0
 14 66  1  0
 14 67  1  0
 15 16  1  0
 15 68  1  6
 16 17  2  3
 17 18  1  0
 17 21  1  0
 18 19  1  0
 19 20  2  0
 21 28  1  0
 21 43  1  1
 21 22  1  0
 22 23  1  0
 22 69  1  0
 22 70  1  0
 23 24  1  0
 23 71  1  0
 23 72  1  0
 24 46  1  0
 24 25  1  0
 24 73  1  1
 25 26  1  0
 25 74  1  0
 25 75  1  0
 26 27  1  0
 26 76  1  0
 26 77  1  0
 27 28  1  0
 27 44  1  0
 27 78  1  6
 28 29  1  6
 28 30  1  0
 29 79  1  0
 30 31  1  0
 30 80  1  0
 30 81  1  0
 31 32  1  0
 31 38  1  0
 31 82  1  1
 32 37  1  0
 32 33  2  0
 33 34  1  0
 33 83  1  0
 34 35  2  0
 34 84  1  0
 35 36  1  0
 35 85  1  0
 36 37  2  0
 36 86  1  0
 37 87  1  0
 38 43  2  0
 38 39  1  0
 39 40  2  0
 39 88  1  0
 40 41  1  0
 40 89  1  0
 41 42  2  0
 41 90  1  0
 42 43  1  0
 42 91  1  0
 44 45  1  6
 44 46  1  0
 45 92  1  0
 45 93  1  0
 45 94  1  0
 46 95  1  0
 46 96  1  0
M  CHG  1  44   1
M  END
>  <i_m_ct_stereo_status>  (117) 
1

>  <s_m_source_file>  (117) 
/var/tmp/pbs.5076255.sched01/tmpqm933_o1/456x1pmp19.sdf

>  <i_m_source_file_index>  (117) 
4

>  <i_lp_mmshare_version>  (117) 
48012

>  <i_f3d_flags>  (117) 
0

>  <s_epik_input>  (117) 
Tz1DMUMoW0NIM10pKFtDSDNdKS9bQ0hdPVtDSF1cW0NIXT1bQ0hdL1tDQEhdKE4xL0MyW0NAQF0zNDUpW0NIMl1bQ0hdKFtDQEhdNltDQEhdKC9OPTIpW0NIMl1bQ0gyXVtDSDJdNilbTkBAK103KFtDSDNdKVtDQEhdKFtDSDJdW0NIMl1bQ0BIXShbQ0gyXTcpW0NIMl1bQ0gyXTMpW0NAXTQoW09IXSlbQ0gyXVtDQEBIXShjOFtjSF1bY0hdW2NIXVtjSF1bY0hdOCljOWM1W2NIXVtjSF1bY0hdW2NIXTk=

>  <s_epik_cmdline>  (117) 
J2VwaWtfcHl0aG9uJywgJy1waHQnLCAnMi4wJywgJy1waCcsICc3LjAnLCAnLXRuJywgJzgnLCAnLW1hJywgJzIwMCcsICctaW1hZScsICc8aW5maWxlLm1hZT4nLCAnLW9tYWUnLCAnPG91dGZpbGUubWFlPic=

>  <r_lp_tautomer_probability>  (117) 
1

>  <r_epik_Ionization_Penalty>  (117) 
0.0248322

>  <r_epik_Ionization_Penalty_Charging>  (117) 
0

>  <r_epik_Ionization_Penalty_Neutral>  (117) 
0.0248322

>  <r_epik_State_Penalty>  (117) 
0.0199713

>  <r_epik_Charging_Adjusted_Penalty>  (117) 
0.0199713

>  <i_epik_Tot_Q>  (117) 
1

>  <i_epik_Tot_abs_Q>  (117) 
1

>  <s_epik_Chemistry_Notes>  (117) 
This compound has an imine and may undergo hydrolysis.

>  <s_lp_Force_Field>  (117) 
OPLS3e

>  <r_lp_Energy>  (117) 
239.546

>  <b_lp_Chiralities_Consistent>  (117) 
1

>  <s_lp_Variant>  (117) 
33:0-1

>  <s_i_glide_gridfile>  (117) 
pfpi4k_grid

>  <i_i_glide_lignum>  (117) 
4

>  <i_i_glide_rotatable_bonds>  (117) 
2

>  <r_i_docking_score>  (117) 
-2.03046

>  <r_i_glide_ligand_efficiency>  (117) 
-0.0441405

>  <r_i_glide_ligand_efficiency_sa>  (117) 
-0.158158

>  <r_i_glide_ligand_efficiency_ln>  (117) 
-0.420504

>  <r_i_glide_gscore>  (117) 
-2.03046

>  <r_i_glide_lipo>  (117) 
-0.5114

>  <r_i_glide_hbond>  (117) 
0

>  <r_i_glide_metal>  (117) 
-0

>  <r_i_glide_rewards>  (117) 
-0.00442197

>  <r_i_glide_evdw>  (117) 
-24.07

>  <r_i_glide_ecoul>  (117) 
-2.44208

>  <r_i_glide_erotb>  (117) 
0.0554054

>  <r_i_glide_esite>  (117) 
-0.000233097

>  <r_i_glide_emodel>  (117) 
-30.1952

>  <r_i_glide_energy>  (117) 
-26.5121

>  <r_i_glide_einternal>  (117) 
0.102284

>  <r_i_glide_intrahb_reward>  (117) 
-0

>  <i_i_glide_confnum>  (117) 
1

>  <i_i_glide_posenum>  (117) 
20

>  <r_i_glide_eff_state_penalty>  (117) 
0

>  <ligand_id>  (117) 
33

>  <original_smiles>  (117) 
CC1(C)C=CC=CC2CC3C4CCCC4N=C(N2C1=O)C12CCC4CCC(C1(O)CC(c1ccccc1)c1ccccc12)[N+]3(C)C4

>  <smiles>  (117) 
[H]OC12C([H])([H])C([H])(c3c([H])c([H])c([H])c([H])c3[H])c3c([H])c([H])c([H])c([H])c3C13C1=NC4([H])C([H])([H])C([H])([H])C([H])([H])C4([H])C([H])(C([H])([H])C4([H])C([H])=C([H])C([H])=C([H])C(C([H])([H])[H])(C([H])([H])[H])C(=O)N14)[N+]1(C([H])([H])[H])C([H])([H])C([H])(C([H])([H])C3([H])[H])C([H])([H])C([H])([H])C21[H]

$$$$
33:1:0
     RDKit          3D

 96104  0  0  1  0  0  0  0  0999 V2000
    8.2333   -5.5625    6.1903 C   0  0  0  0  0  0  0  0  0  0  0  0
    6.8814   -5.7398    6.9287 C   0  0  0  0  0  0  0  0  0  0  0  0
    7.2123   -6.0094    8.4143 C   0  0  0  0  0  0  0  0  0  0  0  0
    6.0919   -4.4795    6.8575 C   0  0  0  0  0  0  0  0  0  0  0  0
    5.7074   -3.9952    5.6801 C   0  0  0  0  0  0  0  0  0  0  0  0
    4.3145   -3.7478    5.5739 C   0  0  0  0  0  0  0  0  0  0  0  0
    3.4310   -4.7007    5.9363 C   0  0  0  0  0  0  0  0  0  0  0  0
    3.6448   -6.1676    6.4438 C   0  0  1  0  0  0  0  0  0  0  0  0
    2.1703   -6.7729    6.5464 C   0  0  0  0  0  0  0  0  0  0  0  0
    1.7220   -8.2786    6.5337 C   0  0  2  0  0  0  0  0  0  0  0  0
    2.4687   -9.2381    7.5372 C   0  0  2  0  0  0  0  0  0  0  0  0
    2.2729   -9.1662    9.0602 C   0  0  0  0  0  0  0  0  0  0  0  0
    3.4551  -10.0100    9.6136 C   0  0  0  0  0  0  0  0  0  0  0  0
    4.4220  -10.2424    8.4365 C   0  0  0  0  0  0  0  0  0  0  0  0
    3.9770   -9.1678    7.4600 C   0  0  1  0  0  0  0  0  0  0  0  0
    4.3438   -9.3517    6.0777 N   0  0  0  0  0  0  0  0  0  0  0  0
    4.4252   -8.2941    5.3227 C   0  0  0  0  0  0  0  0  0  0  0  0
    4.7973   -7.0113    5.8711 N   0  0  0  0  0  0  0  0  0  0  0  0
    6.1215   -6.9774    6.3415 C   0  0  0  0  0  0  0  0  0  0  0  0
    6.8525   -7.9736    6.3224 O   0  0  0  0  0  0  0  0  0  0  0  0
    4.1583   -8.4150    3.7603 C   0  0  1  0  0  0  0  0  0  0  0  0
    4.1143   -9.9524    3.3247 C   0  0  0  0  0  0  0  0  0  0  0  0
    2.8693  -10.6604    2.7195 C   0  0  0  0  0  0  0  0  0  0  0  0
    1.5467  -10.8307    3.5122 C   0  0  2  0  0  0  0  0  0  0  0  0
    0.3731  -10.2761    2.7142 C   0  0  0  0  0  0  0  0  0  0  0  0
    0.4359   -8.7455    2.7255 C   0  0  0  0  0  0  0  0  0  0  0  0
    1.3510   -8.1346    3.8639 C   0  0  2  0  0  0  0  0  0  0  0  0
    2.8129   -7.6751    3.3057 C   0  0  1  0  0  0  0  0  0  0  0  0
    2.8201   -6.3513    3.7293 O   0  0  0  0  0  0  0  0  0  0  0  0
    2.8650   -7.3391    1.7745 C   0  0  0  0  0  0  0  0  0  0  0  0
    4.0796   -6.5422    1.2616 C   0  0  1  0  0  0  0  0  0  0  0  0
    3.8525   -5.0248    1.2244 C   0  0  0  0  0  0  0  0  0  0  0  0
    3.2147   -4.4388    0.1111 C   0  0  0  0  0  0  0  0  0  0  0  0
    2.9818   -3.0495    0.0610 C   0  0  0  0  0  0  0  0  0  0  0  0
    3.3612   -2.2274    1.1400 C   0  0  0  0  0  0  0  0  0  0  0  0
    4.0042   -2.7984    2.2505 C   0  0  0  0  0  0  0  0  0  0  0  0
    4.2632   -4.1834    2.2838 C   0  0  0  0  0  0  0  0  0  0  0  0
    5.3778   -6.9769    1.9052 C   0  0  0  0  0  0  0  0  0  0  0  0
    6.5686   -6.5378    1.2854 C   0  0  0  0  0  0  0  0  0  0  0  0
    7.8169   -6.9833    1.7377 C   0  0  0  0  0  0  0  0  0  0  0  0
    7.8843   -7.9080    2.7876 C   0  0  0  0  0  0  0  0  0  0  0  0
    6.7014   -8.3622    3.3969 C   0  0  0  0  0  0  0  0  0  0  0  0
    5.4244   -7.8673    3.0190 C   0  0  0  0  0  0  0  0  0  0  0  0
    1.1517   -8.8880    5.2028 N   0  0  2  0  0  0  0  0  0  0  0  0
   -0.3292   -8.8761    5.4703 C   0  0  0  0  0  0  0  0  0  0  0  0
    1.5254  -10.3344    4.9782 C   0  0  0  0  0  0  0  0  0  0  0  0
    8.1221   -5.4693    5.1092 H   0  0  0  0  0  0  0  0  0  0  0  0
    8.9073   -6.4028    6.3653 H   0  0  0  0  0  0  0  0  0  0  0  0
    8.7520   -4.6805    6.5548 H   0  0  0  0  0  0  0  0  0  0  0  0
    6.3130   -6.1820    9.0075 H   0  0  0  0  0  0  0  0  0  0  0  0
    7.7433   -5.1632    8.8585 H   0  0  0  0  0  0  0  0  0  0  0  0
    7.8580   -6.8819    8.5324 H   0  0  0  0  0  0  0  0  0  0  0  0
    5.4606   -4.3005    7.7171 H   0  0  0  0  0  0  0  0  0  0  0  0
    6.2226   -4.2872    4.7784 H   0  0  0  0  0  0  0  0  0  0  0  0
    3.9609   -2.7865    5.2406 H   0  0  0  0  0  0  0  0  0  0  0  0
    2.4039   -4.3857    5.8380 H   0  0  0  0  0  0  0  0  0  0  0  0
    3.9306   -6.0254    7.4890 H   0  0  0  0  0  0  0  0  0  0  0  0
    1.8302   -6.3925    7.5103 H   0  0  0  0  0  0  0  0  0  0  0  0
    1.4930   -6.2541    5.8702 H   0  0  0  0  0  0  0  0  0  0  0  0
    0.8545   -8.1376    7.1771 H   0  0  0  0  0  0  0  0  0  0  0  0
    2.1357  -10.2563    7.3525 H   0  0  0  0  0  0  0  0  0  0  0  0
    2.3416   -8.1386    9.4204 H   0  0  0  0  0  0  0  0  0  0  0  0
    1.3107   -9.5730    9.3794 H   0  0  0  0  0  0  0  0  0  0  0  0
    3.9530   -9.4743   10.4213 H   0  0  0  0  0  0  0  0  0  0  0  0
    3.1195  -10.9644   10.0165 H   0  0  0  0  0  0  0  0  0  0  0  0
    5.4687  -10.1291    8.7166 H   0  0  0  0  0  0  0  0  0  0  0  0
    4.2818  -11.2376    8.0136 H   0  0  0  0  0  0  0  0  0  0  0  0
    4.3175   -8.2356    7.9029 H   0  0  0  0  0  0  0  0  0  0  0  0
    4.8215  -10.0752    2.5043 H   0  0  0  0  0  0  0  0  0  0  0  0
    4.5516  -10.6258    4.0598 H   0  0  0  0  0  0  0  0  0  0  0  0
    2.6613  -10.2841    1.7187 H   0  0  0  0  0  0  0  0  0  0  0  0
    3.2001  -11.6792    2.5027 H   0  0  0  0  0  0  0  0  0  0  0  0
    1.3799  -11.9050    3.5676 H   0  0  0  0  0  0  0  0  0  0  0  0
    0.3650  -10.6512    1.6875 H   0  0  0  0  0  0  0  0  0  0  0  0
   -0.5644  -10.6349    3.1425 H   0  0  0  0  0  0  0  0  0  0  0  0
    0.7088   -8.4534    1.7218 H   0  0  0  0  0  0  0  0  0  0  0  0
   -0.5812   -8.3594    2.8020 H   0  0  0  0  0  0  0  0  0  0  0  0
    0.8081   -7.1999    4.0205 H   0  0  0  0  0  0  0  0  0  0  0  0
    3.6166   -5.9571    3.4175 H   0  0  0  0  0  0  0  0  0  0  0  0
    2.9078   -8.2845    1.2401 H   0  0  0  0  0  0  0  0  0  0  0  0
    1.9687   -6.8322    1.4180 H   0  0  0  0  0  0  0  0  0  0  0  0
    4.1913   -6.8305    0.2137 H   0  0  0  0  0  0  0  0  0  0  0  0
    2.9015   -5.0554   -0.7155 H   0  0  0  0  0  0  0  0  0  0  0  0
    2.4955   -2.6152   -0.7982 H   0  0  0  0  0  0  0  0  0  0  0  0
    3.1606   -1.1676    1.1081 H   0  0  0  0  0  0  0  0  0  0  0  0
    4.2943   -2.1668    3.0753 H   0  0  0  0  0  0  0  0  0  0  0  0
    4.7693   -4.6150    3.1242 H   0  0  0  0  0  0  0  0  0  0  0  0
    6.5276   -5.8714    0.4385 H   0  0  0  0  0  0  0  0  0  0  0  0
    8.7277   -6.6620    1.2531 H   0  0  0  0  0  0  0  0  0  0  0  0
    8.8431   -8.2828    3.1112 H   0  0  0  0  0  0  0  0  0  0  0  0
    6.7904   -9.1088    4.1704 H   0  0  0  0  0  0  0  0  0  0  0  0
   -0.9643   -9.3112    4.7078 H   0  0  0  0  0  0  0  0  0  0  0  0
   -0.6969   -7.8566    5.6047 H   0  0  0  0  0  0  0  0  0  0  0  0
   -0.5907   -9.4459    6.3676 H   0  0  0  0  0  0  0  0  0  0  0  0
    0.8289  -10.9709    5.5322 H   0  0  0  0  0  0  0  0  0  0  0  0
    2.4896  -10.6383    5.3599 H   0  0  0  0  0  0  0  0  0  0  0  0
  1  2  1  0
  1 47  1  0
  1 48  1  0
  1 49  1  0
  2 19  1  0
  2  3  1  0
  2  4  1  0
  3 50  1  0
  3 51  1  0
  3 52  1  0
  4  5  2  3
  4 53  1  0
  5  6  1  0
  5 54  1  0
  6  7  2  3
  6 55  1  0
  7  8  1  0
  7 56  1  0
  8 18  1  0
  8  9  1  0
  8 57  1  1
  9 10  1  0
  9 58  1  0
  9 59  1  0
 10 44  1  0
 10 11  1  0
 10 60  1  1
 11 15  1  0
 11 12  1  0
 11 61  1  6
 12 13  1  0
 12 62  1  0
 12 63  1  0
 13 14  1  0
 13 64  1  0
 13 65  1  0
 14 15  1  0
 14 66  1  0
 14 67  1  0
 15 16  1  0
 15 68  1  1
 16 17  2  3
 17 18  1  0
 17 21  1  0
 18 19  1  0
 19 20  2  0
 21 28  1  0
 21 43  1  6
 21 22  1  0
 22 23  1  0
 22 69  1  0
 22 70  1  0
 23 24  1  0
 23 71  1  0
 23 72  1  0
 24 46  1  0
 24 25  1  0
 24 73  1  1
 25 26  1  0
 25 74  1  0
 25 75  1  0
 26 27  1  0
 26 76  1  0
 26 77  1  0
 27 28  1  0
 27 44  1  0
 27 78  1  1
 28 29  1  1
 28 30  1  0
 29 79  1  0
 30 31  1  0
 30 80  1  0
 30 81  1  0
 31 32  1  0
 31 38  1  0
 31 82  1  6
 32 37  1  0
 32 33  2  0
 33 34  1  0
 33 83  1  0
 34 35  2  0
 34 84  1  0
 35 36  1  0
 35 85  1  0
 36 37  2  0
 36 86  1  0
 37 87  1  0
 38 43  2  0
 38 39  1  0
 39 40  2  0
 39 88  1  0
 40 41  1  0
 40 89  1  0
 41 42  2  0
 41 90  1  0
 42 43  1  0
 42 91  1  0
 44 45  1  1
 44 46  1  0
 45 92  1  0
 45 93  1  0
 45 94  1  0
 46 95  1  0
 46 96  1  0
M  CHG  1  44   1
M  END
>  <i_m_ct_stereo_status>  (118) 
1

>  <s_m_source_file>  (118) 
/var/tmp/pbs.5076255.sched01/tmpqm933_o1/456x1pmp19.sdf

>  <i_m_source_file_index>  (118) 
5

>  <i_lp_mmshare_version>  (118) 
48012

>  <i_f3d_flags>  (118) 
0

>  <s_epik_input>  (118) 
Tz1DMUMoW0NIM10pKFtDSDNdKS9bQ0hdPVtDSF1cW0NIXT1bQ0hdL1tDQEhdKE4xL0MyW0NAQF0zNDUpW0NIMl1bQ0hdKFtDQEhdNltDQEhdKC9OPTIpW0NIMl1bQ0gyXVtDSDJdNilbTkBAK103KFtDSDNdKVtDQEhdKFtDSDJdW0NIMl1bQ0BIXShbQ0gyXTcpW0NIMl1bQ0gyXTMpW0NAXTQoW09IXSlbQ0gyXVtDQEBIXShjOFtjSF1bY0hdW2NIXVtjSF1bY0hdOCljOWM1W2NIXVtjSF1bY0hdW2NIXTk=

>  <s_epik_cmdline>  (118) 
J2VwaWtfcHl0aG9uJywgJy1waHQnLCAnMi4wJywgJy1waCcsICc3LjAnLCAnLXRuJywgJzgnLCAnLW1hJywgJzIwMCcsICctaW1hZScsICc8aW5maWxlLm1hZT4nLCAnLW9tYWUnLCAnPG91dGZpbGUubWFlPic=

>  <r_lp_tautomer_probability>  (118) 
1

>  <r_epik_Ionization_Penalty>  (118) 
0.0248322

>  <r_epik_Ionization_Penalty_Charging>  (118) 
0

>  <r_epik_Ionization_Penalty_Neutral>  (118) 
0.0248322

>  <r_epik_State_Penalty>  (118) 
0.0199713

>  <r_epik_Charging_Adjusted_Penalty>  (118) 
0.0199713

>  <i_epik_Tot_Q>  (118) 
1

>  <i_epik_Tot_abs_Q>  (118) 
1

>  <s_epik_Chemistry_Notes>  (118) 
This compound has an imine and may undergo hydrolysis.

>  <s_lp_Force_Field>  (118) 
OPLS3e

>  <r_lp_Energy>  (118) 
270.233

>  <b_lp_Chiralities_Consistent>  (118) 
1

>  <s_lp_Variant>  (118) 
33:0-2

>  <s_i_glide_gridfile>  (118) 
pfpi4k_grid

>  <i_i_glide_lignum>  (118) 
5

>  <i_i_glide_rotatable_bonds>  (118) 
2

>  <r_i_docking_score>  (118) 
-2.51178

>  <r_i_glide_ligand_efficiency>  (118) 
-0.054604

>  <r_i_glide_ligand_efficiency_sa>  (118) 
-0.195649

>  <r_i_glide_ligand_efficiency_ln>  (118) 
-0.520184

>  <r_i_glide_gscore>  (118) 
-2.51178

>  <r_i_glide_lipo>  (118) 
-0.580839

>  <r_i_glide_hbond>  (118) 
0

>  <r_i_glide_metal>  (118) 
-0

>  <r_i_glide_rewards>  (118) 
0

>  <r_i_glide_evdw>  (118) 
-26.9993

>  <r_i_glide_ecoul>  (118) 
-4.06768

>  <r_i_glide_erotb>  (118) 
0.0554054

>  <r_i_glide_esite>  (118) 
-0.0262345

>  <r_i_glide_emodel>  (118) 
-36.2621

>  <r_i_glide_energy>  (118) 
-31.067

>  <r_i_glide_einternal>  (118) 
0.379109

>  <r_i_glide_intrahb_reward>  (118) 
-0

>  <i_i_glide_confnum>  (118) 
1

>  <i_i_glide_posenum>  (118) 
1

>  <r_i_glide_eff_state_penalty>  (118) 
0

>  <ligand_id>  (118) 
33

>  <original_smiles>  (118) 
CC1(C)C=CC=CC2CC3C4CCCC4N=C(N2C1=O)C12CCC4CCC(C1(O)CC(c1ccccc1)c1ccccc12)[N+]3(C)C4

>  <smiles>  (118) 
[H]OC12C([H])([H])C([H])(c3c([H])c([H])c([H])c([H])c3[H])c3c([H])c([H])c([H])c([H])c3C13C1=NC4([H])C([H])([H])C([H])([H])C([H])([H])C4([H])C([H])(C([H])([H])C4([H])C([H])=C([H])C([H])=C([H])C(C([H])([H])[H])(C([H])([H])[H])C(=O)N14)[N+]1(C([H])([H])[H])C([H])([H])C([H])(C([H])([H])C3([H])[H])C([H])([H])C([H])([H])C21[H]

$$$$
33:1:1
     RDKit          3D

 96104  0  0  1  0  0  0  0  0999 V2000
    6.8611   -3.9969    7.4937 C   0  0  0  0  0  0  0  0  0  0  0  0
    5.3255   -4.1936    7.6141 C   0  0  0  0  0  0  0  0  0  0  0  0
    4.9432   -3.8817    9.0804 C   0  0  0  0  0  0  0  0  0  0  0  0
    4.6207   -3.2221    6.7334 C   0  0  0  0  0  0  0  0  0  0  0  0
    4.8187   -3.2505    5.4170 C   0  0  0  0  0  0  0  0  0  0  0  0
    3.6275   -3.3517    4.6473 C   0  0  0  0  0  0  0  0  0  0  0  0
    2.6941   -4.2741    4.9610 C   0  0  0  0  0  0  0  0  0  0  0  0
    2.6860   -5.4080    6.0427 C   0  0  1  0  0  0  0  0  0  0  0  0
    1.3461   -6.2291    5.7574 C   0  0  0  0  0  0  0  0  0  0  0  0
    0.9970   -7.7140    6.1436 C   0  0  2  0  0  0  0  0  0  0  0  0
    1.2253   -8.1180    7.6552 C   0  0  2  0  0  0  0  0  0  0  0  0
    0.3544   -7.5780    8.8009 C   0  0  0  0  0  0  0  0  0  0  0  0
    1.1711   -7.9279   10.0758 C   0  0  0  0  0  0  0  0  0  0  0  0
    2.5764   -8.3384    9.5944 C   0  0  0  0  0  0  0  0  0  0  0  0
    2.5977   -7.7655    8.1860 C   0  0  1  0  0  0  0  0  0  0  0  0
    3.5623   -8.3180    7.2689 N   0  0  0  0  0  0  0  0  0  0  0  0
    3.9542   -7.5799    6.2670 C   0  0  0  0  0  0  0  0  0  0  0  0
    3.9952   -6.1379    6.3788 N   0  0  0  0  0  0  0  0  0  0  0  0
    4.9545   -5.6843    7.3004 C   0  0  0  0  0  0  0  0  0  0  0  0
    5.6391   -6.4596    7.9735 O   0  0  0  0  0  0  0  0  0  0  0  0
    4.4367   -8.2626    4.9164 C   0  0  1  0  0  0  0  0  0  0  0  0
    4.6358   -9.8346    5.1416 C   0  0  0  0  0  0  0  0  0  0  0  0
    3.8302  -10.9452    4.4100 C   0  0  0  0  0  0  0  0  0  0  0  0
    2.2964  -11.1020    4.5850 C   0  0  2  0  0  0  0  0  0  0  0  0
    1.6107  -11.1010    3.2276 C   0  0  0  0  0  0  0  0  0  0  0  0
    1.6123   -9.6740    2.6638 C   0  0  0  0  0  0  0  0  0  0  0  0
    1.8856   -8.5411    3.7398 C   0  0  2  0  0  0  0  0  0  0  0  0
    3.4271   -7.9983    3.6972 C   0  0  1  0  0  0  0  0  0  0  0  0
    3.2085   -6.6312    3.5003 O   0  0  0  0  0  0  0  0  0  0  0  0
    4.1664   -8.2097    2.3298 C   0  0  0  0  0  0  0  0  0  0  0  0
    5.4603   -7.4022    2.0940 C   0  0  1  0  0  0  0  0  0  0  0  0
    5.2087   -6.0350    1.4413 C   0  0  0  0  0  0  0  0  0  0  0  0
    5.3515   -4.8259    2.1601 C   0  0  0  0  0  0  0  0  0  0  0  0
    5.1100   -3.5804    1.5495 C   0  0  0  0  0  0  0  0  0  0  0  0
    4.7256   -3.5168    0.1993 C   0  0  0  0  0  0  0  0  0  0  0  0
    4.5907   -4.7092   -0.5326 C   0  0  0  0  0  0  0  0  0  0  0  0
    4.8142   -5.9592    0.0833 C   0  0  0  0  0  0  0  0  0  0  0  0
    6.3431   -7.3500    3.3281 C   0  0  0  0  0  0  0  0  0  0  0  0
    7.6757   -6.9120    3.1435 C   0  0  0  0  0  0  0  0  0  0  0  0
    8.5890   -6.9005    4.2111 C   0  0  0  0  0  0  0  0  0  0  0  0
    8.1848   -7.3824    5.4664 C   0  0  0  0  0  0  0  0  0  0  0  0
    6.8636   -7.8313    5.6510 C   0  0  0  0  0  0  0  0  0  0  0  0
    5.8899   -7.7680    4.6146 C   0  0  0  0  0  0  0  0  0  0  0  0
    1.1126   -8.8276    5.0472 N   0  0  2  0  0  0  0  0  0  0  0  0
   -0.3228   -9.0251    4.6571 C   0  0  0  0  0  0  0  0  0  0  0  0
    1.5907  -10.1522    5.5815 C   0  0  0  0  0  0  0  0  0  0  0  0
    7.2519   -4.3106    6.5258 H   0  0  0  0  0  0  0  0  0  0  0  0
    7.4014   -4.5706    8.2489 H   0  0  0  0  0  0  0  0  0  0  0  0
    7.1408   -2.9528    7.6406 H   0  0  0  0  0  0  0  0  0  0  0  0
    3.8778   -4.0271    9.2661 H   0  0  0  0  0  0  0  0  0  0  0  0
    5.1863   -2.8484    9.3403 H   0  0  0  0  0  0  0  0  0  0  0  0
    5.4868   -4.5167    9.7835 H   0  0  0  0  0  0  0  0  0  0  0  0
    3.6577   -2.9034    7.1070 H   0  0  0  0  0  0  0  0  0  0  0  0
    5.7158   -3.6967    5.0168 H   0  0  0  0  0  0  0  0  0  0  0  0
    3.4417   -2.6531    3.8473 H   0  0  0  0  0  0  0  0  0  0  0  0
    1.8121   -4.2189    4.3411 H   0  0  0  0  0  0  0  0  0  0  0  0
    2.4550   -4.8695    6.9650 H   0  0  0  0  0  0  0  0  0  0  0  0
    0.5903   -5.6267    6.2641 H   0  0  0  0  0  0  0  0  0  0  0  0
    1.0398   -6.1137    4.7194 H   0  0  0  0  0  0  0  0  0  0  0  0
   -0.0724   -7.5384    6.2629 H   0  0  0  0  0  0  0  0  0  0  0  0
    1.0428   -9.1855    7.7685 H   0  0  0  0  0  0  0  0  0  0  0  0
    0.2167   -6.4969    8.7255 H   0  0  0  0  0  0  0  0  0  0  0  0
   -0.6259   -8.0518    8.8204 H   0  0  0  0  0  0  0  0  0  0  0  0
    1.2284   -7.0633   10.7373 H   0  0  0  0  0  0  0  0  0  0  0  0
    0.7152   -8.7368   10.6448 H   0  0  0  0  0  0  0  0  0  0  0  0
    3.3736   -7.9283   10.2140 H   0  0  0  0  0  0  0  0  0  0  0  0
    2.6772   -9.4242    9.5765 H   0  0  0  0  0  0  0  0  0  0  0  0
    2.6680   -6.6899    8.3307 H   0  0  0  0  0  0  0  0  0  0  0  0
    5.6449  -10.0795    4.8115 H   0  0  0  0  0  0  0  0  0  0  0  0
    4.7067  -10.1193    6.1899 H   0  0  0  0  0  0  0  0  0  0  0  0
    4.0925  -10.9804    3.3534 H   0  0  0  0  0  0  0  0  0  0  0  0
    4.2512  -11.8875    4.7688 H   0  0  0  0  0  0  0  0  0  0  0  0
    2.1535  -12.1064    4.9828 H   0  0  0  0  0  0  0  0  0  0  0  0
    2.1078  -11.7922    2.5408 H   0  0  0  0  0  0  0  0  0  0  0  0
    0.5933  -11.4876    3.3240 H   0  0  0  0  0  0  0  0  0  0  0  0
    2.3022   -9.6862    1.8317 H   0  0  0  0  0  0  0  0  0  0  0  0
    0.6626   -9.4977    2.1556 H   0  0  0  0  0  0  0  0  0  0  0  0
    1.3049   -7.7383    3.2790 H   0  0  0  0  0  0  0  0  0  0  0  0
    3.9697   -6.2676    3.0792 H   0  0  0  0  0  0  0  0  0  0  0  0
    4.4735   -9.2520    2.2768 H   0  0  0  0  0  0  0  0  0  0  0  0
    3.5156   -8.0459    1.4710 H   0  0  0  0  0  0  0  0  0  0  0  0
    6.0342   -7.9672    1.3572 H   0  0  0  0  0  0  0  0  0  0  0  0
    5.6459   -4.8507    3.1916 H   0  0  0  0  0  0  0  0  0  0  0  0
    5.2148   -2.6704    2.1167 H   0  0  0  0  0  0  0  0  0  0  0  0
    4.5249   -2.5701   -0.2765 H   0  0  0  0  0  0  0  0  0  0  0  0
    4.2932   -4.6562   -1.5679 H   0  0  0  0  0  0  0  0  0  0  0  0
    4.6829   -6.8596   -0.4960 H   0  0  0  0  0  0  0  0  0  0  0  0
    8.0098   -6.5807    2.1742 H   0  0  0  0  0  0  0  0  0  0  0  0
    9.6025   -6.5628    4.0580 H   0  0  0  0  0  0  0  0  0  0  0  0
    8.8854   -7.4172    6.2849 H   0  0  0  0  0  0  0  0  0  0  0  0
    6.6024   -8.2312    6.6181 H   0  0  0  0  0  0  0  0  0  0  0  0
   -0.5401   -9.8292    3.9570 H   0  0  0  0  0  0  0  0  0  0  0  0
   -0.7619   -8.1256    4.2153 H   0  0  0  0  0  0  0  0  0  0  0  0
   -0.9428   -9.2818    5.5215 H   0  0  0  0  0  0  0  0  0  0  0  0
    0.7350  -10.6912    5.9986 H   0  0  0  0  0  0  0  0  0  0  0  0
    2.2806  -10.1194    6.4131 H   0  0  0  0  0  0  0  0  0  0  0  0
  1  2  1  0
  1 47  1  0
  1 48  1  0
  1 49  1  0
  2 19  1  0
  2  3  1  0
  2  4  1  0
  3 50  1  0
  3 51  1  0
  3 52  1  0
  4  5  2  3
  4 53  1  0
  5  6  1  0
  5 54  1  0
  6  7  2  3
  6 55  1  0
  7  8  1  0
  7 56  1  0
  8 18  1  0
  8  9  1  0
  8 57  1  1
  9 10  1  0
  9 58  1  0
  9 59  1  0
 10 44  1  0
 10 11  1  0
 10 60  1  1
 11 15  1  0
 11 12  1  0
 11 61  1  6
 12 13  1  0
 12 62  1  0
 12 63  1  0
 13 14  1  0
 13 64  1  0
 13 65  1  0
 14 15  1  0
 14 66  1  0
 14 67  1  0
 15 16  1  0
 15 68  1  1
 16 17  2  3
 17 18  1  0
 17 21  1  0
 18 19  1  0
 19 20  2  0
 21 28  1  0
 21 43  1  6
 21 22  1  0
 22 23  1  0
 22 69  1  0
 22 70  1  0
 23 24  1  0
 23 71  1  0
 23 72  1  0
 24 46  1  0
 24 25  1  0
 24 73  1  1
 25 26  1  0
 25 74  1  0
 25 75  1  0
 26 27  1  0
 26 76  1  0
 26 77  1  0
 27 28  1  0
 27 44  1  0
 27 78  1  6
 28 29  1  6
 28 30  1  0
 29 79  1  0
 30 31  1  0
 30 80  1  0
 30 81  1  0
 31 32  1  0
 31 38  1  0
 31 82  1  6
 32 37  1  0
 32 33  2  0
 33 34  1  0
 33 83  1  0
 34 35  2  0
 34 84  1  0
 35 36  1  0
 35 85  1  0
 36 37  2  0
 36 86  1  0
 37 87  1  0
 38 43  2  0
 38 39  1  0
 39 40  2  0
 39 88  1  0
 40 41  1  0
 40 89  1  0
 41 42  2  0
 41 90  1  0
 42 43  1  0
 42 91  1  0
 44 45  1  6
 44 46  1  0
 45 92  1  0
 45 93  1  0
 45 94  1  0
 46 95  1  0
 46 96  1  0
M  CHG  1  44   1
M  END
>  <i_m_ct_stereo_status>  (119) 
1

>  <s_m_source_file>  (119) 
/var/tmp/pbs.5076255.sched01/tmpqm933_o1/456x1pmp19.sdf

>  <i_m_source_file_index>  (119) 
5

>  <i_lp_mmshare_version>  (119) 
48012

>  <i_f3d_flags>  (119) 
0

>  <s_epik_input>  (119) 
Tz1DMUMoW0NIM10pKFtDSDNdKS9bQ0hdPVtDSF1cW0NIXT1bQ0hdL1tDQEhdKE4xL0MyW0NAQF0zNDUpW0NIMl1bQ0hdKFtDQEhdNltDQEhdKC9OPTIpW0NIMl1bQ0gyXVtDSDJdNilbTkBAK103KFtDSDNdKVtDQEhdKFtDSDJdW0NIMl1bQ0BIXShbQ0gyXTcpW0NIMl1bQ0gyXTMpW0NAXTQoW09IXSlbQ0gyXVtDQEBIXShjOFtjSF1bY0hdW2NIXVtjSF1bY0hdOCljOWM1W2NIXVtjSF1bY0hdW2NIXTk=

>  <s_epik_cmdline>  (119) 
J2VwaWtfcHl0aG9uJywgJy1waHQnLCAnMi4wJywgJy1waCcsICc3LjAnLCAnLXRuJywgJzgnLCAnLW1hJywgJzIwMCcsICctaW1hZScsICc8aW5maWxlLm1hZT4nLCAnLW9tYWUnLCAnPG91dGZpbGUubWFlPic=

>  <r_lp_tautomer_probability>  (119) 
1

>  <r_epik_Ionization_Penalty>  (119) 
0.0248322

>  <r_epik_Ionization_Penalty_Charging>  (119) 
0

>  <r_epik_Ionization_Penalty_Neutral>  (119) 
0.0248322

>  <r_epik_State_Penalty>  (119) 
0.0199713

>  <r_epik_Charging_Adjusted_Penalty>  (119) 
0.0199713

>  <i_epik_Tot_Q>  (119) 
1

>  <i_epik_Tot_abs_Q>  (119) 
1

>  <s_epik_Chemistry_Notes>  (119) 
This compound has an imine and may undergo hydrolysis.

>  <s_lp_Force_Field>  (119) 
OPLS3e

>  <r_lp_Energy>  (119) 
270.233

>  <b_lp_Chiralities_Consistent>  (119) 
1

>  <s_lp_Variant>  (119) 
33:0-2

>  <s_i_glide_gridfile>  (119) 
pfpi4k_grid

>  <i_i_glide_lignum>  (119) 
5

>  <i_i_glide_rotatable_bonds>  (119) 
2

>  <r_i_docking_score>  (119) 
-2.21039

>  <r_i_glide_ligand_efficiency>  (119) 
-0.0480519

>  <r_i_glide_ligand_efficiency_sa>  (119) 
-0.172172

>  <r_i_glide_ligand_efficiency_ln>  (119) 
-0.457766

>  <r_i_glide_gscore>  (119) 
-2.21039

>  <r_i_glide_lipo>  (119) 
-0.5114

>  <r_i_glide_hbond>  (119) 
0

>  <r_i_glide_metal>  (119) 
-0

>  <r_i_glide_rewards>  (119) 
0

>  <r_i_glide_evdw>  (119) 
-24.4095

>  <r_i_glide_ecoul>  (119) 
-3.39619

>  <r_i_glide_erotb>  (119) 
0.0554054

>  <r_i_glide_esite>  (119) 
-0.0244897

>  <r_i_glide_emodel>  (119) 
-32.1257

>  <r_i_glide_energy>  (119) 
-27.8057

>  <r_i_glide_einternal>  (119) 
0.880894

>  <r_i_glide_intrahb_reward>  (119) 
-0

>  <i_i_glide_confnum>  (119) 
2

>  <i_i_glide_posenum>  (119) 
3

>  <r_i_glide_eff_state_penalty>  (119) 
0

>  <ligand_id>  (119) 
33

>  <original_smiles>  (119) 
CC1(C)C=CC=CC2CC3C4CCCC4N=C(N2C1=O)C12CCC4CCC(C1(O)CC(c1ccccc1)c1ccccc12)[N+]3(C)C4

>  <smiles>  (119) 
[H]OC12C([H])([H])C([H])(c3c([H])c([H])c([H])c([H])c3[H])c3c([H])c([H])c([H])c([H])c3C13C1=NC4([H])C([H])([H])C([H])([H])C([H])([H])C4([H])C([H])(C([H])([H])C4([H])C([H])=C([H])C([H])=C([H])C(C([H])([H])[H])(C([H])([H])[H])C(=O)N14)[N+]1(C([H])([H])[H])C([H])([H])C([H])(C([H])([H])C3([H])[H])C([H])([H])C([H])([H])C21[H]

$$$$
33:1:2
     RDKit          3D

 96104  0  0  1  0  0  0  0  0999 V2000
    7.5737   -4.2257    7.1174 C   0  0  0  0  0  0  0  0  0  0  0  0
    6.2173   -4.7975    7.6081 C   0  0  0  0  0  0  0  0  0  0  0  0
    6.2690   -4.8152    9.1538 C   0  0  0  0  0  0  0  0  0  0  0  0
    5.1077   -3.8968    7.1910 C   0  0  0  0  0  0  0  0  0  0  0  0
    4.8802   -3.6707    5.8983 C   0  0  0  0  0  0  0  0  0  0  0  0
    3.5437   -3.9313    5.4875 C   0  0  0  0  0  0  0  0  0  0  0  0
    2.9414   -5.0878    5.8333 C   0  0  0  0  0  0  0  0  0  0  0  0
    3.4802   -6.3465    6.5983 C   0  0  1  0  0  0  0  0  0  0  0  0
    2.2886   -7.4082    6.5199 C   0  0  0  0  0  0  0  0  0  0  0  0
    2.3483   -8.9772    6.6495 C   0  0  2  0  0  0  0  0  0  0  0  0
    3.1138   -9.5426    7.9135 C   0  0  2  0  0  0  0  0  0  0  0  0
    2.5678   -9.4085    9.3452 C   0  0  0  0  0  0  0  0  0  0  0  0
    3.7978   -9.7461   10.2349 C   0  0  0  0  0  0  0  0  0  0  0  0
    5.0294   -9.7306    9.3083 C   0  0  0  0  0  0  0  0  0  0  0  0
    4.4990   -8.9613    8.1093 C   0  0  1  0  0  0  0  0  0  0  0  0
    5.2119   -9.1196    6.8677 N   0  0  0  0  0  0  0  0  0  0  0  0
    5.1247   -8.1645    5.9840 C   0  0  0  0  0  0  0  0  0  0  0  0
    4.9379   -6.7872    6.3926 N   0  0  0  0  0  0  0  0  0  0  0  0
    6.0416   -6.2664    7.0896 C   0  0  0  0  0  0  0  0  0  0  0  0
    7.0325   -6.9504    7.3587 O   0  0  0  0  0  0  0  0  0  0  0  0
    5.2711   -8.4957    4.4387 C   0  0  1  0  0  0  0  0  0  0  0  0
    5.8144   -9.9882    4.2442 C   0  0  0  0  0  0  0  0  0  0  0  0
    5.0314  -11.1305    3.5367 C   0  0  0  0  0  0  0  0  0  0  0  0
    3.6848  -11.6688    4.0891 C   0  0  2  0  0  0  0  0  0  0  0  0
    2.6162  -11.6218    3.0113 C   0  0  0  0  0  0  0  0  0  0  0  0
    2.1831  -10.1667    2.7912 C   0  0  0  0  0  0  0  0  0  0  0  0
    2.5696   -9.1830    3.9748 C   0  0  2  0  0  0  0  0  0  0  0  0
    3.8997   -8.2962    3.6330 C   0  0  1  0  0  0  0  0  0  0  0  0
    3.4030   -7.0085    3.8299 O   0  0  0  0  0  0  0  0  0  0  0  0
    4.1909   -8.1003    2.1055 C   0  0  0  0  0  0  0  0  0  0  0  0
    5.1744   -6.9800    1.7129 C   0  0  1  0  0  0  0  0  0  0  0  0
    4.4891   -5.6414    1.4123 C   0  0  0  0  0  0  0  0  0  0  0  0
    3.8436   -5.4564    0.1703 C   0  0  0  0  0  0  0  0  0  0  0  0
    3.1845   -4.2466   -0.1342 C   0  0  0  0  0  0  0  0  0  0  0  0
    3.1603   -3.1988    0.8065 C   0  0  0  0  0  0  0  0  0  0  0  0
    3.8086   -3.3670    2.0466 C   0  0  0  0  0  0  0  0  0  0  0  0
    4.4733   -4.5772    2.3414 C   0  0  0  0  0  0  0  0  0  0  0  0
    6.3679   -6.8975    2.6393 C   0  0  0  0  0  0  0  0  0  0  0  0
    7.4716   -6.1387    2.1877 C   0  0  0  0  0  0  0  0  0  0  0  0
    8.6630   -6.0919    2.9292 C   0  0  0  0  0  0  0  0  0  0  0  0
    8.7746   -6.8439    4.1087 C   0  0  0  0  0  0  0  0  0  0  0  0
    7.6835   -7.6147    4.5513 C   0  0  0  0  0  0  0  0  0  0  0  0
    6.4350   -7.6195    3.8689 C   0  0  0  0  0  0  0  0  0  0  0  0
    2.3073   -9.8454    5.3461 N   0  0  2  0  0  0  0  0  0  0  0  0
    0.8795  -10.3098    5.3155 C   0  0  0  0  0  0  0  0  0  0  0  0
    3.1715  -11.0776    5.4219 C   0  0  0  0  0  0  0  0  0  0  0  0
    7.6843   -4.2874    6.0356 H   0  0  0  0  0  0  0  0  0  0  0  0
    8.4208   -4.7630    7.5480 H   0  0  0  0  0  0  0  0  0  0  0  0
    7.6930   -3.1798    7.4039 H   0  0  0  0  0  0  0  0  0  0  0  0
    5.3613   -5.2364    9.5885 H   0  0  0  0  0  0  0  0  0  0  0  0
    6.3914   -3.8064    9.5558 H   0  0  0  0  0  0  0  0  0  0  0  0
    7.1123   -5.4032    9.5227 H   0  0  0  0  0  0  0  0  0  0  0  0
    4.2710   -3.8793    7.8749 H   0  0  0  0  0  0  0  0  0  0  0  0
    5.6679   -3.8222    5.1760 H   0  0  0  0  0  0  0  0  0  0  0  0
    2.9921   -3.1823    4.9421 H   0  0  0  0  0  0  0  0  0  0  0  0
    1.9146   -5.1510    5.5050 H   0  0  0  0  0  0  0  0  0  0  0  0
    3.4611   -6.0268    7.6427 H   0  0  0  0  0  0  0  0  0  0  0  0
    1.6360   -7.0872    7.3328 H   0  0  0  0  0  0  0  0  0  0  0  0
    1.6551   -7.2105    5.6569 H   0  0  0  0  0  0  0  0  0  0  0  0
    1.3584   -9.0896    7.0934 H   0  0  0  0  0  0  0  0  0  0  0  0
    3.1669  -10.6277    7.8359 H   0  0  0  0  0  0  0  0  0  0  0  0
    2.2253   -8.3919    9.5493 H   0  0  0  0  0  0  0  0  0  0  0  0
    1.7356  -10.0891    9.5402 H   0  0  0  0  0  0  0  0  0  0  0  0
    3.9043   -9.0060   11.0282 H   0  0  0  0  0  0  0  0  0  0  0  0
    3.6987  -10.7186   10.7151 H   0  0  0  0  0  0  0  0  0  0  0  0
    5.8940   -9.2425    9.7577 H   0  0  0  0  0  0  0  0  0  0  0  0
    5.3145  -10.7445    9.0267 H   0  0  0  0  0  0  0  0  0  0  0  0
    4.4181   -7.9352    8.4606 H   0  0  0  0  0  0  0  0  0  0  0  0
    6.6930   -9.9288    3.6024 H   0  0  0  0  0  0  0  0  0  0  0  0
    6.2618  -10.4069    5.1437 H   0  0  0  0  0  0  0  0  0  0  0  0
    4.9452  -10.9376    2.4682 H   0  0  0  0  0  0  0  0  0  0  0  0
    5.7056  -11.9901    3.5465 H   0  0  0  0  0  0  0  0  0  0  0  0
    3.8522  -12.7286    4.2761 H   0  0  0  0  0  0  0  0  0  0  0  0
    2.9926  -12.0691    2.0894 H   0  0  0  0  0  0  0  0  0  0  0  0
    1.7665  -12.2483    3.2945 H   0  0  0  0  0  0  0  0  0  0  0  0
    2.5666   -9.8875    1.8202 H   0  0  0  0  0  0  0  0  0  0  0  0
    1.1063  -10.1467    2.6141 H   0  0  0  0  0  0  0  0  0  0  0  0
    1.7422   -8.4753    3.8753 H   0  0  0  0  0  0  0  0  0  0  0  0
    4.0585   -6.3964    3.5451 H   0  0  0  0  0  0  0  0  0  0  0  0
    4.6504   -9.0157    1.7384 H   0  0  0  0  0  0  0  0  0  0  0  0
    3.2860   -7.9633    1.5145 H   0  0  0  0  0  0  0  0  0  0  0  0
    5.5960   -7.2881    0.7557 H   0  0  0  0  0  0  0  0  0  0  0  0
    3.8558   -6.2515   -0.5557 H   0  0  0  0  0  0  0  0  0  0  0  0
    2.7013   -4.1257   -1.0915 H   0  0  0  0  0  0  0  0  0  0  0  0
    2.6566   -2.2731    0.5727 H   0  0  0  0  0  0  0  0  0  0  0  0
    3.7942   -2.5661    2.7674 H   0  0  0  0  0  0  0  0  0  0  0  0
    4.9711   -4.6963    3.2856 H   0  0  0  0  0  0  0  0  0  0  0  0
    7.4171   -5.5978    1.2580 H   0  0  0  0  0  0  0  0  0  0  0  0
    9.5044   -5.5127    2.5828 H   0  0  0  0  0  0  0  0  0  0  0  0
    9.6953   -6.8373    4.6677 H   0  0  0  0  0  0  0  0  0  0  0  0
    7.8221   -8.2132    5.4372 H   0  0  0  0  0  0  0  0  0  0  0  0
    0.6055  -11.0277    4.5453 H   0  0  0  0  0  0  0  0  0  0  0  0
    0.1724   -9.4803    5.2178 H   0  0  0  0  0  0  0  0  0  0  0  0
    0.5865  -10.8347    6.2221 H   0  0  0  0  0  0  0  0  0  0  0  0
    2.6164  -11.8703    5.9235 H   0  0  0  0  0  0  0  0  0  0  0  0
    4.0700  -11.0054    6.0186 H   0  0  0  0  0  0  0  0  0  0  0  0
  1  2  1  0
  1 47  1  0
  1 48  1  0
  1 49  1  0
  2 19  1  0
  2  3  1  0
  2  4  1  0
  3 50  1  0
  3 51  1  0
  3 52  1  0
  4  5  2  3
  4 53  1  0
  5  6  1  0
  5 54  1  0
  6  7  2  3
  6 55  1  0
  7  8  1  0
  7 56  1  0
  8 18  1  0
  8  9  1  0
  8 57  1  1
  9 10  1  0
  9 58  1  0
  9 59  1  0
 10 44  1  0
 10 11  1  0
 10 60  1  1
 11 15  1  0
 11 12  1  0
 11 61  1  6
 12 13  1  0
 12 62  1  0
 12 63  1  0
 13 14  1  0
 13 64  1  0
 13 65  1  0
 14 15  1  0
 14 66  1  0
 14 67  1  0
 15 16  1  0
 15 68  1  1
 16 17  2  3
 17 18  1  0
 17 21  1  0
 18 19  1  0
 19 20  2  0
 21 28  1  0
 21 43  1  6
 21 22  1  0
 22 23  1  0
 22 69  1  0
 22 70  1  0
 23 24  1  0
 23 71  1  0
 23 72  1  0
 24 46  1  0
 24 25  1  0
 24 73  1  1
 25 26  1  0
 25 74  1  0
 25 75  1  0
 26 27  1  0
 26 76  1  0
 26 77  1  0
 27 28  1  0
 27 44  1  0
 27 78  1  6
 28 29  1  1
 28 30  1  0
 29 79  1  0
 30 31  1  0
 30 80  1  0
 30 81  1  0
 31 32  1  0
 31 38  1  0
 31 82  1  6
 32 37  1  0
 32 33  2  0
 33 34  1  0
 33 83  1  0
 34 35  2  0
 34 84  1  0
 35 36  1  0
 35 85  1  0
 36 37  2  0
 36 86  1  0
 37 87  1  0
 38 43  2  0
 38 39  1  0
 39 40  2  0
 39 88  1  0
 40 41  1  0
 40 89  1  0
 41 42  2  0
 41 90  1  0
 42 43  1  0
 42 91  1  0
 44 45  1  6
 44 46  1  0
 45 92  1  0
 45 93  1  0
 45 94  1  0
 46 95  1  0
 46 96  1  0
M  CHG  1  44   1
M  END
>  <i_m_ct_stereo_status>  (120) 
1

>  <s_m_source_file>  (120) 
/var/tmp/pbs.5076255.sched01/tmpqm933_o1/456x1pmp19.sdf

>  <i_m_source_file_index>  (120) 
5

>  <i_lp_mmshare_version>  (120) 
48012

>  <i_f3d_flags>  (120) 
0

>  <s_epik_input>  (120) 
Tz1DMUMoW0NIM10pKFtDSDNdKS9bQ0hdPVtDSF1cW0NIXT1bQ0hdL1tDQEhdKE4xL0MyW0NAQF0zNDUpW0NIMl1bQ0hdKFtDQEhdNltDQEhdKC9OPTIpW0NIMl1bQ0gyXVtDSDJdNilbTkBAK103KFtDSDNdKVtDQEhdKFtDSDJdW0NIMl1bQ0BIXShbQ0gyXTcpW0NIMl1bQ0gyXTMpW0NAXTQoW09IXSlbQ0gyXVtDQEBIXShjOFtjSF1bY0hdW2NIXVtjSF1bY0hdOCljOWM1W2NIXVtjSF1bY0hdW2NIXTk=

>  <s_epik_cmdline>  (120) 
J2VwaWtfcHl0aG9uJywgJy1waHQnLCAnMi4wJywgJy1waCcsICc3LjAnLCAnLXRuJywgJzgnLCAnLW1hJywgJzIwMCcsICctaW1hZScsICc8aW5maWxlLm1hZT4nLCAnLW9tYWUnLCAnPG91dGZpbGUubWFlPic=

>  <r_lp_tautomer_probability>  (120) 
1

>  <r_epik_Ionization_Penalty>  (120) 
0.0248322

>  <r_epik_Ionization_Penalty_Charging>  (120) 
0

>  <r_epik_Ionization_Penalty_Neutral>  (120) 
0.0248322

>  <r_epik_State_Penalty>  (120) 
0.0199713

>  <r_epik_Charging_Adjusted_Penalty>  (120) 
0.0199713

>  <i_epik_Tot_Q>  (120) 
1

>  <i_epik_Tot_abs_Q>  (120) 
1

>  <s_epik_Chemistry_Notes>  (120) 
This compound has an imine and may undergo hydrolysis.

>  <s_lp_Force_Field>  (120) 
OPLS3e

>  <r_lp_Energy>  (120) 
270.233

>  <b_lp_Chiralities_Consistent>  (120) 
1

>  <s_lp_Variant>  (120) 
33:0-2

>  <s_i_glide_gridfile>  (120) 
pfpi4k_grid

>  <i_i_glide_lignum>  (120) 
5

>  <i_i_glide_rotatable_bonds>  (120) 
2

>  <r_i_docking_score>  (120) 
-1.98672

>  <r_i_glide_ligand_efficiency>  (120) 
-0.0431896

>  <r_i_glide_ligand_efficiency_sa>  (120) 
-0.15475

>  <r_i_glide_ligand_efficiency_ln>  (120) 
-0.411445

>  <r_i_glide_gscore>  (120) 
-1.98672

>  <r_i_glide_lipo>  (120) 
-0.201377

>  <r_i_glide_hbond>  (120) 
0

>  <r_i_glide_metal>  (120) 
-0

>  <r_i_glide_rewards>  (120) 
0

>  <r_i_glide_evdw>  (120) 
-22.0597

>  <r_i_glide_ecoul>  (120) 
-4.65915

>  <r_i_glide_erotb>  (120) 
0.0554054

>  <r_i_glide_esite>  (120) 
-0.0388924

>  <r_i_glide_emodel>  (120) 
-30.907

>  <r_i_glide_energy>  (120) 
-26.7189

>  <r_i_glide_einternal>  (120) 
0.0859882

>  <r_i_glide_intrahb_reward>  (120) 
-0

>  <i_i_glide_confnum>  (120) 
2

>  <i_i_glide_posenum>  (120) 
26

>  <r_i_glide_eff_state_penalty>  (120) 
0

>  <ligand_id>  (120) 
33

>  <original_smiles>  (120) 
CC1(C)C=CC=CC2CC3C4CCCC4N=C(N2C1=O)C12CCC4CCC(C1(O)CC(c1ccccc1)c1ccccc12)[N+]3(C)C4

>  <smiles>  (120) 
[H]OC12C([H])([H])C([H])(c3c([H])c([H])c([H])c([H])c3[H])c3c([H])c([H])c([H])c([H])c3C13C1=NC4([H])C([H])([H])C([H])([H])C([H])([H])C4([H])C([H])(C([H])([H])C4([H])C([H])=C([H])C([H])=C([H])C(C([H])([H])[H])(C([H])([H])[H])C(=O)N14)[N+]1(C([H])([H])[H])C([H])([H])C([H])(C([H])([H])C3([H])[H])C([H])([H])C([H])([H])C21[H]

$$$$
33:2:0
     RDKit          3D

 96104  0  0  1  0  0  0  0  0999 V2000
    4.8673   -2.1308    7.8342 C   0  0  0  0  0  0  0  0  0  0  0  0
    4.1386   -2.4596    6.4908 C   0  0  0  0  0  0  0  0  0  0  0  0
    2.7207   -1.8896    6.7540 C   0  0  0  0  0  0  0  0  0  0  0  0
    4.8837   -1.5869    5.4464 C   0  0  0  0  0  0  0  0  0  0  0  0
    4.9933   -1.7574    4.1157 C   0  0  0  0  0  0  0  0  0  0  0  0
    4.3540   -2.8651    3.4679 C   0  0  0  0  0  0  0  0  0  0  0  0
    3.0278   -2.9812    3.6562 C   0  0  0  0  0  0  0  0  0  0  0  0
    2.4315   -4.1196    4.4721 C   0  0  1  0  0  0  0  0  0  0  0  0
    1.3248   -4.9126    3.6753 C   0  0  0  0  0  0  0  0  0  0  0  0
    0.6818   -6.2402    4.1915 C   0  0  2  0  0  0  0  0  0  0  0  0
    0.3118   -6.2656    5.7294 C   0  0  2  0  0  0  0  0  0  0  0  0
   -0.7508   -5.3558    6.3771 C   0  0  0  0  0  0  0  0  0  0  0  0
   -0.5522   -5.6322    7.8964 C   0  0  0  0  0  0  0  0  0  0  0  0
    0.7962   -6.3693    8.0533 C   0  0  0  0  0  0  0  0  0  0  0  0
    1.4494   -6.0345    6.7276 C   0  0  1  0  0  0  0  0  0  0  0  0
    2.6209   -6.7947    6.3342 N   0  0  0  0  0  0  0  0  0  0  0  0
    3.4273   -6.2156    5.4868 C   0  0  0  0  0  0  0  0  0  0  0  0
    3.4768   -4.7813    5.3436 N   0  0  0  0  0  0  0  0  0  0  0  0
    4.1281   -4.0500    6.3416 C   0  0  0  0  0  0  0  0  0  0  0  0
    4.7402   -4.6477    7.2299 O   0  0  0  0  0  0  0  0  0  0  0  0
    4.3354   -7.1004    4.5095 C   0  0  1  0  0  0  0  0  0  0  0  0
    4.4870   -8.5999    4.9825 C   0  0  0  0  0  0  0  0  0  0  0  0
    3.3388   -9.5821    5.2965 C   0  0  0  0  0  0  0  0  0  0  0  0
    2.2194   -9.7998    4.2652 C   0  0  2  0  0  0  0  0  0  0  0  0
    2.7022  -10.1543    2.8511 C   0  0  0  0  0  0  0  0  0  0  0  0
    2.4293   -9.0178    1.8757 C   0  0  0  0  0  0  0  0  0  0  0  0
    2.3153   -7.6273    2.5891 C   0  0  2  0  0  0  0  0  0  0  0  0
    3.7951   -7.0902    3.0095 C   0  0  1  0  0  0  0  0  0  0  0  0
    3.7523   -5.7631    2.6214 O   0  0  0  0  0  0  0  0  0  0  0  0
    4.9185   -7.5570    2.0047 C   0  0  0  0  0  0  0  0  0  0  0  0
    6.2606   -6.7810    2.0281 C   0  0  1  0  0  0  0  0  0  0  0  0
    6.3549   -5.5804    1.0309 C   0  0  0  0  0  0  0  0  0  0  0  0
    7.5724   -4.8734    0.8200 C   0  0  0  0  0  0  0  0  0  0  0  0
    7.6760   -3.7759   -0.0446 C   0  0  0  0  0  0  0  0  0  0  0  0
    6.5623   -3.3684   -0.7935 C   0  0  0  0  0  0  0  0  0  0  0  0
    5.3556   -4.0710   -0.6685 C   0  0  0  0  0  0  0  0  0  0  0  0
    5.2729   -5.1826    0.1918 C   0  0  0  0  0  0  0  0  0  0  0  0
    6.7065   -6.5058    3.4691 C   0  0  0  0  0  0  0  0  0  0  0  0
    8.0878   -6.2659    3.7102 C   0  0  0  0  0  0  0  0  0  0  0  0
    8.5941   -5.9876    4.9801 C   0  0  0  0  0  0  0  0  0  0  0  0
    7.7606   -6.1344    6.0864 C   0  0  0  0  0  0  0  0  0  0  0  0
    6.4197   -6.5030    5.8918 C   0  0  0  0  0  0  0  0  0  0  0  0
    5.8370   -6.6360    4.5972 C   0  0  0  0  0  0  0  0  0  0  0  0
    1.0636   -7.5816    3.4937 N   0  0  2  0  0  0  0  0  0  0  0  0
   -0.1253   -7.8369    2.6030 C   0  0  0  0  0  0  0  0  0  0  0  0
    1.0753   -8.7766    4.4074 C   0  0  0  0  0  0  0  0  0  0  0  0
    5.9185   -2.4325    7.8306 H   0  0  0  0  0  0  0  0  0  0  0  0
    4.3903   -2.6151    8.6933 H   0  0  0  0  0  0  0  0  0  0  0  0
    4.8565   -1.0595    8.0592 H   0  0  0  0  0  0  0  0  0  0  0  0
    2.1874   -1.6318    5.8444 H   0  0  0  0  0  0  0  0  0  0  0  0
    2.7477   -0.9537    7.3162 H   0  0  0  0  0  0  0  0  0  0  0  0
    2.1066   -2.5862    7.3293 H   0  0  0  0  0  0  0  0  0  0  0  0
    5.3963   -0.7269    5.8615 H   0  0  0  0  0  0  0  0  0  0  0  0
    5.5634   -1.0516    3.5316 H   0  0  0  0  0  0  0  0  0  0  0  0
    4.9624   -3.7571    3.4641 H   0  0  0  0  0  0  0  0  0  0  0  0
    2.4703   -2.0660    3.7650 H   0  0  0  0  0  0  0  0  0  0  0  0
    1.7950   -3.6220    5.1954 H   0  0  0  0  0  0  0  0  0  0  0  0
    0.5117   -4.1787    3.6603 H   0  0  0  0  0  0  0  0  0  0  0  0
    1.5252   -4.9576    2.6095 H   0  0  0  0  0  0  0  0  0  0  0  0
   -0.3203   -6.0050    3.8548 H   0  0  0  0  0  0  0  0  0  0  0  0
   -0.1921   -7.2061    5.9209 H   0  0  0  0  0  0  0  0  0  0  0  0
   -0.5681   -4.3022    6.1555 H   0  0  0  0  0  0  0  0  0  0  0  0
   -1.7698   -5.5961    6.0678 H   0  0  0  0  0  0  0  0  0  0  0  0
   -0.5572   -4.7006    8.4586 H   0  0  0  0  0  0  0  0  0  0  0  0
   -1.3545   -6.2436    8.2881 H   0  0  0  0  0  0  0  0  0  0  0  0
    1.3804   -6.0112    8.9003 H   0  0  0  0  0  0  0  0  0  0  0  0
    0.6554   -7.4456    8.1570 H   0  0  0  0  0  0  0  0  0  0  0  0
    1.6473   -4.9728    6.8506 H   0  0  0  0  0  0  0  0  0  0  0  0
    5.1600   -9.1210    4.3066 H   0  0  0  0  0  0  0  0  0  0  0  0
    5.0252   -8.6072    5.9264 H   0  0  0  0  0  0  0  0  0  0  0  0
    3.8057  -10.5582    5.4632 H   0  0  0  0  0  0  0  0  0  0  0  0
    2.9054   -9.3645    6.2738 H   0  0  0  0  0  0  0  0  0  0  0  0
    1.7744  -10.7333    4.6126 H   0  0  0  0  0  0  0  0  0  0  0  0
    3.7754  -10.3714    2.8623 H   0  0  0  0  0  0  0  0  0  0  0  0
    2.2239  -11.0726    2.4909 H   0  0  0  0  0  0  0  0  0  0  0  0
    3.1627   -9.0669    1.0719 H   0  0  0  0  0  0  0  0  0  0  0  0
    1.5480   -9.2685    1.2944 H   0  0  0  0  0  0  0  0  0  0  0  0
    2.0420   -7.0092    1.7372 H   0  0  0  0  0  0  0  0  0  0  0  0
    3.7172   -5.7071    1.6838 H   0  0  0  0  0  0  0  0  0  0  0  0
    5.1517   -8.5882    2.2539 H   0  0  0  0  0  0  0  0  0  0  0  0
    4.5928   -7.6225    0.9708 H   0  0  0  0  0  0  0  0  0  0  0  0
    6.9881   -7.4947    1.6500 H   0  0  0  0  0  0  0  0  0  0  0  0
    8.5197   -5.1334    1.2853 H   0  0  0  0  0  0  0  0  0  0  0  0
    8.6322   -3.2832   -0.1511 H   0  0  0  0  0  0  0  0  0  0  0  0
    6.6502   -2.5471   -1.4963 H   0  0  0  0  0  0  0  0  0  0  0  0
    4.4859   -3.7955   -1.2558 H   0  0  0  0  0  0  0  0  0  0  0  0
    4.3210   -5.7013    0.1466 H   0  0  0  0  0  0  0  0  0  0  0  0
    8.8496   -6.2970    2.9402 H   0  0  0  0  0  0  0  0  0  0  0  0
    9.6387   -5.7247    5.0927 H   0  0  0  0  0  0  0  0  0  0  0  0
    8.1725   -6.0230    7.0829 H   0  0  0  0  0  0  0  0  0  0  0  0
    5.8379   -6.7150    6.7800 H   0  0  0  0  0  0  0  0  0  0  0  0
   -0.1797   -8.8333    2.1869 H   0  0  0  0  0  0  0  0  0  0  0  0
   -0.1952   -7.1352    1.7758 H   0  0  0  0  0  0  0  0  0  0  0  0
   -1.0654   -7.7856    3.1488 H   0  0  0  0  0  0  0  0  0  0  0  0
    0.1429   -9.3310    4.3501 H   0  0  0  0  0  0  0  0  0  0  0  0
    1.1251   -8.5608    5.4562 H   0  0  0  0  0  0  0  0  0  0  0  0
  1  2  1  0
  1 47  1  0
  1 48  1  0
  1 49  1  0
  2 19  1  0
  2  3  1  0
  2  4  1  0
  3 50  1  0
  3 51  1  0
  3 52  1  0
  4  5  2  3
  4 53  1  0
  5  6  1  0
  5 54  1  0
  6  7  2  3
  6 55  1  0
  7  8  1  0
  7 56  1  0
  8 18  1  0
  8  9  1  0
  8 57  1  1
  9 10  1  0
  9 58  1  0
  9 59  1  0
 10 44  1  0
 10 11  1  0
 10 60  1  6
 11 15  1  0
 11 12  1  0
 11 61  1  1
 12 13  1  0
 12 62  1  0
 12 63  1  0
 13 14  1  0
 13 64  1  0
 13 65  1  0
 14 15  1  0
 14 66  1  0
 14 67  1  0
 15 16  1  0
 15 68  1  1
 16 17  2  3
 17 18  1  0
 17 21  1  0
 18 19  1  0
 19 20  2  0
 21 28  1  0
 21 43  1  6
 21 22  1  0
 22 23  1  0
 22 69  1  0
 22 70  1  0
 23 24  1  0
 23 71  1  0
 23 72  1  0
 24 46  1  0
 24 25  1  0
 24 73  1  1
 25 26  1  0
 25 74  1  0
 25 75  1  0
 26 27  1  0
 26 76  1  0
 26 77  1  0
 27 28  1  0
 27 44  1  0
 27 78  1  6
 28 29  1  6
 28 30  1  0
 29 79  1  0
 30 31  1  0
 30 80  1  0
 30 81  1  0
 31 32  1  0
 31 38  1  0
 31 82  1  6
 32 37  1  0
 32 33  2  0
 33 34  1  0
 33 83  1  0
 34 35  2  0
 34 84  1  0
 35 36  1  0
 35 85  1  0
 36 37  2  0
 36 86  1  0
 37 87  1  0
 38 43  2  0
 38 39  1  0
 39 40  2  0
 39 88  1  0
 40 41  1  0
 40 89  1  0
 41 42  2  0
 41 90  1  0
 42 43  1  0
 42 91  1  0
 44 45  1  6
 44 46  1  0
 45 92  1  0
 45 93  1  0
 45 94  1  0
 46 95  1  0
 46 96  1  0
M  CHG  1  44   1
M  END
>  <i_m_ct_stereo_status>  (121) 
1

>  <s_m_source_file>  (121) 
/var/tmp/pbs.5076255.sched01/tmpqm933_o1/456x1pmp19.sdf

>  <i_m_source_file_index>  (121) 
6

>  <i_lp_mmshare_version>  (121) 
48012

>  <i_f3d_flags>  (121) 
0

>  <s_epik_input>  (121) 
Tz1DMUMoW0NIM10pKFtDSDNdKS9bQ0hdPVtDSF1cW0NIXT1bQ0hdL1tDQEhdKE4xL0MyW0NAQF0zNDUpW0NIMl1bQ0hdKFtDQEhdNltDQEhdKC9OPTIpW0NIMl1bQ0gyXVtDSDJdNilbTkBAK103KFtDSDNdKVtDQEhdKFtDSDJdW0NIMl1bQ0BIXShbQ0gyXTcpW0NIMl1bQ0gyXTMpW0NAXTQoW09IXSlbQ0gyXVtDQEBIXShjOFtjSF1bY0hdW2NIXVtjSF1bY0hdOCljOWM1W2NIXVtjSF1bY0hdW2NIXTk=

>  <s_epik_cmdline>  (121) 
J2VwaWtfcHl0aG9uJywgJy1waHQnLCAnMi4wJywgJy1waCcsICc3LjAnLCAnLXRuJywgJzgnLCAnLW1hJywgJzIwMCcsICctaW1hZScsICc8aW5maWxlLm1hZT4nLCAnLW9tYWUnLCAnPG91dGZpbGUubWFlPic=

>  <r_lp_tautomer_probability>  (121) 
1

>  <r_epik_Ionization_Penalty>  (121) 
0.0248322

>  <r_epik_Ionization_Penalty_Charging>  (121) 
0

>  <r_epik_Ionization_Penalty_Neutral>  (121) 
0.0248322

>  <r_epik_State_Penalty>  (121) 
0.0199713

>  <r_epik_Charging_Adjusted_Penalty>  (121) 
0.0199713

>  <i_epik_Tot_Q>  (121) 
1

>  <i_epik_Tot_abs_Q>  (121) 
1

>  <s_epik_Chemistry_Notes>  (121) 
This compound has an imine and may undergo hydrolysis.

>  <s_lp_Force_Field>  (121) 
OPLS3e

>  <r_lp_Energy>  (121) 
273.83

>  <b_lp_Chiralities_Consistent>  (121) 
1

>  <s_lp_Variant>  (121) 
33:0-3

>  <s_i_glide_gridfile>  (121) 
pfpi4k_grid

>  <i_i_glide_lignum>  (121) 
6

>  <i_i_glide_rotatable_bonds>  (121) 
2

>  <r_i_docking_score>  (121) 
-2.64826

>  <r_i_glide_ligand_efficiency>  (121) 
-0.0575709

>  <r_i_glide_ligand_efficiency_sa>  (121) 
-0.206279

>  <r_i_glide_ligand_efficiency_ln>  (121) 
-0.548449

>  <r_i_glide_gscore>  (121) 
-2.64826

>  <r_i_glide_lipo>  (121) 
-0.998279

>  <r_i_glide_hbond>  (121) 
0

>  <r_i_glide_metal>  (121) 
-0

>  <r_i_glide_rewards>  (121) 
-3.23382e-06

>  <r_i_glide_evdw>  (121) 
-27.5397

>  <r_i_glide_ecoul>  (121) 
-2.07307

>  <r_i_glide_erotb>  (121) 
0.0554054

>  <r_i_glide_esite>  (121) 
-0.0174418

>  <r_i_glide_emodel>  (121) 
-33.4191

>  <r_i_glide_energy>  (121) 
-29.6127

>  <r_i_glide_einternal>  (121) 
3.93459

>  <r_i_glide_intrahb_reward>  (121) 
-0

>  <i_i_glide_confnum>  (121) 
2

>  <i_i_glide_posenum>  (121) 
2

>  <r_i_glide_eff_state_penalty>  (121) 
0

>  <ligand_id>  (121) 
33

>  <original_smiles>  (121) 
CC1(C)C=CC=CC2CC3C4CCCC4N=C(N2C1=O)C12CCC4CCC(C1(O)CC(c1ccccc1)c1ccccc12)[N+]3(C)C4

>  <smiles>  (121) 
[H]OC12C([H])([H])C([H])(c3c([H])c([H])c([H])c([H])c3[H])c3c([H])c([H])c([H])c([H])c3C13C1=NC4([H])C([H])([H])C([H])([H])C([H])([H])C4([H])C([H])(C([H])([H])C4([H])C([H])=C([H])C([H])=C([H])C(C([H])([H])[H])(C([H])([H])[H])C(=O)N14)[N+]1(C([H])([H])[H])C([H])([H])C([H])(C([H])([H])C3([H])[H])C([H])([H])C([H])([H])C21[H]

$$$$
33:2:1
     RDKit          3D

 96104  0  0  1  0  0  0  0  0999 V2000
    4.7545   -3.8003    8.8278 C   0  0  0  0  0  0  0  0  0  0  0  0
    4.0559   -4.3612    7.5444 C   0  0  0  0  0  0  0  0  0  0  0  0
    2.5553   -4.2718    7.9313 C   0  0  0  0  0  0  0  0  0  0  0  0
    4.3947   -3.3131    6.4516 C   0  0  0  0  0  0  0  0  0  0  0  0
    4.4395   -3.4558    5.1102 C   0  0  0  0  0  0  0  0  0  0  0  0
    4.1240   -4.7133    4.4991 C   0  0  0  0  0  0  0  0  0  0  0  0
    2.9263   -5.2435    4.7995 C   0  0  0  0  0  0  0  0  0  0  0  0
    2.7987   -6.5055    5.6470 C   0  0  1  0  0  0  0  0  0  0  0  0
    1.9280   -7.6067    4.9362 C   0  0  0  0  0  0  0  0  0  0  0  0
    1.7759   -9.0588    5.4887 C   0  0  2  0  0  0  0  0  0  0  0  0
    1.5748   -9.1930    7.0510 C   0  0  2  0  0  0  0  0  0  0  0  0
    0.3406   -8.6700    7.8009 C   0  0  0  0  0  0  0  0  0  0  0  0
    0.7502   -8.8543    9.2956 C   0  0  0  0  0  0  0  0  0  0  0  0
    2.2742   -9.1157    9.3184 C   0  0  0  0  0  0  0  0  0  0  0  0
    2.6697   -8.6066    7.9465 C   0  0  1  0  0  0  0  0  0  0  0  0
    3.9846   -8.9536    7.4438 N   0  0  0  0  0  0  0  0  0  0  0  0
    4.4887   -8.1663    6.5355 C   0  0  0  0  0  0  0  0  0  0  0  0
    4.0666   -6.7878    6.4149 N   0  0  0  0  0  0  0  0  0  0  0  0
    4.5442   -5.8786    7.3619 C   0  0  0  0  0  0  0  0  0  0  0  0
    5.3854   -6.2355    8.1864 O   0  0  0  0  0  0  0  0  0  0  0  0
    5.5430   -8.7214    5.4756 C   0  0  1  0  0  0  0  0  0  0  0  0
    6.2051  -10.0931    5.9080 C   0  0  0  0  0  0  0  0  0  0  0  0
    5.4592  -11.3866    6.3022 C   0  0  0  0  0  0  0  0  0  0  0  0
    4.3883  -11.9691    5.3680 C   0  0  2  0  0  0  0  0  0  0  0  0
    4.8336  -12.1505    3.9109 C   0  0  0  0  0  0  0  0  0  0  0  0
    4.1254  -11.1784    2.9845 C   0  0  0  0  0  0  0  0  0  0  0  0
    3.6419   -9.8808    3.7144 C   0  0  2  0  0  0  0  0  0  0  0  0
    4.9015   -8.8929    4.0201 C   0  0  1  0  0  0  0  0  0  0  0  0
    4.4152   -7.6502    3.6470 O   0  0  0  0  0  0  0  0  0  0  0  0
    6.0235   -8.9967    2.9229 C   0  0  0  0  0  0  0  0  0  0  0  0
    7.0439   -7.8351    2.8410 C   0  0  1  0  0  0  0  0  0  0  0  0
    6.6737   -6.6888    1.8516 C   0  0  0  0  0  0  0  0  0  0  0  0
    7.6121   -5.6662    1.5399 C   0  0  0  0  0  0  0  0  0  0  0  0
    7.2824   -4.6039    0.6824 C   0  0  0  0  0  0  0  0  0  0  0  0
    6.0130   -4.5457    0.0756 C   0  0  0  0  0  0  0  0  0  0  0  0
    5.0864   -5.5722    0.3185 C   0  0  0  0  0  0  0  0  0  0  0  0
    5.4255   -6.6397    1.1637 C   0  0  0  0  0  0  0  0  0  0  0  0
    7.5009   -7.4035    4.2407 C   0  0  0  0  0  0  0  0  0  0  0  0
    8.7258   -6.6913    4.3425 C   0  0  0  0  0  0  0  0  0  0  0  0
    9.2413   -6.2814    5.5782 C   0  0  0  0  0  0  0  0  0  0  0  0
    8.6126   -6.6945    6.7543 C   0  0  0  0  0  0  0  0  0  0  0  0
    7.4481   -7.4742    6.6753 C   0  0  0  0  0  0  0  0  0  0  0  0
    6.8225   -7.8005    5.4381 C   0  0  0  0  0  0  0  0  0  0  0  0
    2.5151  -10.2265    4.7331 N   0  0  2  0  0  0  0  0  0  0  0  0
    1.3926  -10.8651    3.9428 C   0  0  0  0  0  0  0  0  0  0  0  0
    2.9992  -11.3505    5.6277 C   0  0  0  0  0  0  0  0  0  0  0  0
    5.8413   -3.7531    8.7264 H   0  0  0  0  0  0  0  0  0  0  0  0
    4.5319   -4.4022    9.7133 H   0  0  0  0  0  0  0  0  0  0  0  0
    4.4225   -2.7870    9.0664 H   0  0  0  0  0  0  0  0  0  0  0  0
    1.8934   -4.2119    7.0729 H   0  0  0  0  0  0  0  0  0  0  0  0
    2.3301   -3.3698    8.5018 H   0  0  0  0  0  0  0  0  0  0  0  0
    2.2463   -5.1199    8.5459 H   0  0  0  0  0  0  0  0  0  0  0  0
    4.6346   -2.3284    6.8308 H   0  0  0  0  0  0  0  0  0  0  0  0
    4.7030   -2.6104    4.4934 H   0  0  0  0  0  0  0  0  0  0  0  0
    4.9809   -5.3662    4.4301 H   0  0  0  0  0  0  0  0  0  0  0  0
    2.1170   -4.5530    4.9727 H   0  0  0  0  0  0  0  0  0  0  0  0
    2.1040   -6.2227    6.4324 H   0  0  0  0  0  0  0  0  0  0  0  0
    0.9256   -7.1776    4.9960 H   0  0  0  0  0  0  0  0  0  0  0  0
    2.0441   -7.6120    3.8550 H   0  0  0  0  0  0  0  0  0  0  0  0
    0.7259   -9.1726    5.2303 H   0  0  0  0  0  0  0  0  0  0  0  0
    1.4113  -10.2465    7.2544 H   0  0  0  0  0  0  0  0  0  0  0  0
    0.1614   -7.6149    7.5818 H   0  0  0  0  0  0  0  0  0  0  0  0
   -0.5697   -9.2235    7.5570 H   0  0  0  0  0  0  0  0  0  0  0  0
    0.5025   -7.9618    9.8679 H   0  0  0  0  0  0  0  0  0  0  0  0
    0.2308   -9.6853    9.7647 H   0  0  0  0  0  0  0  0  0  0  0  0
    2.7844   -8.5799   10.1182 H   0  0  0  0  0  0  0  0  0  0  0  0
    2.4931  -10.1796    9.4151 H   0  0  0  0  0  0  0  0  0  0  0  0
    2.5314   -7.5341    8.0693 H   0  0  0  0  0  0  0  0  0  0  0  0
    6.9471  -10.3794    5.1677 H   0  0  0  0  0  0  0  0  0  0  0  0
    6.7973   -9.9156    6.8021 H   0  0  0  0  0  0  0  0  0  0  0  0
    6.2270  -12.1568    6.4145 H   0  0  0  0  0  0  0  0  0  0  0  0
    5.0636  -11.3025    7.3150 H   0  0  0  0  0  0  0  0  0  0  0  0
    4.2821  -12.9895    5.7317 H   0  0  0  0  0  0  0  0  0  0  0  0
    5.9171  -12.0251    3.8289 H   0  0  0  0  0  0  0  0  0  0  0  0
    4.6336  -13.1696    3.5601 H   0  0  0  0  0  0  0  0  0  0  0  0
    4.7640  -10.9928    2.1316 H   0  0  0  0  0  0  0  0  0  0  0  0
    3.3221  -11.7063    2.4798 H   0  0  0  0  0  0  0  0  0  0  0  0
    3.0998   -9.3973    2.9034 H   0  0  0  0  0  0  0  0  0  0  0  0
    4.1609   -7.6782    2.7390 H   0  0  0  0  0  0  0  0  0  0  0  0
    6.5904   -9.9019    3.1258 H   0  0  0  0  0  0  0  0  0  0  0  0
    5.6392   -9.1684    1.9195 H   0  0  0  0  0  0  0  0  0  0  0  0
    7.9302   -8.2807    2.3912 H   0  0  0  0  0  0  0  0  0  0  0  0
    8.6169   -5.6537    1.9168 H   0  0  0  0  0  0  0  0  0  0  0  0
    8.0238   -3.8486    0.4744 H   0  0  0  0  0  0  0  0  0  0  0  0
    5.7751   -3.7485   -0.6156 H   0  0  0  0  0  0  0  0  0  0  0  0
    4.1216   -5.5667   -0.1699 H   0  0  0  0  0  0  0  0  0  0  0  0
    4.6792   -7.4191    1.2428 H   0  0  0  0  0  0  0  0  0  0  0  0
    9.3421   -6.4736    3.4952 H   0  0  0  0  0  0  0  0  0  0  0  0
   10.1553   -5.7076    5.6125 H   0  0  0  0  0  0  0  0  0  0  0  0
    9.0520   -6.4544    7.7113 H   0  0  0  0  0  0  0  0  0  0  0  0
    7.0459   -7.8500    7.6030 H   0  0  0  0  0  0  0  0  0  0  0  0
    1.6275  -11.8383    3.5182 H   0  0  0  0  0  0  0  0  0  0  0  0
    1.0331  -10.2249    3.1359 H   0  0  0  0  0  0  0  0  0  0  0  0
    0.5345  -11.1061    4.5751 H   0  0  0  0  0  0  0  0  0  0  0  0
    2.2829  -12.1697    5.6288 H   0  0  0  0  0  0  0  0  0  0  0  0
    3.0536  -11.1054    6.6713 H   0  0  0  0  0  0  0  0  0  0  0  0
  1  2  1  0
  1 47  1  0
  1 48  1  0
  1 49  1  0
  2 19  1  0
  2  3  1  0
  2  4  1  0
  3 50  1  0
  3 51  1  0
  3 52  1  0
  4  5  2  3
  4 53  1  0
  5  6  1  0
  5 54  1  0
  6  7  2  3
  6 55  1  0
  7  8  1  0
  7 56  1  0
  8 18  1  0
  8  9  1  0
  8 57  1  1
  9 10  1  0
  9 58  1  0
  9 59  1  0
 10 44  1  0
 10 11  1  0
 10 60  1  6
 11 15  1  0
 11 12  1  0
 11 61  1  6
 12 13  1  0
 12 62  1  0
 12 63  1  0
 13 14  1  0
 13 64  1  0
 13 65  1  0
 14 15  1  0
 14 66  1  0
 14 67  1  0
 15 16  1  0
 15 68  1  1
 16 17  2  3
 17 18  1  0
 17 21  1  0
 18 19  1  0
 19 20  2  0
 21 28  1  0
 21 43  1  6
 21 22  1  0
 22 23  1  0
 22 69  1  0
 22 70  1  0
 23 24  1  0
 23 71  1  0
 23 72  1  0
 24 46  1  0
 24 25  1  0
 24 73  1  1
 25 26  1  0
 25 74  1  0
 25 75  1  0
 26 27  1  0
 26 76  1  0
 26 77  1  0
 27 28  1  0
 27 44  1  0
 27 78  1  6
 28 29  1  6
 28 30  1  0
 29 79  1  0
 30 31  1  0
 30 80  1  0
 30 81  1  0
 31 32  1  0
 31 38  1  0
 31 82  1  6
 32 37  1  0
 32 33  2  0
 33 34  1  0
 33 83  1  0
 34 35  2  0
 34 84  1  0
 35 36  1  0
 35 85  1  0
 36 37  2  0
 36 86  1  0
 37 87  1  0
 38 43  2  0
 38 39  1  0
 39 40  2  0
 39 88  1  0
 40 41  1  0
 40 89  1  0
 41 42  2  0
 41 90  1  0
 42 43  1  0
 42 91  1  0
 44 45  1  6
 44 46  1  0
 45 92  1  0
 45 93  1  0
 45 94  1  0
 46 95  1  0
 46 96  1  0
M  CHG  1  44   1
M  END
>  <i_m_ct_stereo_status>  (122) 
1

>  <s_m_source_file>  (122) 
/var/tmp/pbs.5076255.sched01/tmpqm933_o1/456x1pmp19.sdf

>  <i_m_source_file_index>  (122) 
6

>  <i_lp_mmshare_version>  (122) 
48012

>  <i_f3d_flags>  (122) 
0

>  <s_epik_input>  (122) 
Tz1DMUMoW0NIM10pKFtDSDNdKS9bQ0hdPVtDSF1cW0NIXT1bQ0hdL1tDQEhdKE4xL0MyW0NAQF0zNDUpW0NIMl1bQ0hdKFtDQEhdNltDQEhdKC9OPTIpW0NIMl1bQ0gyXVtDSDJdNilbTkBAK103KFtDSDNdKVtDQEhdKFtDSDJdW0NIMl1bQ0BIXShbQ0gyXTcpW0NIMl1bQ0gyXTMpW0NAXTQoW09IXSlbQ0gyXVtDQEBIXShjOFtjSF1bY0hdW2NIXVtjSF1bY0hdOCljOWM1W2NIXVtjSF1bY0hdW2NIXTk=

>  <s_epik_cmdline>  (122) 
J2VwaWtfcHl0aG9uJywgJy1waHQnLCAnMi4wJywgJy1waCcsICc3LjAnLCAnLXRuJywgJzgnLCAnLW1hJywgJzIwMCcsICctaW1hZScsICc8aW5maWxlLm1hZT4nLCAnLW9tYWUnLCAnPG91dGZpbGUubWFlPic=

>  <r_lp_tautomer_probability>  (122) 
1

>  <r_epik_Ionization_Penalty>  (122) 
0.0248322

>  <r_epik_Ionization_Penalty_Charging>  (122) 
0

>  <r_epik_Ionization_Penalty_Neutral>  (122) 
0.0248322

>  <r_epik_State_Penalty>  (122) 
0.0199713

>  <r_epik_Charging_Adjusted_Penalty>  (122) 
0.0199713

>  <i_epik_Tot_Q>  (122) 
1

>  <i_epik_Tot_abs_Q>  (122) 
1

>  <s_epik_Chemistry_Notes>  (122) 
This compound has an imine and may undergo hydrolysis.

>  <s_lp_Force_Field>  (122) 
OPLS3e

>  <r_lp_Energy>  (122) 
273.83

>  <b_lp_Chiralities_Consistent>  (122) 
1

>  <s_lp_Variant>  (122) 
33:0-3

>  <s_i_glide_gridfile>  (122) 
pfpi4k_grid

>  <i_i_glide_lignum>  (122) 
6

>  <i_i_glide_rotatable_bonds>  (122) 
2

>  <r_i_docking_score>  (122) 
-2.48112

>  <r_i_glide_ligand_efficiency>  (122) 
-0.0539375

>  <r_i_glide_ligand_efficiency_sa>  (122) 
-0.193261

>  <r_i_glide_ligand_efficiency_ln>  (122) 
-0.513835

>  <r_i_glide_gscore>  (122) 
-2.48112

>  <r_i_glide_lipo>  (122) 
-0.690121

>  <r_i_glide_hbond>  (122) 
0

>  <r_i_glide_metal>  (122) 
-0

>  <r_i_glide_rewards>  (122) 
0

>  <r_i_glide_evdw>  (122) 
-23.5418

>  <r_i_glide_ecoul>  (122) 
-4.28051

>  <r_i_glide_erotb>  (122) 
0.0554054

>  <r_i_glide_esite>  (122) 
-0.0272427

>  <r_i_glide_emodel>  (122) 
-31.3489

>  <r_i_glide_energy>  (122) 
-27.8223

>  <r_i_glide_einternal>  (122) 
3.87263

>  <r_i_glide_intrahb_reward>  (122) 
-0

>  <i_i_glide_confnum>  (122) 
2

>  <i_i_glide_posenum>  (122) 
33

>  <r_i_glide_eff_state_penalty>  (122) 
0

>  <ligand_id>  (122) 
33

>  <original_smiles>  (122) 
CC1(C)C=CC=CC2CC3C4CCCC4N=C(N2C1=O)C12CCC4CCC(C1(O)CC(c1ccccc1)c1ccccc12)[N+]3(C)C4

>  <smiles>  (122) 
[H]OC12C([H])([H])C([H])(c3c([H])c([H])c([H])c([H])c3[H])c3c([H])c([H])c([H])c([H])c3C13C1=NC4([H])C([H])([H])C([H])([H])C([H])([H])C4([H])C([H])(C([H])([H])C4([H])C([H])=C([H])C([H])=C([H])C(C([H])([H])[H])(C([H])([H])[H])C(=O)N14)[N+]1(C([H])([H])[H])C([H])([H])C([H])(C([H])([H])C3([H])[H])C([H])([H])C([H])([H])C21[H]

$$$$
33:2:2
     RDKit          3D

 96104  0  0  1  0  0  0  0  0999 V2000
    7.6197   -7.8607    1.5790 C   0  0  0  0  0  0  0  0  0  0  0  0
    6.5395   -7.1241    2.4366 C   0  0  0  0  0  0  0  0  0  0  0  0
    7.2041   -5.7416    2.6593 C   0  0  0  0  0  0  0  0  0  0  0  0
    5.3301   -6.9893    1.4762 C   0  0  0  0  0  0  0  0  0  0  0  0
    4.0197   -6.8394    1.7534 C   0  0  0  0  0  0  0  0  0  0  0  0
    3.5733   -6.7613    3.1113 C   0  0  0  0  0  0  0  0  0  0  0  0
    4.1375   -5.8101    3.8732 C   0  0  0  0  0  0  0  0  0  0  0  0
    5.0795   -6.1529    5.0195 C   0  0  1  0  0  0  0  0  0  0  0  0
    4.6274   -5.4920    6.3741 C   0  0  0  0  0  0  0  0  0  0  0  0
    5.2979   -5.8096    7.7460 C   0  0  2  0  0  0  0  0  0  0  0  0
    6.8771   -5.9142    7.7422 C   0  0  2  0  0  0  0  0  0  0  0  0
    7.8146   -4.7315    7.4412 C   0  0  0  0  0  0  0  0  0  0  0  0
    9.2118   -5.4199    7.3547 C   0  0  0  0  0  0  0  0  0  0  0  0
    8.9585   -6.9416    7.2369 C   0  0  0  0  0  0  0  0  0  0  0  0
    7.5040   -6.9549    6.8110 C   0  0  1  0  0  0  0  0  0  0  0  0
    6.7795   -8.2098    6.8970 N   0  0  0  0  0  0  0  0  0  0  0  0
    5.7422   -8.3339    6.1153 C   0  0  0  0  0  0  0  0  0  0  0  0
    5.6063   -7.5663    4.9040 N   0  0  0  0  0  0  0  0  0  0  0  0
    6.3803   -7.9423    3.8019 C   0  0  0  0  0  0  0  0  0  0  0  0
    7.0506   -8.9763    3.8529 O   0  0  0  0  0  0  0  0  0  0  0  0
    4.5351   -9.2984    6.5273 C   0  0  1  0  0  0  0  0  0  0  0  0
    4.9253  -10.3521    7.6420 C   0  0  0  0  0  0  0  0  0  0  0  0
    5.5477  -10.0385    9.0203 C   0  0  0  0  0  0  0  0  0  0  0  0
    4.8800   -9.0045    9.9417 C   0  0  2  0  0  0  0  0  0  0  0  0
    3.3814   -9.2293   10.1871 C   0  0  0  0  0  0  0  0  0  0  0  0
    2.5422   -8.1532    9.5177 C   0  0  0  0  0  0  0  0  0  0  0  0
    3.2653   -7.4887    8.2962 C   0  0  2  0  0  0  0  0  0  0  0  0
    3.2499   -8.4866    7.0106 C   0  0  1  0  0  0  0  0  0  0  0  0
    2.8691   -7.6305    5.9875 O   0  0  0  0  0  0  0  0  0  0  0  0
    1.9688   -9.4011    6.9786 C   0  0  0  0  0  0  0  0  0  0  0  0
    1.6068  -10.0605    5.6250 C   0  0  1  0  0  0  0  0  0  0  0  0
    0.6454   -9.2338    4.7138 C   0  0  0  0  0  0  0  0  0  0  0  0
    0.1403   -9.7648    3.4978 C   0  0  0  0  0  0  0  0  0  0  0  0
   -0.7293   -9.0428    2.6702 C   0  0  0  0  0  0  0  0  0  0  0  0
   -1.1599   -7.7608    3.0400 C   0  0  0  0  0  0  0  0  0  0  0  0
   -0.7093   -7.2102    4.2509 C   0  0  0  0  0  0  0  0  0  0  0  0
    0.1552   -7.9473    5.0839 C   0  0  0  0  0  0  0  0  0  0  0  0
    2.8588  -10.6182    4.9434 C   0  0  0  0  0  0  0  0  0  0  0  0
    2.6846  -11.6323    3.9690 C   0  0  0  0  0  0  0  0  0  0  0  0
    3.7580  -12.2174    3.2996 C   0  0  0  0  0  0  0  0  0  0  0  0
    5.0599  -11.9212    3.7015 C   0  0  0  0  0  0  0  0  0  0  0  0
    5.2591  -10.9956    4.7383 C   0  0  0  0  0  0  0  0  0  0  0  0
    4.1929  -10.2736    5.3407 C   0  0  0  0  0  0  0  0  0  0  0  0
    4.5005   -6.6799    8.7745 N   0  0  2  0  0  0  0  0  0  0  0  0
    3.9878   -5.6407    9.7495 C   0  0  0  0  0  0  0  0  0  0  0  0
    5.3608   -7.5681    9.6483 C   0  0  0  0  0  0  0  0  0  0  0  0
    7.3076   -8.8657    1.2837 H   0  0  0  0  0  0  0  0  0  0  0  0
    8.5741   -7.9522    2.1075 H   0  0  0  0  0  0  0  0  0  0  0  0
    7.8534   -7.3263    0.6545 H   0  0  0  0  0  0  0  0  0  0  0  0
    6.4869   -4.9511    2.8571 H   0  0  0  0  0  0  0  0  0  0  0  0
    7.7426   -5.3931    1.7759 H   0  0  0  0  0  0  0  0  0  0  0  0
    7.9267   -5.7690    3.4783 H   0  0  0  0  0  0  0  0  0  0  0  0
    5.5815   -7.0311    0.4279 H   0  0  0  0  0  0  0  0  0  0  0  0
    3.3080   -6.7734    0.9454 H   0  0  0  0  0  0  0  0  0  0  0  0
    3.3922   -7.7384    3.5310 H   0  0  0  0  0  0  0  0  0  0  0  0
    4.4113   -4.8899    3.3826 H   0  0  0  0  0  0  0  0  0  0  0  0
    5.9617   -5.5511    4.8253 H   0  0  0  0  0  0  0  0  0  0  0  0
    4.8454   -4.4356    6.1906 H   0  0  0  0  0  0  0  0  0  0  0  0
    3.5472   -5.4242    6.4727 H   0  0  0  0  0  0  0  0  0  0  0  0
    5.2577   -4.7942    8.1271 H   0  0  0  0  0  0  0  0  0  0  0  0
    7.1904   -6.0631    8.7711 H   0  0  0  0  0  0  0  0  0  0  0  0
    7.5625   -4.2567    6.4902 H   0  0  0  0  0  0  0  0  0  0  0  0
    7.7936   -3.9613    8.2161 H   0  0  0  0  0  0  0  0  0  0  0  0
    9.7593   -5.0555    6.4886 H   0  0  0  0  0  0  0  0  0  0  0  0
    9.8221   -5.2085    8.2308 H   0  0  0  0  0  0  0  0  0  0  0  0
    9.6036   -7.4239    6.5036 H   0  0  0  0  0  0  0  0  0  0  0  0
    9.0894   -7.4412    8.1960 H   0  0  0  0  0  0  0  0  0  0  0  0
    7.5746   -6.5707    5.7959 H   0  0  0  0  0  0  0  0  0  0  0  0
    4.0792  -11.0092    7.8290 H   0  0  0  0  0  0  0  0  0  0  0  0
    5.6724  -11.0244    7.2299 H   0  0  0  0  0  0  0  0  0  0  0  0
    5.5633  -10.9852    9.5690 H   0  0  0  0  0  0  0  0  0  0  0  0
    6.6107   -9.8157    8.9156 H   0  0  0  0  0  0  0  0  0  0  0  0
    5.3277   -9.2335   10.9070 H   0  0  0  0  0  0  0  0  0  0  0  0
    3.0868  -10.2129    9.8123 H   0  0  0  0  0  0  0  0  0  0  0  0
    3.1517   -9.2465   11.2590 H   0  0  0  0  0  0  0  0  0  0  0  0
    1.5616   -8.5645    9.2961 H   0  0  0  0  0  0  0  0  0  0  0  0
    2.2422   -7.4345   10.2733 H   0  0  0  0  0  0  0  0  0  0  0  0
    2.5414   -6.7201    8.0365 H   0  0  0  0  0  0  0  0  0  0  0  0
    2.6297   -8.1542    5.2366 H   0  0  0  0  0  0  0  0  0  0  0  0
    2.1332  -10.2059    7.6889 H   0  0  0  0  0  0  0  0  0  0  0  0
    1.0749   -8.9186    7.3612 H   0  0  0  0  0  0  0  0  0  0  0  0
    1.0115  -10.9348    5.8853 H   0  0  0  0  0  0  0  0  0  0  0  0
    0.3495  -10.7647    3.1404 H   0  0  0  0  0  0  0  0  0  0  0  0
   -1.0740   -9.5063    1.7574 H   0  0  0  0  0  0  0  0  0  0  0  0
   -1.8439   -7.2218    2.4011 H   0  0  0  0  0  0  0  0  0  0  0  0
   -1.0271   -6.2275    4.5675 H   0  0  0  0  0  0  0  0  0  0  0  0
    0.4227   -7.4637    6.0156 H   0  0  0  0  0  0  0  0  0  0  0  0
    1.7193  -12.0477    3.7191 H   0  0  0  0  0  0  0  0  0  0  0  0
    3.5664  -12.9461    2.5207 H   0  0  0  0  0  0  0  0  0  0  0  0
    5.8875  -12.4413    3.2440 H   0  0  0  0  0  0  0  0  0  0  0  0
    6.2751  -10.8655    5.0870 H   0  0  0  0  0  0  0  0  0  0  0  0
    3.5983   -6.0380   10.6794 H   0  0  0  0  0  0  0  0  0  0  0  0
    3.2253   -4.9965    9.3147 H   0  0  0  0  0  0  0  0  0  0  0  0
    4.7869   -4.9942   10.1132 H   0  0  0  0  0  0  0  0  0  0  0  0
    5.5706   -7.0945   10.6043 H   0  0  0  0  0  0  0  0  0  0  0  0
    6.3520   -7.7438    9.2818 H   0  0  0  0  0  0  0  0  0  0  0  0
  1  2  1  0
  1 47  1  0
  1 48  1  0
  1 49  1  0
  2 19  1  0
  2  3  1  0
  2  4  1  0
  3 50  1  0
  3 51  1  0
  3 52  1  0
  4  5  2  3
  4 53  1  0
  5  6  1  0
  5 54  1  0
  6  7  2  3
  6 55  1  0
  7  8  1  0
  7 56  1  0
  8 18  1  0
  8  9  1  0
  8 57  1  6
  9 10  1  0
  9 58  1  0
  9 59  1  0
 10 44  1  0
 10 11  1  0
 10 60  1  1
 11 15  1  0
 11 12  1  0
 11 61  1  1
 12 13  1  0
 12 62  1  0
 12 63  1  0
 13 14  1  0
 13 64  1  0
 13 65  1  0
 14 15  1  0
 14 66  1  0
 14 67  1  0
 15 16  1  0
 15 68  1  6
 16 17  2  3
 17 18  1  0
 17 21  1  0
 18 19  1  0
 19 20  2  0
 21 28  1  0
 21 43  1  6
 21 22  1  0
 22 23  1  0
 22 69  1  0
 22 70  1  0
 23 24  1  0
 23 71  1  0
 23 72  1  0
 24 46  1  0
 24 25  1  0
 24 73  1  1
 25 26  1  0
 25 74  1  0
 25 75  1  0
 26 27  1  0
 26 76  1  0
 26 77  1  0
 27 28  1  0
 27 44  1  0
 27 78  1  6
 28 29  1  6
 28 30  1  0
 29 79  1  0
 30 31  1  0
 30 80  1  0
 30 81  1  0
 31 32  1  0
 31 38  1  0
 31 82  1  1
 32 37  1  0
 32 33  2  0
 33 34  1  0
 33 83  1  0
 34 35  2  0
 34 84  1  0
 35 36  1  0
 35 85  1  0
 36 37  2  0
 36 86  1  0
 37 87  1  0
 38 43  2  0
 38 39  1  0
 39 40  2  0
 39 88  1  0
 40 41  1  0
 40 89  1  0
 41 42  2  0
 41 90  1  0
 42 43  1  0
 42 91  1  0
 44 45  1  1
 44 46  1  0
 45 92  1  0
 45 93  1  0
 45 94  1  0
 46 95  1  0
 46 96  1  0
M  CHG  1  44   1
M  END
>  <i_m_ct_stereo_status>  (123) 
1

>  <s_m_source_file>  (123) 
/var/tmp/pbs.5076255.sched01/tmpqm933_o1/456x1pmp19.sdf

>  <i_m_source_file_index>  (123) 
6

>  <i_lp_mmshare_version>  (123) 
48012

>  <i_f3d_flags>  (123) 
0

>  <s_epik_input>  (123) 
Tz1DMUMoW0NIM10pKFtDSDNdKS9bQ0hdPVtDSF1cW0NIXT1bQ0hdL1tDQEhdKE4xL0MyW0NAQF0zNDUpW0NIMl1bQ0hdKFtDQEhdNltDQEhdKC9OPTIpW0NIMl1bQ0gyXVtDSDJdNilbTkBAK103KFtDSDNdKVtDQEhdKFtDSDJdW0NIMl1bQ0BIXShbQ0gyXTcpW0NIMl1bQ0gyXTMpW0NAXTQoW09IXSlbQ0gyXVtDQEBIXShjOFtjSF1bY0hdW2NIXVtjSF1bY0hdOCljOWM1W2NIXVtjSF1bY0hdW2NIXTk=

>  <s_epik_cmdline>  (123) 
J2VwaWtfcHl0aG9uJywgJy1waHQnLCAnMi4wJywgJy1waCcsICc3LjAnLCAnLXRuJywgJzgnLCAnLW1hJywgJzIwMCcsICctaW1hZScsICc8aW5maWxlLm1hZT4nLCAnLW9tYWUnLCAnPG91dGZpbGUubWFlPic=

>  <r_lp_tautomer_probability>  (123) 
1

>  <r_epik_Ionization_Penalty>  (123) 
0.0248322

>  <r_epik_Ionization_Penalty_Charging>  (123) 
0

>  <r_epik_Ionization_Penalty_Neutral>  (123) 
0.0248322

>  <r_epik_State_Penalty>  (123) 
0.0199713

>  <r_epik_Charging_Adjusted_Penalty>  (123) 
0.0199713

>  <i_epik_Tot_Q>  (123) 
1

>  <i_epik_Tot_abs_Q>  (123) 
1

>  <s_epik_Chemistry_Notes>  (123) 
This compound has an imine and may undergo hydrolysis.

>  <s_lp_Force_Field>  (123) 
OPLS3e

>  <r_lp_Energy>  (123) 
273.83

>  <b_lp_Chiralities_Consistent>  (123) 
1

>  <s_lp_Variant>  (123) 
33:0-3

>  <s_i_glide_gridfile>  (123) 
pfpi4k_grid

>  <i_i_glide_lignum>  (123) 
6

>  <i_i_glide_rotatable_bonds>  (123) 
2

>  <r_i_docking_score>  (123) 
-1.81863

>  <r_i_glide_ligand_efficiency>  (123) 
-0.0395355

>  <r_i_glide_ligand_efficiency_sa>  (123) 
-0.141658

>  <r_i_glide_ligand_efficiency_ln>  (123) 
-0.376635

>  <r_i_glide_gscore>  (123) 
-1.81863

>  <r_i_glide_lipo>  (123) 
-0.230537

>  <r_i_glide_hbond>  (123) 
0

>  <r_i_glide_metal>  (123) 
-0

>  <r_i_glide_rewards>  (123) 
-0.00344156

>  <r_i_glide_evdw>  (123) 
-26.8015

>  <r_i_glide_ecoul>  (123) 
-1.99991

>  <r_i_glide_erotb>  (123) 
0.0554054

>  <r_i_glide_esite>  (123) 
0

>  <r_i_glide_emodel>  (123) 
-30.7139

>  <r_i_glide_energy>  (123) 
-28.8014

>  <r_i_glide_einternal>  (123) 
3.96765

>  <r_i_glide_intrahb_reward>  (123) 
-0

>  <i_i_glide_confnum>  (123) 
2

>  <i_i_glide_posenum>  (123) 
32

>  <r_i_glide_eff_state_penalty>  (123) 
0

>  <ligand_id>  (123) 
33

>  <original_smiles>  (123) 
CC1(C)C=CC=CC2CC3C4CCCC4N=C(N2C1=O)C12CCC4CCC(C1(O)CC(c1ccccc1)c1ccccc12)[N+]3(C)C4

>  <smiles>  (123) 
[H]OC12C([H])([H])C([H])(c3c([H])c([H])c([H])c([H])c3[H])c3c([H])c([H])c([H])c([H])c3C13C1=NC4([H])C([H])([H])C([H])([H])C([H])([H])C4([H])C([H])(C([H])([H])C4([H])C([H])=C([H])C([H])=C([H])C(C([H])([H])[H])(C([H])([H])[H])C(=O)N14)[N+]1(C([H])([H])[H])C([H])([H])C([H])(C([H])([H])C3([H])[H])C([H])([H])C([H])([H])C21[H]

$$$$
33:3:0
     RDKit          3D

 96104  0  0  1  0  0  0  0  0999 V2000
    5.7124   -1.3295    5.8212 C   0  0  0  0  0  0  0  0  0  0  0  0
    4.3851   -2.0409    6.1775 C   0  0  0  0  0  0  0  0  0  0  0  0
    4.4194   -2.3104    7.7020 C   0  0  0  0  0  0  0  0  0  0  0  0
    3.1971   -1.1562    5.8448 C   0  0  0  0  0  0  0  0  0  0  0  0
    2.8654   -0.8706    4.5661 C   0  0  0  0  0  0  0  0  0  0  0  0
    1.6508   -1.5117    4.1185 C   0  0  0  0  0  0  0  0  0  0  0  0
    1.8312   -2.8286    3.8900 C   0  0  0  0  0  0  0  0  0  0  0  0
    1.7585   -3.8208    5.0631 C   0  0  1  0  0  0  0  0  0  0  0  0
    0.7231   -4.9536    4.7448 C   0  0  0  0  0  0  0  0  0  0  0  0
    0.5906   -6.1658    5.7227 C   0  0  1  0  0  0  0  0  0  0  0  0
    0.3897   -5.8157    7.2555 C   0  0  2  0  0  0  0  0  0  0  0  0
   -0.8876   -5.1524    7.7714 C   0  0  0  0  0  0  0  0  0  0  0  0
   -0.4988   -4.6653    9.1949 C   0  0  0  0  0  0  0  0  0  0  0  0
    1.0299   -4.8276    9.3358 C   0  0  0  0  0  0  0  0  0  0  0  0
    1.4834   -4.8951    7.8844 C   0  0  1  0  0  0  0  0  0  0  0  0
    2.8237   -5.4288    7.6686 N   0  0  0  0  0  0  0  0  0  0  0  0
    3.3448   -5.3143    6.4743 C   0  0  0  0  0  0  0  0  0  0  0  0
    3.1464   -4.1921    5.6130 N   0  0  0  0  0  0  0  0  0  0  0  0
    4.2385   -3.3987    5.4066 C   0  0  0  0  0  0  0  0  0  0  0  0
    5.0656   -3.6825    4.5400 O   0  0  0  0  0  0  0  0  0  0  0  0
    3.9927   -6.6315    5.8023 C   0  0  1  0  0  0  0  0  0  0  0  0
    3.9810   -7.8673    6.7941 C   0  0  0  0  0  0  0  0  0  0  0  0
    2.7076   -8.5238    7.4168 C   0  0  0  0  0  0  0  0  0  0  0  0
    1.7235   -9.3667    6.5694 C   0  0  2  0  0  0  0  0  0  0  0  0
    2.3463  -10.1399    5.3963 C   0  0  0  0  0  0  0  0  0  0  0  0
    1.9769   -9.4557    4.0801 C   0  0  0  0  0  0  0  0  0  0  0  0
    1.8553   -7.9044    4.2414 C   0  0  2  0  0  0  0  0  0  0  0  0
    3.3175   -7.1346    4.3938 C   0  0  1  0  0  0  0  0  0  0  0  0
    3.1500   -6.0330    3.5386 O   0  0  0  0  0  0  0  0  0  0  0  0
    4.3871   -7.9431    3.5837 C   0  0  0  0  0  0  0  0  0  0  0  0
    5.7156   -7.2343    3.2569 C   0  0  1  0  0  0  0  0  0  0  0  0
    5.6962   -6.2935    2.0185 C   0  0  0  0  0  0  0  0  0  0  0  0
    6.7716   -5.4108    1.7438 C   0  0  0  0  0  0  0  0  0  0  0  0
    6.7708   -4.5737    0.6163 C   0  0  0  0  0  0  0  0  0  0  0  0
    5.6881   -4.5878   -0.2720 C   0  0  0  0  0  0  0  0  0  0  0  0
    4.6129   -5.4561   -0.0304 C   0  0  0  0  0  0  0  0  0  0  0  0
    4.6257   -6.3136    1.0819 C   0  0  0  0  0  0  0  0  0  0  0  0
    6.3172   -6.6474    4.5284 C   0  0  0  0  0  0  0  0  0  0  0  0
    7.7180   -6.4586    4.5688 C   0  0  0  0  0  0  0  0  0  0  0  0
    8.3487   -5.8709    5.6704 C   0  0  0  0  0  0  0  0  0  0  0  0
    7.5924   -5.5430    6.8018 C   0  0  0  0  0  0  0  0  0  0  0  0
    6.2124   -5.8004    6.8091 C   0  0  0  0  0  0  0  0  0  0  0  0
    5.5310   -6.3479    5.6838 C   0  0  0  0  0  0  0  0  0  0  0  0
    0.5908   -7.5645    5.1074 N   0  0  2  0  0  0  0  0  0  0  0  0
   -0.6430   -7.6178    4.2542 C   0  0  0  0  0  0  0  0  0  0  0  0
    0.4147   -8.6613    6.1351 C   0  0  0  0  0  0  0  0  0  0  0  0
    5.7953   -1.1062    4.7568 H   0  0  0  0  0  0  0  0  0  0  0  0
    6.5698   -1.9484    6.0932 H   0  0  0  0  0  0  0  0  0  0  0  0
    5.8159   -0.3870    6.3616 H   0  0  0  0  0  0  0  0  0  0  0  0
    3.4861   -2.7312    8.0743 H   0  0  0  0  0  0  0  0  0  0  0  0
    4.5886   -1.3882    8.2596 H   0  0  0  0  0  0  0  0  0  0  0  0
    5.2210   -2.9996    7.9734 H   0  0  0  0  0  0  0  0  0  0  0  0
    2.3853   -1.3412    6.5327 H   0  0  0  0  0  0  0  0  0  0  0  0
    3.6605   -0.8371    3.8377 H   0  0  0  0  0  0  0  0  0  0  0  0
    0.8329   -1.2665    4.7817 H   0  0  0  0  0  0  0  0  0  0  0  0
    2.6643   -3.0822    3.2451 H   0  0  0  0  0  0  0  0  0  0  0  0
    1.2532   -3.2090    5.7994 H   0  0  0  0  0  0  0  0  0  0  0  0
   -0.2537   -4.4780    4.7014 H   0  0  0  0  0  0  0  0  0  0  0  0
    0.8643   -5.2905    3.7198 H   0  0  0  0  0  0  0  0  0  0  0  0
    1.5225   -6.5370    5.9355 H   0  0  0  0  0  0  0  0  0  0  0  0
    0.4416   -6.7229    7.8391 H   0  0  0  0  0  0  0  0  0  0  0  0
   -1.1754   -4.3081    7.1426 H   0  0  0  0  0  0  0  0  0  0  0  0
   -1.7262   -5.8460    7.8062 H   0  0  0  0  0  0  0  0  0  0  0  0
   -0.7846   -3.6208    9.3197 H   0  0  0  0  0  0  0  0  0  0  0  0
   -1.0099   -5.2263    9.9758 H   0  0  0  0  0  0  0  0  0  0  0  0
    1.4890   -3.9967    9.8721 H   0  0  0  0  0  0  0  0  0  0  0  0
    1.2764   -5.7477    9.8651 H   0  0  0  0  0  0  0  0  0  0  0  0
    1.4227   -3.8527    7.6064 H   0  0  0  0  0  0  0  0  0  0  0  0
    4.5957   -8.6630    6.3795 H   0  0  0  0  0  0  0  0  0  0  0  0
    4.5382   -7.5728    7.6819 H   0  0  0  0  0  0  0  0  0  0  0  0
    3.1044   -9.2272    8.1523 H   0  0  0  0  0  0  0  0  0  0  0  0
    2.1676   -7.8399    8.0583 H   0  0  0  0  0  0  0  0  0  0  0  0
    1.3854  -10.1421    7.2541 H   0  0  0  0  0  0  0  0  0  0  0  0
    3.4273  -10.2437    5.5062 H   0  0  0  0  0  0  0  0  0  0  0  0
    1.9645  -11.1656    5.3743 H   0  0  0  0  0  0  0  0  0  0  0  0
    2.6366   -9.7884    3.2856 H   0  0  0  0  0  0  0  0  0  0  0  0
    1.0143   -9.8594    3.7617 H   0  0  0  0  0  0  0  0  0  0  0  0
    1.5438   -7.6283    3.2328 H   0  0  0  0  0  0  0  0  0  0  0  0
    3.9952   -5.6238    3.4057 H   0  0  0  0  0  0  0  0  0  0  0  0
    4.6472   -8.8167    4.1805 H   0  0  0  0  0  0  0  0  0  0  0  0
    3.9922   -8.3727    2.6671 H   0  0  0  0  0  0  0  0  0  0  0  0
    6.3963   -8.0355    2.9635 H   0  0  0  0  0  0  0  0  0  0  0  0
    7.6403   -5.3304    2.3706 H   0  0  0  0  0  0  0  0  0  0  0  0
    7.6181   -3.9313    0.4383 H   0  0  0  0  0  0  0  0  0  0  0  0
    5.6841   -3.9504   -1.1443 H   0  0  0  0  0  0  0  0  0  0  0  0
    3.7760   -5.4732   -0.7118 H   0  0  0  0  0  0  0  0  0  0  0  0
    3.7670   -6.9585    1.1930 H   0  0  0  0  0  0  0  0  0  0  0  0
    8.3362   -6.7435    3.7317 H   0  0  0  0  0  0  0  0  0  0  0  0
    9.4122   -5.6857    5.6502 H   0  0  0  0  0  0  0  0  0  0  0  0
    8.0738   -5.1195    7.6679 H   0  0  0  0  0  0  0  0  0  0  0  0
    5.6778   -5.5700    7.7196 H   0  0  0  0  0  0  0  0  0  0  0  0
   -0.7867   -8.5905    3.7801 H   0  0  0  0  0  0  0  0  0  0  0  0
   -0.6359   -6.8849    3.4494 H   0  0  0  0  0  0  0  0  0  0  0  0
   -1.5303   -7.4284    4.8613 H   0  0  0  0  0  0  0  0  0  0  0  0
   -0.1828   -9.4664    5.6997 H   0  0  0  0  0  0  0  0  0  0  0  0
   -0.1985   -8.3926    6.9868 H   0  0  0  0  0  0  0  0  0  0  0  0
  1  2  1  0
  1 47  1  0
  1 48  1  0
  1 49  1  0
  2 19  1  0
  2  3  1  0
  2  4  1  0
  3 50  1  0
  3 51  1  0
  3 52  1  0
  4  5  2  3
  4 53  1  0
  5  6  1  0
  5 54  1  0
  6  7  2  3
  6 55  1  0
  7  8  1  0
  7 56  1  0
  8 18  1  0
  8  9  1  0
  8 57  1  1
  9 10  1  0
  9 58  1  0
  9 59  1  0
 10 44  1  0
 10 11  1  0
 10 60  1  1
 11 15  1  0
 11 12  1  0
 11 61  1  1
 12 13  1  0
 12 62  1  0
 12 63  1  0
 13 14  1  0
 13 64  1  0
 13 65  1  0
 14 15  1  0
 14 66  1  0
 14 67  1  0
 15 16  1  0
 15 68  1  6
 16 17  2  3
 17 18  1  0
 17 21  1  0
 18 19  1  0
 19 20  2  0
 21 28  1  0
 21 43  1  6
 21 22  1  0
 22 23  1  0
 22 69  1  0
 22 70  1  0
 23 24  1  0
 23 71  1  0
 23 72  1  0
 24 46  1  0
 24 25  1  0
 24 73  1  1
 25 26  1  0
 25 74  1  0
 25 75  1  0
 26 27  1  0
 26 76  1  0
 26 77  1  0
 27 28  1  0
 27 44  1  0
 27 78  1  6
 28 29  1  6
 28 30  1  0
 29 79  1  0
 30 31  1  0
 30 80  1  0
 30 81  1  0
 31 32  1  0
 31 38  1  0
 31 82  1  6
 32 37  1  0
 32 33  2  0
 33 34  1  0
 33 83  1  0
 34 35  2  0
 34 84  1  0
 35 36  1  0
 35 85  1  0
 36 37  2  0
 36 86  1  0
 37 87  1  0
 38 43  2  0
 38 39  1  0
 39 40  2  0
 39 88  1  0
 40 41  1  0
 40 89  1  0
 41 42  2  0
 41 90  1  0
 42 43  1  0
 42 91  1  0
 44 45  1  6
 44 46  1  0
 45 92  1  0
 45 93  1  0
 45 94  1  0
 46 95  1  0
 46 96  1  0
M  CHG  1  44   1
M  END
>  <i_m_ct_stereo_status>  (124) 
1

>  <s_m_source_file>  (124) 
/var/tmp/pbs.5076255.sched01/tmpqm933_o1/456x1pmp19.sdf

>  <i_m_source_file_index>  (124) 
7

>  <i_lp_mmshare_version>  (124) 
48012

>  <i_f3d_flags>  (124) 
2

>  <s_epik_input>  (124) 
Tz1DMUMoW0NIM10pKFtDSDNdKS9bQ0hdPVtDSF1cW0NIXT1bQ0hdL1tDQEhdKE4xL0MyW0NAQF0zNDUpW0NIMl1bQ0hdKFtDQEhdNltDQEhdKC9OPTIpW0NIMl1bQ0gyXVtDSDJdNilbTkBAK103KFtDSDNdKVtDQEhdKFtDSDJdW0NIMl1bQ0BIXShbQ0gyXTcpW0NIMl1bQ0gyXTMpW0NAXTQoW09IXSlbQ0gyXVtDQEBIXShjOFtjSF1bY0hdW2NIXVtjSF1bY0hdOCljOWM1W2NIXVtjSF1bY0hdW2NIXTk=

>  <s_epik_cmdline>  (124) 
J2VwaWtfcHl0aG9uJywgJy1waHQnLCAnMi4wJywgJy1waCcsICc3LjAnLCAnLXRuJywgJzgnLCAnLW1hJywgJzIwMCcsICctaW1hZScsICc8aW5maWxlLm1hZT4nLCAnLW9tYWUnLCAnPG91dGZpbGUubWFlPic=

>  <r_lp_tautomer_probability>  (124) 
1

>  <r_epik_Ionization_Penalty>  (124) 
0.0248322

>  <r_epik_Ionization_Penalty_Charging>  (124) 
0

>  <r_epik_Ionization_Penalty_Neutral>  (124) 
0.0248322

>  <r_epik_State_Penalty>  (124) 
0.0199713

>  <r_epik_Charging_Adjusted_Penalty>  (124) 
0.0199713

>  <i_epik_Tot_Q>  (124) 
1

>  <i_epik_Tot_abs_Q>  (124) 
1

>  <s_epik_Chemistry_Notes>  (124) 
This compound has an imine and may undergo hydrolysis.

>  <s_lp_Force_Field>  (124) 
OPLS3e

>  <r_lp_Energy>  (124) 
316.088

>  <b_lp_Chiralities_Consistent>  (124) 
0

>  <s_lp_Variant>  (124) 
33:0-4

>  <s_i_glide_gridfile>  (124) 
pfpi4k_grid

>  <i_i_glide_lignum>  (124) 
7

>  <i_i_glide_rotatable_bonds>  (124) 
2

>  <r_i_docking_score>  (124) 
-2.45884

>  <r_i_glide_ligand_efficiency>  (124) 
-0.0534529

>  <r_i_glide_ligand_efficiency_sa>  (124) 
-0.191524

>  <r_i_glide_ligand_efficiency_ln>  (124) 
-0.509219

>  <r_i_glide_gscore>  (124) 
-2.45884

>  <r_i_glide_lipo>  (124) 
-0.533798

>  <r_i_glide_hbond>  (124) 
0

>  <r_i_glide_metal>  (124) 
-0

>  <r_i_glide_rewards>  (124) 
-0.50236

>  <r_i_glide_evdw>  (124) 
-23.3113

>  <r_i_glide_ecoul>  (124) 
-1.96687

>  <r_i_glide_erotb>  (124) 
0.0554054

>  <r_i_glide_esite>  (124) 
-0.0174857

>  <r_i_glide_emodel>  (124) 
-34.2507

>  <r_i_glide_energy>  (124) 
-25.2782

>  <r_i_glide_einternal>  (124) 
3.42488

>  <r_i_glide_intrahb_reward>  (124) 
-0.5

>  <i_i_glide_confnum>  (124) 
2

>  <i_i_glide_posenum>  (124) 
40

>  <r_i_glide_eff_state_penalty>  (124) 
0

>  <ligand_id>  (124) 
33

>  <original_smiles>  (124) 
CC1(C)C=CC=CC2CC3C4CCCC4N=C(N2C1=O)C12CCC4CCC(C1(O)CC(c1ccccc1)c1ccccc12)[N+]3(C)C4

>  <smiles>  (124) 
[H]OC12C([H])([H])C([H])(c3c([H])c([H])c([H])c([H])c3[H])c3c([H])c([H])c([H])c([H])c3C13C1=NC4([H])C([H])([H])C([H])([H])C([H])([H])C4([H])C([H])(C([H])([H])C4([H])C([H])=C([H])C([H])=C([H])C(C([H])([H])[H])(C([H])([H])[H])C(=O)N14)[N+]1(C([H])([H])[H])C([H])([H])C([H])(C([H])([H])C3([H])[H])C([H])([H])C([H])([H])C21[H]

$$$$
33:3:1
     RDKit          3D

 96104  0  0  1  0  0  0  0  0999 V2000
    6.8324   -4.4384    7.1259 C   0  0  0  0  0  0  0  0  0  0  0  0
    5.5257   -5.2057    7.4441 C   0  0  0  0  0  0  0  0  0  0  0  0
    5.8653   -6.2929    8.4776 C   0  0  0  0  0  0  0  0  0  0  0  0
    4.4429   -4.2656    7.9475 C   0  0  0  0  0  0  0  0  0  0  0  0
    3.9090   -3.3307    7.1249 C   0  0  0  0  0  0  0  0  0  0  0  0
    2.5436   -3.6073    6.7442 C   0  0  0  0  0  0  0  0  0  0  0  0
    2.4624   -4.5812    5.8126 C   0  0  0  0  0  0  0  0  0  0  0  0
    2.4666   -6.0529    6.2560 C   0  0  1  0  0  0  0  0  0  0  0  0
    1.2250   -6.7997    5.6497 C   0  0  0  0  0  0  0  0  0  0  0  0
    1.1284   -8.3393    5.8342 C   0  0  1  0  0  0  0  0  0  0  0  0
    1.3273   -8.9120    7.2836 C   0  0  2  0  0  0  0  0  0  0  0  0
    0.3197   -8.6371    8.3963 C   0  0  0  0  0  0  0  0  0  0  0  0
    1.0840   -9.0349    9.6900 C   0  0  0  0  0  0  0  0  0  0  0  0
    2.5600   -9.2644    9.3002 C   0  0  0  0  0  0  0  0  0  0  0  0
    2.6667   -8.5231    7.9809 C   0  0  1  0  0  0  0  0  0  0  0  0
    3.8192   -8.8652    7.1573 N   0  0  0  0  0  0  0  0  0  0  0  0
    4.0643   -8.0864    6.1342 C   0  0  0  0  0  0  0  0  0  0  0  0
    3.8682   -6.6915    6.1476 N   0  0  0  0  0  0  0  0  0  0  0  0
    5.0097   -5.9184    6.1365 C   0  0  0  0  0  0  0  0  0  0  0  0
    5.6253   -5.7086    5.0905 O   0  0  0  0  0  0  0  0  0  0  0  0
    4.3275   -8.8035    4.6970 C   0  0  1  0  0  0  0  0  0  0  0  0
    4.3436  -10.3821    4.8211 C   0  0  0  0  0  0  0  0  0  0  0  0
    3.1661  -11.2600    5.3307 C   0  0  0  0  0  0  0  0  0  0  0  0
    1.8924  -11.4532    4.4810 C   0  0  2  0  0  0  0  0  0  0  0  0
    2.0860  -11.4780    2.9617 C   0  0  0  0  0  0  0  0  0  0  0  0
    1.5654  -10.1683    2.3923 C   0  0  0  0  0  0  0  0  0  0  0  0
    1.7455   -8.9735    3.3634 C   0  0  2  0  0  0  0  0  0  0  0  0
    3.2819   -8.4179    3.4885 C   0  0  1  0  0  0  0  0  0  0  0  0
    3.1157   -7.0235    3.4106 O   0  0  0  0  0  0  0  0  0  0  0  0
    3.9829   -8.6322    2.0989 C   0  0  0  0  0  0  0  0  0  0  0  0
    5.3220   -7.9178    1.8434 C   0  0  1  0  0  0  0  0  0  0  0  0
    5.1719   -6.4560    1.3430 C   0  0  0  0  0  0  0  0  0  0  0  0
    5.6569   -5.3730    2.1274 C   0  0  0  0  0  0  0  0  0  0  0  0
    5.4215   -4.0272    1.7461 C   0  0  0  0  0  0  0  0  0  0  0  0
    4.8599   -3.7324    0.4902 C   0  0  0  0  0  0  0  0  0  0  0  0
    4.4874   -4.8146   -0.3389 C   0  0  0  0  0  0  0  0  0  0  0  0
    4.6018   -6.1660    0.0833 C   0  0  0  0  0  0  0  0  0  0  0  0
    6.2703   -8.1184    3.0235 C   0  0  0  0  0  0  0  0  0  0  0  0
    7.6510   -7.9224    2.7711 C   0  0  0  0  0  0  0  0  0  0  0  0
    8.6019   -8.1091    3.7876 C   0  0  0  0  0  0  0  0  0  0  0  0
    8.1849   -8.4969    5.0655 C   0  0  0  0  0  0  0  0  0  0  0  0
    6.8209   -8.7029    5.3283 C   0  0  0  0  0  0  0  0  0  0  0  0
    5.8265   -8.5096    4.3214 C   0  0  0  0  0  0  0  0  0  0  0  0
    0.7724   -9.1577    4.5909 N   0  0  2  0  0  0  0  0  0  0  0  0
   -0.6284   -8.7074    4.2118 C   0  0  0  0  0  0  0  0  0  0  0  0
    0.6436  -10.6479    4.8709 C   0  0  0  0  0  0  0  0  0  0  0  0
    6.7123   -3.6780    6.3517 H   0  0  0  0  0  0  0  0  0  0  0  0
    7.6057   -5.1124    6.7544 H   0  0  0  0  0  0  0  0  0  0  0  0
    7.2411   -3.9507    8.0059 H   0  0  0  0  0  0  0  0  0  0  0  0
    4.9827   -6.8593    8.7811 H   0  0  0  0  0  0  0  0  0  0  0  0
    6.3218   -5.8517    9.3646 H   0  0  0  0  0  0  0  0  0  0  0  0
    6.5803   -7.0086    8.0555 H   0  0  0  0  0  0  0  0  0  0  0  0
    3.7748   -4.8059    8.6084 H   0  0  0  0  0  0  0  0  0  0  0  0
    4.5314   -2.9117    6.3369 H   0  0  0  0  0  0  0  0  0  0  0  0
    1.9437   -3.7603    7.6322 H   0  0  0  0  0  0  0  0  0  0  0  0
    3.0767   -4.4362    4.9317 H   0  0  0  0  0  0  0  0  0  0  0  0
    2.2065   -5.9319    7.3111 H   0  0  0  0  0  0  0  0  0  0  0  0
    0.3383   -6.3858    6.1326 H   0  0  0  0  0  0  0  0  0  0  0  0
    1.0881   -6.5022    4.6080 H   0  0  0  0  0  0  0  0  0  0  0  0
    2.0066   -8.7985    5.5350 H   0  0  0  0  0  0  0  0  0  0  0  0
    1.3628   -9.9885    7.2526 H   0  0  0  0  0  0  0  0  0  0  0  0
    0.0454   -7.5821    8.4376 H   0  0  0  0  0  0  0  0  0  0  0  0
   -0.5899   -9.2225    8.2647 H   0  0  0  0  0  0  0  0  0  0  0  0
    1.0088   -8.2389   10.4278 H   0  0  0  0  0  0  0  0  0  0  0  0
    0.6821   -9.9343   10.1540 H   0  0  0  0  0  0  0  0  0  0  0  0
    3.2582   -8.8848   10.0460 H   0  0  0  0  0  0  0  0  0  0  0  0
    2.7576  -10.3225    9.1580 H   0  0  0  0  0  0  0  0  0  0  0  0
    2.7135   -7.5046    8.3522 H   0  0  0  0  0  0  0  0  0  0  0  0
    4.7180  -10.8143    3.8954 H   0  0  0  0  0  0  0  0  0  0  0  0
    5.1191  -10.6340    5.5367 H   0  0  0  0  0  0  0  0  0  0  0  0
    3.5808  -12.2682    5.4299 H   0  0  0  0  0  0  0  0  0  0  0  0
    2.8945  -11.0554    6.3559 H   0  0  0  0  0  0  0  0  0  0  0  0
    1.5933  -12.4520    4.7193 H   0  0  0  0  0  0  0  0  0  0  0  0
    3.1294  -11.6064    2.6983 H   0  0  0  0  0  0  0  0  0  0  0  0
    1.5411  -12.3215    2.4982 H   0  0  0  0  0  0  0  0  0  0  0  0
    1.9815   -9.9674    1.4165 H   0  0  0  0  0  0  0  0  0  0  0  0
    0.5136  -10.3005    2.1653 H   0  0  0  0  0  0  0  0  0  0  0  0
    1.2585   -8.1915    2.8185 H   0  0  0  0  0  0  0  0  0  0  0  0
    3.9797   -6.6325    3.3385 H   0  0  0  0  0  0  0  0  0  0  0  0
    4.2187   -9.6940    2.0317 H   0  0  0  0  0  0  0  0  0  0  0  0
    3.3330   -8.3843    1.2457 H   0  0  0  0  0  0  0  0  0  0  0  0
    5.7972   -8.4583    1.0165 H   0  0  0  0  0  0  0  0  0  0  0  0
    6.2548   -5.5706    3.0311 H   0  0  0  0  0  0  0  0  0  0  0  0
    5.7329   -3.2348    2.4152 H   0  0  0  0  0  0  0  0  0  0  0  0
    4.7730   -2.6932    0.1523 H   0  0  0  0  0  0  0  0  0  0  0  0
    4.1158   -4.6014   -1.3371 H   0  0  0  0  0  0  0  0  0  0  0  0
    4.3219   -6.9893   -0.5771 H   0  0  0  0  0  0  0  0  0  0  0  0
    7.9989   -7.6422    1.7797 H   0  0  0  0  0  0  0  0  0  0  0  0
    9.6606   -7.9730    3.5729 H   0  0  0  0  0  0  0  0  0  0  0  0
    8.9138   -8.6473    5.8566 H   0  0  0  0  0  0  0  0  0  0  0  0
    6.5455   -9.0214    6.3319 H   0  0  0  0  0  0  0  0  0  0  0  0
   -1.0241   -9.2476    3.3638 H   0  0  0  0  0  0  0  0  0  0  0  0
   -0.6791   -7.6583    3.9633 H   0  0  0  0  0  0  0  0  0  0  0  0
   -1.3072   -8.8800    5.0343 H   0  0  0  0  0  0  0  0  0  0  0  0
   -0.1385  -11.0467    4.2358 H   0  0  0  0  0  0  0  0  0  0  0  0
    0.2625  -10.8818    5.8417 H   0  0  0  0  0  0  0  0  0  0  0  0
  1  2  1  0
  1 47  1  0
  1 48  1  0
  1 49  1  0
  2 19  1  0
  2  3  1  0
  2  4  1  0
  3 50  1  0
  3 51  1  0
  3 52  1  0
  4  5  2  3
  4 53  1  0
  5  6  1  0
  5 54  1  0
  6  7  2  3
  6 55  1  0
  7  8  1  0
  7 56  1  0
  8 18  1  0
  8  9  1  0
  8 57  1  1
  9 10  1  0
  9 58  1  0
  9 59  1  0
 10 44  1  0
 10 11  1  0
 10 60  1  6
 11 15  1  0
 11 12  1  0
 11 61  1  6
 12 13  1  0
 12 62  1  0
 12 63  1  0
 13 14  1  0
 13 64  1  0
 13 65  1  0
 14 15  1  0
 14 66  1  0
 14 67  1  0
 15 16  1  0
 15 68  1  1
 16 17  2  3
 17 18  1  0
 17 21  1  0
 18 19  1  0
 19 20  2  0
 21 28  1  0
 21 43  1  6
 21 22  1  0
 22 23  1  0
 22 69  1  0
 22 70  1  0
 23 24  1  0
 23 71  1  0
 23 72  1  0
 24 46  1  0
 24 25  1  0
 24 73  1  1
 25 26  1  0
 25 74  1  0
 25 75  1  0
 26 27  1  0
 26 76  1  0
 26 77  1  0
 27 28  1  0
 27 44  1  0
 27 78  1  6
 28 29  1  1
 28 30  1  0
 29 79  1  0
 30 31  1  0
 30 80  1  0
 30 81  1  0
 31 32  1  0
 31 38  1  0
 31 82  1  6
 32 37  1  0
 32 33  2  0
 33 34  1  0
 33 83  1  0
 34 35  2  0
 34 84  1  0
 35 36  1  0
 35 85  1  0
 36 37  2  0
 36 86  1  0
 37 87  1  0
 38 43  2  0
 38 39  1  0
 39 40  2  0
 39 88  1  0
 40 41  1  0
 40 89  1  0
 41 42  2  0
 41 90  1  0
 42 43  1  0
 42 91  1  0
 44 45  1  6
 44 46  1  0
 45 92  1  0
 45 93  1  0
 45 94  1  0
 46 95  1  0
 46 96  1  0
M  CHG  1  44   1
M  END
>  <i_m_ct_stereo_status>  (125) 
1

>  <s_m_source_file>  (125) 
/var/tmp/pbs.5076255.sched01/tmpqm933_o1/456x1pmp19.sdf

>  <i_m_source_file_index>  (125) 
7

>  <i_lp_mmshare_version>  (125) 
48012

>  <i_f3d_flags>  (125) 
2

>  <s_epik_input>  (125) 
Tz1DMUMoW0NIM10pKFtDSDNdKS9bQ0hdPVtDSF1cW0NIXT1bQ0hdL1tDQEhdKE4xL0MyW0NAQF0zNDUpW0NIMl1bQ0hdKFtDQEhdNltDQEhdKC9OPTIpW0NIMl1bQ0gyXVtDSDJdNilbTkBAK103KFtDSDNdKVtDQEhdKFtDSDJdW0NIMl1bQ0BIXShbQ0gyXTcpW0NIMl1bQ0gyXTMpW0NAXTQoW09IXSlbQ0gyXVtDQEBIXShjOFtjSF1bY0hdW2NIXVtjSF1bY0hdOCljOWM1W2NIXVtjSF1bY0hdW2NIXTk=

>  <s_epik_cmdline>  (125) 
J2VwaWtfcHl0aG9uJywgJy1waHQnLCAnMi4wJywgJy1waCcsICc3LjAnLCAnLXRuJywgJzgnLCAnLW1hJywgJzIwMCcsICctaW1hZScsICc8aW5maWxlLm1hZT4nLCAnLW9tYWUnLCAnPG91dGZpbGUubWFlPic=

>  <r_lp_tautomer_probability>  (125) 
1

>  <r_epik_Ionization_Penalty>  (125) 
0.0248322

>  <r_epik_Ionization_Penalty_Charging>  (125) 
0

>  <r_epik_Ionization_Penalty_Neutral>  (125) 
0.0248322

>  <r_epik_State_Penalty>  (125) 
0.0199713

>  <r_epik_Charging_Adjusted_Penalty>  (125) 
0.0199713

>  <i_epik_Tot_Q>  (125) 
1

>  <i_epik_Tot_abs_Q>  (125) 
1

>  <s_epik_Chemistry_Notes>  (125) 
This compound has an imine and may undergo hydrolysis.

>  <s_lp_Force_Field>  (125) 
OPLS3e

>  <r_lp_Energy>  (125) 
316.088

>  <b_lp_Chiralities_Consistent>  (125) 
0

>  <s_lp_Variant>  (125) 
33:0-4

>  <s_i_glide_gridfile>  (125) 
pfpi4k_grid

>  <i_i_glide_lignum>  (125) 
7

>  <i_i_glide_rotatable_bonds>  (125) 
2

>  <r_i_docking_score>  (125) 
-2.42978

>  <r_i_glide_ligand_efficiency>  (125) 
-0.0528214

>  <r_i_glide_ligand_efficiency_sa>  (125) 
-0.189261

>  <r_i_glide_ligand_efficiency_ln>  (125) 
-0.503202

>  <r_i_glide_gscore>  (125) 
-2.42978

>  <r_i_glide_lipo>  (125) 
-0.522493

>  <r_i_glide_hbond>  (125) 
0

>  <r_i_glide_metal>  (125) 
-0

>  <r_i_glide_rewards>  (125) 
0

>  <r_i_glide_evdw>  (125) 
-27.0217

>  <r_i_glide_ecoul>  (125) 
-3.83687

>  <r_i_glide_erotb>  (125) 
0.0554054

>  <r_i_glide_esite>  (125) 
-0.0360811

>  <r_i_glide_emodel>  (125) 
-35.1411

>  <r_i_glide_energy>  (125) 
-30.8585

>  <r_i_glide_einternal>  (125) 
0.262673

>  <r_i_glide_intrahb_reward>  (125) 
-0

>  <i_i_glide_confnum>  (125) 
2

>  <i_i_glide_posenum>  (125) 
28

>  <r_i_glide_eff_state_penalty>  (125) 
0

>  <ligand_id>  (125) 
33

>  <original_smiles>  (125) 
CC1(C)C=CC=CC2CC3C4CCCC4N=C(N2C1=O)C12CCC4CCC(C1(O)CC(c1ccccc1)c1ccccc12)[N+]3(C)C4

>  <smiles>  (125) 
[H]OC12C([H])([H])C([H])(c3c([H])c([H])c([H])c([H])c3[H])c3c([H])c([H])c([H])c([H])c3C13C1=NC4([H])C([H])([H])C([H])([H])C([H])([H])C4([H])C([H])(C([H])([H])C4([H])C([H])=C([H])C([H])=C([H])C(C([H])([H])[H])(C([H])([H])[H])C(=O)N14)[N+]1(C([H])([H])[H])C([H])([H])C([H])(C([H])([H])C3([H])[H])C([H])([H])C([H])([H])C21[H]

$$$$
33:3:2
     RDKit          3D

 96104  0  0  1  0  0  0  0  0999 V2000
    5.9584   -7.8118    2.9961 C   0  0  0  0  0  0  0  0  0  0  0  0
    5.6344   -6.3455    3.3731 C   0  0  0  0  0  0  0  0  0  0  0  0
    6.6914   -5.9093    4.4174 C   0  0  0  0  0  0  0  0  0  0  0  0
    5.7262   -5.4469    2.1530 C   0  0  0  0  0  0  0  0  0  0  0  0
    4.8321   -5.5360    1.1424 C   0  0  0  0  0  0  0  0  0  0  0  0
    3.9250   -4.4144    1.0654 C   0  0  0  0  0  0  0  0  0  0  0  0
    2.9919   -4.4517    2.0383 C   0  0  0  0  0  0  0  0  0  0  0  0
    3.3261   -3.8998    3.4345 C   0  0  1  0  0  0  0  0  0  0  0  0
    2.2574   -2.8398    3.8637 C   0  0  0  0  0  0  0  0  0  0  0  0
    2.3068   -2.2586    5.3123 C   0  0  1  0  0  0  0  0  0  0  0  0
    3.6989   -1.6871    5.8053 C   0  0  2  0  0  0  0  0  0  0  0  0
    4.3123   -0.4251    5.1989 C   0  0  0  0  0  0  0  0  0  0  0  0
    5.7859   -0.4593    5.6906 C   0  0  0  0  0  0  0  0  0  0  0  0
    6.0209   -1.8532    6.3283 C   0  0  0  0  0  0  0  0  0  0  0  0
    4.8961   -2.6843    5.7267 C   0  0  1  0  0  0  0  0  0  0  0  0
    4.5974   -3.9371    6.4151 N   0  0  0  0  0  0  0  0  0  0  0  0
    3.7922   -4.7869    5.8298 C   0  0  0  0  0  0  0  0  0  0  0  0
    3.7348   -5.0061    4.4212 N   0  0  0  0  0  0  0  0  0  0  0  0
    4.1976   -6.2165    3.9927 C   0  0  0  0  0  0  0  0  0  0  0  0
    3.4590   -7.2000    3.9890 O   0  0  0  0  0  0  0  0  0  0  0  0
    2.5741   -5.3907    6.6946 C   0  0  1  0  0  0  0  0  0  0  0  0
    2.6285   -4.9120    8.2063 C   0  0  0  0  0  0  0  0  0  0  0  0
    2.5580   -3.4316    8.7023 C   0  0  0  0  0  0  0  0  0  0  0  0
    1.2497   -2.6082    8.6331 C   0  0  2  0  0  0  0  0  0  0  0  0
   -0.0514   -3.4113    8.7912 C   0  0  0  0  0  0  0  0  0  0  0  0
   -0.7384   -3.5444    7.4287 C   0  0  0  0  0  0  0  0  0  0  0  0
    0.2886   -3.6175    6.2534 C   0  0  2  0  0  0  0  0  0  0  0  0
    1.0664   -5.0764    6.1328 C   0  0  1  0  0  0  0  0  0  0  0  0
    0.9772   -5.3517    4.7511 O   0  0  0  0  0  0  0  0  0  0  0  0
    0.1028   -6.1842    6.6634 C   0  0  0  0  0  0  0  0  0  0  0  0
    0.4398   -7.6454    6.3134 C   0  0  1  0  0  0  0  0  0  0  0  0
   -0.0145   -8.0979    4.9053 C   0  0  0  0  0  0  0  0  0  0  0  0
   -1.2456   -7.6364    4.3746 C   0  0  0  0  0  0  0  0  0  0  0  0
   -1.6906   -8.0301    3.1050 C   0  0  0  0  0  0  0  0  0  0  0  0
   -0.9285   -8.9238    2.3494 C   0  0  0  0  0  0  0  0  0  0  0  0
    0.2871   -9.4153    2.8559 C   0  0  0  0  0  0  0  0  0  0  0  0
    0.7431   -9.0029    4.1196 C   0  0  0  0  0  0  0  0  0  0  0  0
    1.8825   -7.9493    6.6867 C   0  0  0  0  0  0  0  0  0  0  0  0
    2.2205   -9.3003    6.9202 C   0  0  0  0  0  0  0  0  0  0  0  0
    3.5266   -9.6759    7.2560 C   0  0  0  0  0  0  0  0  0  0  0  0
    4.5098   -8.6892    7.4067 C   0  0  0  0  0  0  0  0  0  0  0  0
    4.1756   -7.3381    7.2197 C   0  0  0  0  0  0  0  0  0  0  0  0
    2.8641   -6.9241    6.8507 C   0  0  0  0  0  0  0  0  0  0  0  0
    0.9950   -2.2237    6.0883 N   0  0  2  0  0  0  0  0  0  0  0  0
    0.1079   -1.2864    5.3193 C   0  0  0  0  0  0  0  0  0  0  0  0
    1.1392   -1.5988    7.4605 C   0  0  0  0  0  0  0  0  0  0  0  0
    5.2555   -8.2250    2.2724 H   0  0  0  0  0  0  0  0  0  0  0  0
    5.9328   -8.4576    3.8755 H   0  0  0  0  0  0  0  0  0  0  0  0
    6.9587   -7.8996    2.5684 H   0  0  0  0  0  0  0  0  0  0  0  0
    6.5997   -4.8601    4.6913 H   0  0  0  0  0  0  0  0  0  0  0  0
    7.7038   -6.0443    4.0335 H   0  0  0  0  0  0  0  0  0  0  0  0
    6.6172   -6.4923    5.3364 H   0  0  0  0  0  0  0  0  0  0  0  0
    6.0486   -4.4557    2.4373 H   0  0  0  0  0  0  0  0  0  0  0  0
    4.3862   -6.4999    0.9522 H   0  0  0  0  0  0  0  0  0  0  0  0
    4.4786   -3.4875    0.9940 H   0  0  0  0  0  0  0  0  0  0  0  0
    2.4514   -5.3867    2.1325 H   0  0  0  0  0  0  0  0  0  0  0  0
    4.2013   -3.3066    3.2022 H   0  0  0  0  0  0  0  0  0  0  0  0
    2.3577   -1.9919    3.1869 H   0  0  0  0  0  0  0  0  0  0  0  0
    1.2647   -3.2170    3.6258 H   0  0  0  0  0  0  0  0  0  0  0  0
    2.3885   -3.0244    5.9881 H   0  0  0  0  0  0  0  0  0  0  0  0
    3.6342   -1.4377    6.8539 H   0  0  0  0  0  0  0  0  0  0  0  0
    4.2774   -0.4583    4.1083 H   0  0  0  0  0  0  0  0  0  0  0  0
    3.8041    0.4832    5.5266 H   0  0  0  0  0  0  0  0  0  0  0  0
    6.4500   -0.2580    4.8476 H   0  0  0  0  0  0  0  0  0  0  0  0
    5.9937    0.3236    6.4187 H   0  0  0  0  0  0  0  0  0  0  0  0
    6.9987   -2.2777    6.1032 H   0  0  0  0  0  0  0  0  0  0  0  0
    5.9263   -1.8001    7.4133 H   0  0  0  0  0  0  0  0  0  0  0  0
    5.2858   -2.8603    4.7353 H   0  0  0  0  0  0  0  0  0  0  0  0
    1.9210   -5.4942    8.7927 H   0  0  0  0  0  0  0  0  0  0  0  0
    3.5876   -5.2340    8.6094 H   0  0  0  0  0  0  0  0  0  0  0  0
    2.7874   -3.4972    9.7684 H   0  0  0  0  0  0  0  0  0  0  0  0
    3.3954   -2.8428    8.3512 H   0  0  0  0  0  0  0  0  0  0  0  0
    1.2914   -1.9804    9.5213 H   0  0  0  0  0  0  0  0  0  0  0  0
    0.1346   -4.3889    9.2383 H   0  0  0  0  0  0  0  0  0  0  0  0
   -0.7262   -2.9147    9.4940 H   0  0  0  0  0  0  0  0  0  0  0  0
   -1.4732   -4.3417    7.4627 H   0  0  0  0  0  0  0  0  0  0  0  0
   -1.3621   -2.6704    7.2608 H   0  0  0  0  0  0  0  0  0  0  0  0
   -0.3943   -3.6415    5.4041 H   0  0  0  0  0  0  0  0  0  0  0  0
    1.3608   -6.2053    4.5900 H   0  0  0  0  0  0  0  0  0  0  0  0
    0.1008   -6.1323    7.7515 H   0  0  0  0  0  0  0  0  0  0  0  0
   -0.9229   -5.9770    6.3839 H   0  0  0  0  0  0  0  0  0  0  0  0
   -0.1606   -8.2624    6.9855 H   0  0  0  0  0  0  0  0  0  0  0  0
   -1.9011   -6.9763    4.9135 H   0  0  0  0  0  0  0  0  0  0  0  0
   -2.6230   -7.6560    2.7169 H   0  0  0  0  0  0  0  0  0  0  0  0
   -1.2890   -9.2256    1.3764 H   0  0  0  0  0  0  0  0  0  0  0  0
    0.8721  -10.1103    2.2704 H   0  0  0  0  0  0  0  0  0  0  0  0
    1.6812   -9.4132    4.4584 H   0  0  0  0  0  0  0  0  0  0  0  0
    1.4771  -10.0769    6.8092 H   0  0  0  0  0  0  0  0  0  0  0  0
    3.7660  -10.7195    7.4025 H   0  0  0  0  0  0  0  0  0  0  0  0
    5.5170   -8.9648    7.6743 H   0  0  0  0  0  0  0  0  0  0  0  0
    4.9612   -6.6116    7.3718 H   0  0  0  0  0  0  0  0  0  0  0  0
   -0.8621   -1.1366    5.7918 H   0  0  0  0  0  0  0  0  0  0  0  0
   -0.0984   -1.6248    4.3056 H   0  0  0  0  0  0  0  0  0  0  0  0
    0.5743   -0.3027    5.2441 H   0  0  0  0  0  0  0  0  0  0  0  0
    0.2335   -1.0359    7.6921 H   0  0  0  0  0  0  0  0  0  0  0  0
    1.8761   -0.8033    7.5198 H   0  0  0  0  0  0  0  0  0  0  0  0
  1  2  1  0
  1 47  1  0
  1 48  1  0
  1 49  1  0
  2 19  1  0
  2  3  1  0
  2  4  1  0
  3 50  1  0
  3 51  1  0
  3 52  1  0
  4  5  2  3
  4 53  1  0
  5  6  1  0
  5 54  1  0
  6  7  2  3
  6 55  1  0
  7  8  1  0
  7 56  1  0
  8 18  1  0
  8  9  1  0
  8 57  1  6
  9 10  1  0
  9 58  1  0
  9 59  1  0
 10 44  1  0
 10 11  1  0
 10 60  1  1
 11 15  1  0
 11 12  1  0
 11 61  1  1
 12 13  1  0
 12 62  1  0
 12 63  1  0
 13 14  1  0
 13 64  1  0
 13 65  1  0
 14 15  1  0
 14 66  1  0
 14 67  1  0
 15 16  1  0
 15 68  1  6
 16 17  2  3
 17 18  1  0
 17 21  1  0
 18 19  1  0
 19 20  2  0
 21 28  1  0
 21 43  1  1
 21 22  1  0
 22 23  1  0
 22 69  1  0
 22 70  1  0
 23 24  1  0
 23 71  1  0
 23 72  1  0
 24 46  1  0
 24 25  1  0
 24 73  1  1
 25 26  1  0
 25 74  1  0
 25 75  1  0
 26 27  1  0
 26 76  1  0
 26 77  1  0
 27 28  1  0
 27 44  1  0
 27 78  1  6
 28 29  1  6
 28 30  1  0
 29 79  1  0
 30 31  1  0
 30 80  1  0
 30 81  1  0
 31 32  1  0
 31 38  1  0
 31 82  1  1
 32 37  1  0
 32 33  2  0
 33 34  1  0
 33 83  1  0
 34 35  2  0
 34 84  1  0
 35 36  1  0
 35 85  1  0
 36 37  2  0
 36 86  1  0
 37 87  1  0
 38 43  2  0
 38 39  1  0
 39 40  2  0
 39 88  1  0
 40 41  1  0
 40 89  1  0
 41 42  2  0
 41 90  1  0
 42 43  1  0
 42 91  1  0
 44 45  1  6
 44 46  1  0
 45 92  1  0
 45 93  1  0
 45 94  1  0
 46 95  1  0
 46 96  1  0
M  CHG  1  44   1
M  END
>  <i_m_ct_stereo_status>  (126) 
1

>  <s_m_source_file>  (126) 
/var/tmp/pbs.5076255.sched01/tmpqm933_o1/456x1pmp19.sdf

>  <i_m_source_file_index>  (126) 
7

>  <i_lp_mmshare_version>  (126) 
48012

>  <i_f3d_flags>  (126) 
2

>  <s_epik_input>  (126) 
Tz1DMUMoW0NIM10pKFtDSDNdKS9bQ0hdPVtDSF1cW0NIXT1bQ0hdL1tDQEhdKE4xL0MyW0NAQF0zNDUpW0NIMl1bQ0hdKFtDQEhdNltDQEhdKC9OPTIpW0NIMl1bQ0gyXVtDSDJdNilbTkBAK103KFtDSDNdKVtDQEhdKFtDSDJdW0NIMl1bQ0BIXShbQ0gyXTcpW0NIMl1bQ0gyXTMpW0NAXTQoW09IXSlbQ0gyXVtDQEBIXShjOFtjSF1bY0hdW2NIXVtjSF1bY0hdOCljOWM1W2NIXVtjSF1bY0hdW2NIXTk=

>  <s_epik_cmdline>  (126) 
J2VwaWtfcHl0aG9uJywgJy1waHQnLCAnMi4wJywgJy1waCcsICc3LjAnLCAnLXRuJywgJzgnLCAnLW1hJywgJzIwMCcsICctaW1hZScsICc8aW5maWxlLm1hZT4nLCAnLW9tYWUnLCAnPG91dGZpbGUubWFlPic=

>  <r_lp_tautomer_probability>  (126) 
1

>  <r_epik_Ionization_Penalty>  (126) 
0.0248322

>  <r_epik_Ionization_Penalty_Charging>  (126) 
0

>  <r_epik_Ionization_Penalty_Neutral>  (126) 
0.0248322

>  <r_epik_State_Penalty>  (126) 
0.0199713

>  <r_epik_Charging_Adjusted_Penalty>  (126) 
0.0199713

>  <i_epik_Tot_Q>  (126) 
1

>  <i_epik_Tot_abs_Q>  (126) 
1

>  <s_epik_Chemistry_Notes>  (126) 
This compound has an imine and may undergo hydrolysis.

>  <s_lp_Force_Field>  (126) 
OPLS3e

>  <r_lp_Energy>  (126) 
316.088

>  <b_lp_Chiralities_Consistent>  (126) 
0

>  <s_lp_Variant>  (126) 
33:0-4

>  <s_i_glide_gridfile>  (126) 
pfpi4k_grid

>  <i_i_glide_lignum>  (126) 
7

>  <i_i_glide_rotatable_bonds>  (126) 
2

>  <r_i_docking_score>  (126) 
-2.01974

>  <r_i_glide_ligand_efficiency>  (126) 
-0.0439073

>  <r_i_glide_ligand_efficiency_sa>  (126) 
-0.157322

>  <r_i_glide_ligand_efficiency_ln>  (126) 
-0.418282

>  <r_i_glide_gscore>  (126) 
-2.01974

>  <r_i_glide_lipo>  (126) 
-0.291415

>  <r_i_glide_hbond>  (126) 
0

>  <r_i_glide_metal>  (126) 
-0

>  <r_i_glide_rewards>  (126) 
-0.5

>  <r_i_glide_evdw>  (126) 
-26.0208

>  <r_i_glide_ecoul>  (126) 
0.133104

>  <r_i_glide_erotb>  (126) 
0.0554054

>  <r_i_glide_esite>  (126) 
-0.0026516

>  <r_i_glide_emodel>  (126) 
-34.5094

>  <r_i_glide_energy>  (126) 
-25.8877

>  <r_i_glide_einternal>  (126) 
1.69632

>  <r_i_glide_intrahb_reward>  (126) 
-0.5

>  <i_i_glide_confnum>  (126) 
1

>  <i_i_glide_posenum>  (126) 
4

>  <r_i_glide_eff_state_penalty>  (126) 
0

>  <ligand_id>  (126) 
33

>  <original_smiles>  (126) 
CC1(C)C=CC=CC2CC3C4CCCC4N=C(N2C1=O)C12CCC4CCC(C1(O)CC(c1ccccc1)c1ccccc12)[N+]3(C)C4

>  <smiles>  (126) 
[H]OC12C([H])([H])C([H])(c3c([H])c([H])c([H])c([H])c3[H])c3c([H])c([H])c([H])c([H])c3C13C1=NC4([H])C([H])([H])C([H])([H])C([H])([H])C4([H])C([H])(C([H])([H])C4([H])C([H])=C([H])C([H])=C([H])C(C([H])([H])[H])(C([H])([H])[H])C(=O)N14)[N+]1(C([H])([H])[H])C([H])([H])C([H])(C([H])([H])C3([H])[H])C([H])([H])C([H])([H])C21[H]

$$$$
33:4:0
     RDKit          3D

 96104  0  0  1  0  0  0  0  0999 V2000
    6.4301   -2.9142    6.5424 C   0  0  0  0  0  0  0  0  0  0  0  0
    6.1499   -3.7850    7.7893 C   0  0  0  0  0  0  0  0  0  0  0  0
    7.1904   -3.3446    8.8463 C   0  0  0  0  0  0  0  0  0  0  0  0
    4.7372   -3.4650    8.2632 C   0  0  0  0  0  0  0  0  0  0  0  0
    4.1221   -3.8421    9.4012 C   0  0  0  0  0  0  0  0  0  0  0  0
    4.6384   -4.6839   10.4594 C   0  0  0  0  0  0  0  0  0  0  0  0
    5.2782   -5.8692   10.3903 C   0  0  0  0  0  0  0  0  0  0  0  0
    5.7198   -6.7634    9.2169 C   0  0  1  0  0  0  0  0  0  0  0  0
    5.4905   -8.2969    9.5127 C   0  0  0  0  0  0  0  0  0  0  0  0
    4.2936   -8.9369    8.7407 C   0  0  2  0  0  0  0  0  0  0  0  0
    2.9561   -8.1614    9.1325 C   0  0  2  0  0  0  0  0  0  0  0  0
    1.7252   -8.7523    9.8246 C   0  0  0  0  0  0  0  0  0  0  0  0
    0.8635   -7.4983   10.1445 C   0  0  0  0  0  0  0  0  0  0  0  0
    1.4468   -6.3265    9.3236 C   0  0  0  0  0  0  0  0  0  0  0  0
    2.3213   -7.0271    8.2773 C   0  0  1  0  0  0  0  0  0  0  0  0
    3.2283   -6.1107    7.5833 N   0  0  0  0  0  0  0  0  0  0  0  0
    4.3419   -6.5229    7.0524 C   0  0  0  0  0  0  0  0  0  0  0  0
    5.5253   -6.2368    7.8111 N   0  0  0  0  0  0  0  0  0  0  0  0
    6.4114   -5.2795    7.4499 C   0  0  0  0  0  0  0  0  0  0  0  0
    7.5028   -5.5874    6.9648 O   0  0  0  0  0  0  0  0  0  0  0  0
    4.4946   -7.5323    5.7450 C   0  0  1  0  0  0  0  0  0  0  0  0
    5.9802   -8.0233    5.4699 C   0  0  0  0  0  0  0  0  0  0  0  0
    6.8510   -8.8844    6.4443 C   0  0  0  0  0  0  0  0  0  0  0  0
    6.5706  -10.3985    6.6853 C   0  0  2  0  0  0  0  0  0  0  0  0
    5.9901  -11.1598    5.4814 C   0  0  0  0  0  0  0  0  0  0  0  0
    4.5000  -11.4225    5.7224 C   0  0  0  0  0  0  0  0  0  0  0  0
    3.8288  -10.2762    6.5565 C   0  0  2  0  0  0  0  0  0  0  0  0
    3.5704   -8.9049    5.6898 C   0  0  1  0  0  0  0  0  0  0  0  0
    2.2499   -8.6594    6.0396 O   0  0  0  0  0  0  0  0  0  0  0  0
    3.2888   -9.2996    4.1989 C   0  0  0  0  0  0  0  0  0  0  0  0
    2.6289   -8.2389    3.3120 C   0  0  1  0  0  0  0  0  0  0  0  0
    1.0981   -8.1725    3.4132 C   0  0  0  0  0  0  0  0  0  0  0  0
    0.3213   -9.1516    2.7601 C   0  0  0  0  0  0  0  0  0  0  0  0
   -1.0833   -9.1236    2.8427 C   0  0  0  0  0  0  0  0  0  0  0  0
   -1.7253   -8.1239    3.5922 C   0  0  0  0  0  0  0  0  0  0  0  0
   -0.9634   -7.1443    4.2517 C   0  0  0  0  0  0  0  0  0  0  0  0
    0.4410   -7.1648    4.1575 C   0  0  0  0  0  0  0  0  0  0  0  0
    3.3273   -6.9088    3.4261 C   0  0  0  0  0  0  0  0  0  0  0  0
    3.1133   -6.0031    2.3643 C   0  0  0  0  0  0  0  0  0  0  0  0
    3.7764   -4.7721    2.3144 C   0  0  0  0  0  0  0  0  0  0  0  0
    4.6997   -4.4629    3.3192 C   0  0  0  0  0  0  0  0  0  0  0  0
    4.9135   -5.3685    4.3702 C   0  0  0  0  0  0  0  0  0  0  0  0
    4.2153   -6.5966    4.5027 C   0  0  0  0  0  0  0  0  0  0  0  0
    4.3636  -10.2770    8.0200 N   0  0  2  0  0  0  0  0  0  0  0  0
    3.6157  -11.2653    8.8529 C   0  0  0  0  0  0  0  0  0  0  0  0
    5.7866  -10.7898    7.9705 C   0  0  0  0  0  0  0  0  0  0  0  0
    5.6708   -3.0298    5.7703 H   0  0  0  0  0  0  0  0  0  0  0  0
    7.3982   -3.1445    6.0968 H   0  0  0  0  0  0  0  0  0  0  0  0
    6.4446   -1.8543    6.8008 H   0  0  0  0  0  0  0  0  0  0  0  0
    7.1643   -3.9523    9.7490 H   0  0  0  0  0  0  0  0  0  0  0  0
    7.0351   -2.3073    9.1445 H   0  0  0  0  0  0  0  0  0  0  0  0
    8.2059   -3.4132    8.4516 H   0  0  0  0  0  0  0  0  0  0  0  0
    4.1513   -2.8636    7.5825 H   0  0  0  0  0  0  0  0  0  0  0  0
    3.1028   -3.5129    9.5171 H   0  0  0  0  0  0  0  0  0  0  0  0
    4.4913   -4.2999   11.4580 H   0  0  0  0  0  0  0  0  0  0  0  0
    5.5698   -6.2778   11.3474 H   0  0  0  0  0  0  0  0  0  0  0  0
    6.7992   -6.6948    9.3784 H   0  0  0  0  0  0  0  0  0  0  0  0
    6.4542   -8.7567    9.3450 H   0  0  0  0  0  0  0  0  0  0  0  0
    5.3449   -8.4584   10.5799 H   0  0  0  0  0  0  0  0  0  0  0  0
    4.7078   -8.6152    7.8519 H   0  0  0  0  0  0  0  0  0  0  0  0
    3.3356   -7.6055    9.9851 H   0  0  0  0  0  0  0  0  0  0  0  0
    1.1699   -9.3899    9.1369 H   0  0  0  0  0  0  0  0  0  0  0  0
    1.9645   -9.3228   10.7225 H   0  0  0  0  0  0  0  0  0  0  0  0
   -0.1778   -7.6738    9.8753 H   0  0  0  0  0  0  0  0  0  0  0  0
    0.8899   -7.2554   11.2082 H   0  0  0  0  0  0  0  0  0  0  0  0
    0.6784   -5.6946    8.8753 H   0  0  0  0  0  0  0  0  0  0  0  0
    2.0480   -5.6874    9.9690 H   0  0  0  0  0  0  0  0  0  0  0  0
    1.5133   -7.3548    7.6380 H   0  0  0  0  0  0  0  0  0  0  0  0
    6.0194   -8.5022    4.4960 H   0  0  0  0  0  0  0  0  0  0  0  0
    6.5979   -7.1507    5.2885 H   0  0  0  0  0  0  0  0  0  0  0  0
    7.8521   -8.8611    6.0055 H   0  0  0  0  0  0  0  0  0  0  0  0
    7.0281   -8.3642    7.3754 H   0  0  0  0  0  0  0  0  0  0  0  0
    7.5575  -10.8321    6.8342 H   0  0  0  0  0  0  0  0  0  0  0  0
    6.1529  -10.6269    4.5429 H   0  0  0  0  0  0  0  0  0  0  0  0
    6.4980  -12.1220    5.3564 H   0  0  0  0  0  0  0  0  0  0  0  0
    4.0061  -11.6620    4.7852 H   0  0  0  0  0  0  0  0  0  0  0  0
    4.4051  -12.3616    6.2742 H   0  0  0  0  0  0  0  0  0  0  0  0
    2.8377  -10.7166    6.6665 H   0  0  0  0  0  0  0  0  0  0  0  0
    1.7294   -9.4406    5.9010 H   0  0  0  0  0  0  0  0  0  0  0  0
    4.2436   -9.5366    3.7267 H   0  0  0  0  0  0  0  0  0  0  0  0
    2.6867  -10.2052    4.1035 H   0  0  0  0  0  0  0  0  0  0  0  0
    2.8204   -8.5636    2.2865 H   0  0  0  0  0  0  0  0  0  0  0  0
    0.7990   -9.9338    2.1881 H   0  0  0  0  0  0  0  0  0  0  0  0
   -1.6641   -9.8853    2.3454 H   0  0  0  0  0  0  0  0  0  0  0  0
   -2.8013   -8.1257    3.6743 H   0  0  0  0  0  0  0  0  0  0  0  0
   -1.4550   -6.3908    4.8477 H   0  0  0  0  0  0  0  0  0  0  0  0
    1.0168   -6.4186    4.6832 H   0  0  0  0  0  0  0  0  0  0  0  0
    2.4359   -6.2579    1.5633 H   0  0  0  0  0  0  0  0  0  0  0  0
    3.6149   -4.0844    1.4964 H   0  0  0  0  0  0  0  0  0  0  0  0
    5.2503   -3.5367    3.2844 H   0  0  0  0  0  0  0  0  0  0  0  0
    5.6698   -5.0945    5.0723 H   0  0  0  0  0  0  0  0  0  0  0  0
    3.6780  -12.2795    8.4519 H   0  0  0  0  0  0  0  0  0  0  0  0
    2.5610  -11.0343    8.8957 H   0  0  0  0  0  0  0  0  0  0  0  0
    3.9947  -11.2917    9.8752 H   0  0  0  0  0  0  0  0  0  0  0  0
    5.7708  -11.8811    7.9536 H   0  0  0  0  0  0  0  0  0  0  0  0
    6.3552  -10.6532    8.8828 H   0  0  0  0  0  0  0  0  0  0  0  0
  1  2  1  0
  1 47  1  0
  1 48  1  0
  1 49  1  0
  2 19  1  0
  2  3  1  0
  2  4  1  0
  3 50  1  0
  3 51  1  0
  3 52  1  0
  4  5  2  3
  4 53  1  0
  5  6  1  0
  5 54  1  0
  6  7  2  3
  6 55  1  0
  7  8  1  0
  7 56  1  0
  8 18  1  0
  8  9  1  0
  8 57  1  1
  9 10  1  0
  9 58  1  0
  9 59  1  0
 10 44  1  0
 10 11  1  0
 10 60  1  6
 11 15  1  0
 11 12  1  0
 11 61  1  1
 12 13  1  0
 12 62  1  0
 12 63  1  0
 13 14  1  0
 13 64  1  0
 13 65  1  0
 14 15  1  0
 14 66  1  0
 14 67  1  0
 15 16  1  0
 15 68  1  6
 16 17  2  3
 17 18  1  0
 17 21  1  0
 18 19  1  0
 19 20  2  0
 21 28  1  0
 21 43  1  6
 21 22  1  0
 22 23  1  0
 22 69  1  0
 22 70  1  0
 23 24  1  0
 23 71  1  0
 23 72  1  0
 24 46  1  0
 24 25  1  0
 24 73  1  1
 25 26  1  0
 25 74  1  0
 25 75  1  0
 26 27  1  0
 26 76  1  0
 26 77  1  0
 27 28  1  0
 27 44  1  0
 27 78  1  1
 28 29  1  1
 28 30  1  0
 29 79  1  0
 30 31  1  0
 30 80  1  0
 30 81  1  0
 31 32  1  0
 31 38  1  0
 31 82  1  6
 32 37  1  0
 32 33  2  0
 33 34  1  0
 33 83  1  0
 34 35  2  0
 34 84  1  0
 35 36  1  0
 35 85  1  0
 36 37  2  0
 36 86  1  0
 37 87  1  0
 38 43  2  0
 38 39  1  0
 39 40  2  0
 39 88  1  0
 40 41  1  0
 40 89  1  0
 41 42  2  0
 41 90  1  0
 42 43  1  0
 42 91  1  0
 44 45  1  1
 44 46  1  0
 45 92  1  0
 45 93  1  0
 45 94  1  0
 46 95  1  0
 46 96  1  0
M  CHG  1  44   1
M  END
>  <i_m_ct_stereo_status>  (127) 
1

>  <s_m_source_file>  (127) 
/var/tmp/pbs.5076255.sched01/tmpqm933_o1/456x1pmp19.sdf

>  <i_m_source_file_index>  (127) 
8

>  <i_lp_mmshare_version>  (127) 
48012

>  <i_f3d_flags>  (127) 
0

>  <s_epik_input>  (127) 
Tz1DMUMoW0NIM10pKFtDSDNdKS9bQ0hdPVtDSF1cW0NIXT1bQ0hdL1tDQEhdKE4xL0MyW0NAQF0zNDUpW0NIMl1bQ0hdKFtDQEhdNltDQEhdKC9OPTIpW0NIMl1bQ0gyXVtDSDJdNilbTkBAK103KFtDSDNdKVtDQEhdKFtDSDJdW0NIMl1bQ0BIXShbQ0gyXTcpW0NIMl1bQ0gyXTMpW0NAXTQoW09IXSlbQ0gyXVtDQEBIXShjOFtjSF1bY0hdW2NIXVtjSF1bY0hdOCljOWM1W2NIXVtjSF1bY0hdW2NIXTk=

>  <s_epik_cmdline>  (127) 
J2VwaWtfcHl0aG9uJywgJy1waHQnLCAnMi4wJywgJy1waCcsICc3LjAnLCAnLXRuJywgJzgnLCAnLW1hJywgJzIwMCcsICctaW1hZScsICc8aW5maWxlLm1hZT4nLCAnLW9tYWUnLCAnPG91dGZpbGUubWFlPic=

>  <r_lp_tautomer_probability>  (127) 
1

>  <r_epik_Ionization_Penalty>  (127) 
0.0248322

>  <r_epik_Ionization_Penalty_Charging>  (127) 
0

>  <r_epik_Ionization_Penalty_Neutral>  (127) 
0.0248322

>  <r_epik_State_Penalty>  (127) 
0.0199713

>  <r_epik_Charging_Adjusted_Penalty>  (127) 
0.0199713

>  <i_epik_Tot_Q>  (127) 
1

>  <i_epik_Tot_abs_Q>  (127) 
1

>  <s_epik_Chemistry_Notes>  (127) 
This compound has an imine and may undergo hydrolysis.

>  <s_lp_Force_Field>  (127) 
OPLS3e

>  <r_lp_Energy>  (127) 
284.753

>  <b_lp_Chiralities_Consistent>  (127) 
1

>  <s_lp_Variant>  (127) 
33:0-5

>  <s_i_glide_gridfile>  (127) 
pfpi4k_grid

>  <i_i_glide_lignum>  (127) 
8

>  <i_i_glide_rotatable_bonds>  (127) 
2

>  <r_i_docking_score>  (127) 
-1.50299

>  <r_i_glide_ligand_efficiency>  (127) 
-0.0326736

>  <r_i_glide_ligand_efficiency_sa>  (127) 
-0.117071

>  <r_i_glide_ligand_efficiency_ln>  (127) 
-0.311265

>  <r_i_glide_gscore>  (127) 
-1.50299

>  <r_i_glide_lipo>  (127) 
-0.0343465

>  <r_i_glide_hbond>  (127) 
0

>  <r_i_glide_metal>  (127) 
-0

>  <r_i_glide_rewards>  (127) 
0

>  <r_i_glide_evdw>  (127) 
-21.0076

>  <r_i_glide_ecoul>  (127) 
-2.95797

>  <r_i_glide_erotb>  (127) 
0.0554054

>  <r_i_glide_esite>  (127) 
-0.029969

>  <r_i_glide_emodel>  (127) 
-26.6871

>  <r_i_glide_energy>  (127) 
-23.9656

>  <r_i_glide_einternal>  (127) 
0.186009

>  <r_i_glide_intrahb_reward>  (127) 
-0

>  <i_i_glide_confnum>  (127) 
1

>  <i_i_glide_posenum>  (127) 
17

>  <r_i_glide_eff_state_penalty>  (127) 
0

>  <ligand_id>  (127) 
33

>  <original_smiles>  (127) 
CC1(C)C=CC=CC2CC3C4CCCC4N=C(N2C1=O)C12CCC4CCC(C1(O)CC(c1ccccc1)c1ccccc12)[N+]3(C)C4

>  <smiles>  (127) 
[H]OC12C([H])([H])C([H])(c3c([H])c([H])c([H])c([H])c3[H])c3c([H])c([H])c([H])c([H])c3C13C1=NC4([H])C([H])([H])C([H])([H])C([H])([H])C4([H])C([H])(C([H])([H])C4([H])C([H])=C([H])C([H])=C([H])C(C([H])([H])[H])(C([H])([H])[H])C(=O)N14)[N+]1(C([H])([H])[H])C([H])([H])C([H])(C([H])([H])C3([H])[H])C([H])([H])C([H])([H])C21[H]

$$$$
33:4:1
     RDKit          3D

 96104  0  0  1  0  0  0  0  0999 V2000
    2.8465    0.2927    2.8313 C   0  0  0  0  0  0  0  0  0  0  0  0
    2.5879    0.0667    4.3406 C   0  0  0  0  0  0  0  0  0  0  0  0
    2.9712    1.3967    5.0320 C   0  0  0  0  0  0  0  0  0  0  0  0
    1.0989   -0.2164    4.5137 C   0  0  0  0  0  0  0  0  0  0  0  0
    0.3794   -0.3011    5.6503 C   0  0  0  0  0  0  0  0  0  0  0  0
    0.8472   -0.1783    7.0156 C   0  0  0  0  0  0  0  0  0  0  0  0
    1.9102   -0.7460    7.6224 C   0  0  0  0  0  0  0  0  0  0  0  0
    3.0199   -1.6966    7.1347 C   0  0  1  0  0  0  0  0  0  0  0  0
    3.3729   -2.8035    8.2030 C   0  0  0  0  0  0  0  0  0  0  0  0
    2.8489   -4.2336    7.8542 C   0  0  2  0  0  0  0  0  0  0  0  0
    1.2622   -4.1805    7.7148 C   0  0  2  0  0  0  0  0  0  0  0  0
    0.2424   -4.9378    8.5706 C   0  0  0  0  0  0  0  0  0  0  0  0
   -1.1141   -4.3206    8.1333 C   0  0  0  0  0  0  0  0  0  0  0  0
   -0.8474   -3.5238    6.8348 C   0  0  0  0  0  0  0  0  0  0  0  0
    0.5093   -4.0599    6.3598 C   0  0  1  0  0  0  0  0  0  0  0  0
    1.1131   -3.2324    5.3147 N   0  0  0  0  0  0  0  0  0  0  0  0
    2.4001   -3.1958    5.1317 C   0  0  0  0  0  0  0  0  0  0  0  0
    3.0631   -2.0382    5.6612 N   0  0  0  0  0  0  0  0  0  0  0  0
    3.5368   -1.0446    4.8740 C   0  0  0  0  0  0  0  0  0  0  0  0
    4.7498   -0.9253    4.6803 O   0  0  0  0  0  0  0  0  0  0  0  0
    3.3537   -4.4377    4.5845 C   0  0  1  0  0  0  0  0  0  0  0  0
    4.9160   -4.1559    4.6766 C   0  0  0  0  0  0  0  0  0  0  0  0
    5.7187   -3.9022    5.9973 C   0  0  0  0  0  0  0  0  0  0  0  0
    6.0367   -5.0476    7.0034 C   0  0  2  0  0  0  0  0  0  0  0  0
    6.2259   -6.4394    6.3773 C   0  0  0  0  0  0  0  0  0  0  0  0
    4.9868   -7.2912    6.6642 C   0  0  0  0  0  0  0  0  0  0  0  0
    3.6789   -6.4272    6.7193 C   0  0  2  0  0  0  0  0  0  0  0  0
    3.1497   -5.9435    5.2420 C   0  0  1  0  0  0  0  0  0  0  0  0
    1.8093   -6.2916    5.3526 O   0  0  0  0  0  0  0  0  0  0  0  0
    3.5318   -7.0423    4.1911 C   0  0  0  0  0  0  0  0  0  0  0  0
    2.7954   -7.0052    2.8477 C   0  0  1  0  0  0  0  0  0  0  0  0
    1.4275   -7.7034    2.8453 C   0  0  0  0  0  0  0  0  0  0  0  0
    1.3733   -9.1136    2.8593 C   0  0  0  0  0  0  0  0  0  0  0  0
    0.1353   -9.7824    2.8834 C   0  0  0  0  0  0  0  0  0  0  0  0
   -1.0631   -9.0465    2.8786 C   0  0  0  0  0  0  0  0  0  0  0  0
   -1.0237   -7.6413    2.8606 C   0  0  0  0  0  0  0  0  0  0  0  0
    0.2165   -6.9730    2.8455 C   0  0  0  0  0  0  0  0  0  0  0  0
    2.8051   -5.6188    2.2539 C   0  0  0  0  0  0  0  0  0  0  0  0
    2.5710   -5.5388    0.8643 C   0  0  0  0  0  0  0  0  0  0  0  0
    2.6480   -4.3208    0.1799 C   0  0  0  0  0  0  0  0  0  0  0  0
    3.0009   -3.1704    0.8928 C   0  0  0  0  0  0  0  0  0  0  0  0
    3.2347   -3.2532    2.2752 C   0  0  0  0  0  0  0  0  0  0  0  0
    3.1061   -4.4527    3.0235 C   0  0  0  0  0  0  0  0  0  0  0  0
    3.6865   -5.5013    7.9733 N   0  0  2  0  0  0  0  0  0  0  0  0
    3.1976   -6.2511    9.1725 C   0  0  0  0  0  0  0  0  0  0  0  0
    5.1346   -5.1642    8.2647 C   0  0  0  0  0  0  0  0  0  0  0  0
    2.4783   -0.5266    2.2153 H   0  0  0  0  0  0  0  0  0  0  0  0
    3.9064    0.4293    2.6099 H   0  0  0  0  0  0  0  0  0  0  0  0
    2.3364    1.1900    2.4773 H   0  0  0  0  0  0  0  0  0  0  0  0
    2.9258    1.3426    6.1182 H   0  0  0  0  0  0  0  0  0  0  0  0
    2.3154    2.2084    4.7156 H   0  0  0  0  0  0  0  0  0  0  0  0
    3.9890    1.6945    4.7736 H   0  0  0  0  0  0  0  0  0  0  0  0
    0.5560   -0.3795    3.5931 H   0  0  0  0  0  0  0  0  0  0  0  0
   -0.6654   -0.5321    5.5260 H   0  0  0  0  0  0  0  0  0  0  0  0
    0.2613    0.4788    7.6415 H   0  0  0  0  0  0  0  0  0  0  0  0
    2.0413   -0.4635    8.6577 H   0  0  0  0  0  0  0  0  0  0  0  0
    3.8656   -1.0168    7.2734 H   0  0  0  0  0  0  0  0  0  0  0  0
    4.4411   -2.7170    8.3465 H   0  0  0  0  0  0  0  0  0  0  0  0
    2.9912   -2.5186    9.1823 H   0  0  0  0  0  0  0  0  0  0  0  0
    3.3417   -4.1805    6.9489 H   0  0  0  0  0  0  0  0  0  0  0  0
    1.0979   -3.1982    8.1475 H   0  0  0  0  0  0  0  0  0  0  0  0
    0.2427   -5.9967    8.3147 H   0  0  0  0  0  0  0  0  0  0  0  0
    0.4128   -4.8310    9.6422 H   0  0  0  0  0  0  0  0  0  0  0  0
   -1.8550   -5.0996    7.9552 H   0  0  0  0  0  0  0  0  0  0  0  0
   -1.5149   -3.6685    8.9075 H   0  0  0  0  0  0  0  0  0  0  0  0
   -1.6307   -3.6437    6.0872 H   0  0  0  0  0  0  0  0  0  0  0  0
   -0.7859   -2.4580    7.0508 H   0  0  0  0  0  0  0  0  0  0  0  0
    0.1462   -5.0004    5.9697 H   0  0  0  0  0  0  0  0  0  0  0  0
    5.4472   -4.9203    4.1168 H   0  0  0  0  0  0  0  0  0  0  0  0
    5.1384   -3.2811    4.0753 H   0  0  0  0  0  0  0  0  0  0  0  0
    6.7029   -3.5623    5.6698 H   0  0  0  0  0  0  0  0  0  0  0  0
    5.3670   -3.0150    6.5041 H   0  0  0  0  0  0  0  0  0  0  0  0
    7.0176   -4.7909    7.3977 H   0  0  0  0  0  0  0  0  0  0  0  0
    6.4322   -6.3845    5.3073 H   0  0  0  0  0  0  0  0  0  0  0  0
    7.0994   -6.9380    6.8106 H   0  0  0  0  0  0  0  0  0  0  0  0
    4.9510   -8.1396    5.9883 H   0  0  0  0  0  0  0  0  0  0  0  0
    5.1317   -7.7778    7.6313 H   0  0  0  0  0  0  0  0  0  0  0  0
    2.9796   -7.2113    7.0114 H   0  0  0  0  0  0  0  0  0  0  0  0
    1.7291   -7.2282    5.4759 H   0  0  0  0  0  0  0  0  0  0  0  0
    4.5920   -6.9324    3.9578 H   0  0  0  0  0  0  0  0  0  0  0  0
    3.4254   -8.0578    4.5773 H   0  0  0  0  0  0  0  0  0  0  0  0
    3.4049   -7.6035    2.1659 H   0  0  0  0  0  0  0  0  0  0  0  0
    2.2840   -9.6941    2.8621 H   0  0  0  0  0  0  0  0  0  0  0  0
    0.1083  -10.8614    2.8979 H   0  0  0  0  0  0  0  0  0  0  0  0
   -2.0110   -9.5657    2.9009 H   0  0  0  0  0  0  0  0  0  0  0  0
   -1.9482   -7.0845    2.8730 H   0  0  0  0  0  0  0  0  0  0  0  0
    0.2420   -5.8949    2.8575 H   0  0  0  0  0  0  0  0  0  0  0  0
    2.3391   -6.4301    0.3042 H   0  0  0  0  0  0  0  0  0  0  0  0
    2.4730   -4.2677   -0.8860 H   0  0  0  0  0  0  0  0  0  0  0  0
    3.0875   -2.2235    0.3831 H   0  0  0  0  0  0  0  0  0  0  0  0
    3.5485   -2.3483    2.7462 H   0  0  0  0  0  0  0  0  0  0  0  0
    3.8138   -7.1256    9.3919 H   0  0  0  0  0  0  0  0  0  0  0  0
    2.1870   -6.6280    9.0479 H   0  0  0  0  0  0  0  0  0  0  0  0
    3.2166   -5.6156   10.0594 H   0  0  0  0  0  0  0  0  0  0  0  0
    5.5832   -5.9758    8.8405 H   0  0  0  0  0  0  0  0  0  0  0  0
    5.2867   -4.3626    8.9785 H   0  0  0  0  0  0  0  0  0  0  0  0
  1  2  1  0
  1 47  1  0
  1 48  1  0
  1 49  1  0
  2 19  1  0
  2  3  1  0
  2  4  1  0
  3 50  1  0
  3 51  1  0
  3 52  1  0
  4  5  2  3
  4 53  1  0
  5  6  1  0
  5 54  1  0
  6  7  2  3
  6 55  1  0
  7  8  1  0
  7 56  1  0
  8 18  1  0
  8  9  1  0
  8 57  1  6
  9 10  1  0
  9 58  1  0
  9 59  1  0
 10 44  1  0
 10 11  1  0
 10 60  1  6
 11 15  1  0
 11 12  1  0
 11 61  1  1
 12 13  1  0
 12 62  1  0
 12 63  1  0
 13 14  1  0
 13 64  1  0
 13 65  1  0
 14 15  1  0
 14 66  1  0
 14 67  1  0
 15 16  1  0
 15 68  1  6
 16 17  2  3
 17 18  1  0
 17 21  1  0
 18 19  1  0
 19 20  2  0
 21 28  1  0
 21 43  1  6
 21 22  1  0
 22 23  1  0
 22 69  1  0
 22 70  1  0
 23 24  1  0
 23 71  1  0
 23 72  1  0
 24 46  1  0
 24 25  1  0
 24 73  1  1
 25 26  1  0
 25 74  1  0
 25 75  1  0
 26 27  1  0
 26 76  1  0
 26 77  1  0
 27 28  1  0
 27 44  1  0
 27 78  1  1
 28 29  1  1
 28 30  1  0
 29 79  1  0
 30 31  1  0
 30 80  1  0
 30 81  1  0
 31 32  1  0
 31 38  1  0
 31 82  1  6
 32 37  1  0
 32 33  2  0
 33 34  1  0
 33 83  1  0
 34 35  2  0
 34 84  1  0
 35 36  1  0
 35 85  1  0
 36 37  2  0
 36 86  1  0
 37 87  1  0
 38 43  2  0
 38 39  1  0
 39 40  2  0
 39 88  1  0
 40 41  1  0
 40 89  1  0
 41 42  2  0
 41 90  1  0
 42 43  1  0
 42 91  1  0
 44 45  1  1
 44 46  1  0
 45 92  1  0
 45 93  1  0
 45 94  1  0
 46 95  1  0
 46 96  1  0
M  CHG  1  44   1
M  END
>  <i_m_ct_stereo_status>  (128) 
1

>  <s_m_source_file>  (128) 
/var/tmp/pbs.5076255.sched01/tmpqm933_o1/456x1pmp19.sdf

>  <i_m_source_file_index>  (128) 
8

>  <i_lp_mmshare_version>  (128) 
48012

>  <i_f3d_flags>  (128) 
0

>  <s_epik_input>  (128) 
Tz1DMUMoW0NIM10pKFtDSDNdKS9bQ0hdPVtDSF1cW0NIXT1bQ0hdL1tDQEhdKE4xL0MyW0NAQF0zNDUpW0NIMl1bQ0hdKFtDQEhdNltDQEhdKC9OPTIpW0NIMl1bQ0gyXVtDSDJdNilbTkBAK103KFtDSDNdKVtDQEhdKFtDSDJdW0NIMl1bQ0BIXShbQ0gyXTcpW0NIMl1bQ0gyXTMpW0NAXTQoW09IXSlbQ0gyXVtDQEBIXShjOFtjSF1bY0hdW2NIXVtjSF1bY0hdOCljOWM1W2NIXVtjSF1bY0hdW2NIXTk=

>  <s_epik_cmdline>  (128) 
J2VwaWtfcHl0aG9uJywgJy1waHQnLCAnMi4wJywgJy1waCcsICc3LjAnLCAnLXRuJywgJzgnLCAnLW1hJywgJzIwMCcsICctaW1hZScsICc8aW5maWxlLm1hZT4nLCAnLW9tYWUnLCAnPG91dGZpbGUubWFlPic=

>  <r_lp_tautomer_probability>  (128) 
1

>  <r_epik_Ionization_Penalty>  (128) 
0.0248322

>  <r_epik_Ionization_Penalty_Charging>  (128) 
0

>  <r_epik_Ionization_Penalty_Neutral>  (128) 
0.0248322

>  <r_epik_State_Penalty>  (128) 
0.0199713

>  <r_epik_Charging_Adjusted_Penalty>  (128) 
0.0199713

>  <i_epik_Tot_Q>  (128) 
1

>  <i_epik_Tot_abs_Q>  (128) 
1

>  <s_epik_Chemistry_Notes>  (128) 
This compound has an imine and may undergo hydrolysis.

>  <s_lp_Force_Field>  (128) 
OPLS3e

>  <r_lp_Energy>  (128) 
284.753

>  <b_lp_Chiralities_Consistent>  (128) 
1

>  <s_lp_Variant>  (128) 
33:0-5

>  <s_i_glide_gridfile>  (128) 
pfpi4k_grid

>  <i_i_glide_lignum>  (128) 
8

>  <i_i_glide_rotatable_bonds>  (128) 
2

>  <r_i_docking_score>  (128) 
-1.35726

>  <r_i_glide_ligand_efficiency>  (128) 
-0.0295057

>  <r_i_glide_ligand_efficiency_sa>  (128) 
-0.10572

>  <r_i_glide_ligand_efficiency_ln>  (128) 
-0.281086

>  <r_i_glide_gscore>  (128) 
-1.35726

>  <r_i_glide_lipo>  (128) 
-0.0278795

>  <r_i_glide_hbond>  (128) 
0

>  <r_i_glide_metal>  (128) 
-0

>  <r_i_glide_rewards>  (128) 
0

>  <r_i_glide_evdw>  (128) 
-28.2256

>  <r_i_glide_ecoul>  (128) 
0.176611

>  <r_i_glide_erotb>  (128) 
0.0554054

>  <r_i_glide_esite>  (128) 
0

>  <r_i_glide_emodel>  (128) 
-30.5564

>  <r_i_glide_energy>  (128) 
-28.049

>  <r_i_glide_einternal>  (128) 
0.0561864

>  <r_i_glide_intrahb_reward>  (128) 
-0

>  <i_i_glide_confnum>  (128) 
1

>  <i_i_glide_posenum>  (128) 
3

>  <r_i_glide_eff_state_penalty>  (128) 
0

>  <ligand_id>  (128) 
33

>  <original_smiles>  (128) 
CC1(C)C=CC=CC2CC3C4CCCC4N=C(N2C1=O)C12CCC4CCC(C1(O)CC(c1ccccc1)c1ccccc12)[N+]3(C)C4

>  <smiles>  (128) 
[H]OC12C([H])([H])C([H])(c3c([H])c([H])c([H])c([H])c3[H])c3c([H])c([H])c([H])c([H])c3C13C1=NC4([H])C([H])([H])C([H])([H])C([H])([H])C4([H])C([H])(C([H])([H])C4([H])C([H])=C([H])C([H])=C([H])C(C([H])([H])[H])(C([H])([H])[H])C(=O)N14)[N+]1(C([H])([H])[H])C([H])([H])C([H])(C([H])([H])C3([H])[H])C([H])([H])C([H])([H])C21[H]

$$$$
33:4:2
     RDKit          3D

 96104  0  0  1  0  0  0  0  0999 V2000
    2.8294    0.3284    2.8052 C   0  0  0  0  0  0  0  0  0  0  0  0
    2.5721    0.1083    4.3170 C   0  0  0  0  0  0  0  0  0  0  0  0
    2.9480    1.4456    4.9998 C   0  0  0  0  0  0  0  0  0  0  0  0
    1.0860   -0.1826    4.4903 C   0  0  0  0  0  0  0  0  0  0  0  0
    0.3663   -0.2662    5.6293 C   0  0  0  0  0  0  0  0  0  0  0  0
    0.8342   -0.1318    6.9955 C   0  0  0  0  0  0  0  0  0  0  0  0
    1.8997   -0.6889    7.6040 C   0  0  0  0  0  0  0  0  0  0  0  0
    3.0157   -1.6345    7.1215 C   0  0  1  0  0  0  0  0  0  0  0  0
    3.3766   -2.7333    8.1955 C   0  0  0  0  0  0  0  0  0  0  0  0
    2.8610   -4.1687    7.8568 C   0  0  2  0  0  0  0  0  0  0  0  0
    1.2743   -4.1247    7.7159 C   0  0  2  0  0  0  0  0  0  0  0  0
    0.2594   -4.8843    8.5752 C   0  0  0  0  0  0  0  0  0  0  0  0
   -1.1021   -4.2773    8.1324 C   0  0  0  0  0  0  0  0  0  0  0  0
   -0.8395   -3.4872    6.8297 C   0  0  0  0  0  0  0  0  0  0  0  0
    0.5204   -4.0212    6.3598 C   0  0  1  0  0  0  0  0  0  0  0  0
    1.1205   -3.2053    5.3010 N   0  0  0  0  0  0  0  0  0  0  0  0
    2.4087   -3.1527    5.1258 C   0  0  0  0  0  0  0  0  0  0  0  0
    3.0588   -1.9855    5.6492 N   0  0  0  0  0  0  0  0  0  0  0  0
    3.5276   -0.9935    4.8563 C   0  0  0  0  0  0  0  0  0  0  0  0
    4.7395   -0.8710    4.6603 O   0  0  0  0  0  0  0  0  0  0  0  0
    3.3719   -4.3895    4.5840 C   0  0  1  0  0  0  0  0  0  0  0  0
    4.9292   -4.0962    4.6763 C   0  0  0  0  0  0  0  0  0  0  0  0
    5.7273   -3.8302    5.9966 C   0  0  0  0  0  0  0  0  0  0  0  0
    6.0524   -4.9692    7.0080 C   0  0  2  0  0  0  0  0  0  0  0  0
    6.2491   -6.3629    6.3897 C   0  0  0  0  0  0  0  0  0  0  0  0
    5.0154   -7.2190    6.6813 C   0  0  0  0  0  0  0  0  0  0  0  0
    3.7025   -6.3640    6.7310 C   0  0  2  0  0  0  0  0  0  0  0  0
    3.1818   -5.8910    5.2491 C   0  0  1  0  0  0  0  0  0  0  0  0
    1.8491   -6.2559    5.3621 O   0  0  0  0  0  0  0  0  0  0  0  0
    3.5664   -6.9978    4.2060 C   0  0  0  0  0  0  0  0  0  0  0  0
    2.8339   -6.9811    2.8564 C   0  0  1  0  0  0  0  0  0  0  0  0
    1.4487   -7.6483    2.8661 C   0  0  0  0  0  0  0  0  0  0  0  0
    0.2657   -6.8741    2.9153 C   0  0  0  0  0  0  0  0  0  0  0  0
   -0.9983   -7.4929    2.9522 C   0  0  0  0  0  0  0  0  0  0  0  0
   -1.0969   -8.8927    2.9286 C   0  0  0  0  0  0  0  0  0  0  0  0
    0.0707   -9.6751    2.8765 C   0  0  0  0  0  0  0  0  0  0  0  0
    1.3378   -9.0588    2.8469 C   0  0  0  0  0  0  0  0  0  0  0  0
    2.8424   -5.5954    2.2582 C   0  0  0  0  0  0  0  0  0  0  0  0
    2.5974   -5.5204    0.8704 C   0  0  0  0  0  0  0  0  0  0  0  0
    2.6585   -4.3038    0.1824 C   0  0  0  0  0  0  0  0  0  0  0  0
    3.0042   -3.1472    0.8891 C   0  0  0  0  0  0  0  0  0  0  0  0
    3.2401   -3.2218    2.2710 C   0  0  0  0  0  0  0  0  0  0  0  0
    3.1258   -4.4201    3.0245 C   0  0  0  0  0  0  0  0  0  0  0  0
    3.7047   -5.4316    7.9800 N   0  0  2  0  0  0  0  0  0  0  0  0
    3.2218   -6.1779    9.1838 C   0  0  0  0  0  0  0  0  0  0  0  0
    5.1508   -5.0842    8.2694 C   0  0  0  0  0  0  0  0  0  0  0  0
    2.4666   -0.4963    2.1930 H   0  0  0  0  0  0  0  0  0  0  0  0
    3.8884    0.4707    2.5822 H   0  0  0  0  0  0  0  0  0  0  0  0
    2.3143    1.2205    2.4476 H   0  0  0  0  0  0  0  0  0  0  0  0
    2.9048    1.3970    6.0873 H   0  0  0  0  0  0  0  0  0  0  0  0
    2.2866    2.2507    4.6787 H   0  0  0  0  0  0  0  0  0  0  0  0
    3.9634    1.7492    4.7385 H   0  0  0  0  0  0  0  0  0  0  0  0
    0.5431   -0.3543    3.5719 H   0  0  0  0  0  0  0  0  0  0  0  0
   -0.6766   -0.5033    5.5049 H   0  0  0  0  0  0  0  0  0  0  0  0
    0.2421    0.5240    7.6160 H   0  0  0  0  0  0  0  0  0  0  0  0
    2.0281   -0.4009    8.6389 H   0  0  0  0  0  0  0  0  0  0  0  0
    3.8573   -0.9477    7.2564 H   0  0  0  0  0  0  0  0  0  0  0  0
    4.4448   -2.6408    8.3374 H   0  0  0  0  0  0  0  0  0  0  0  0
    2.9958   -2.4445    9.1747 H   0  0  0  0  0  0  0  0  0  0  0  0
    3.3510   -4.1192    6.9502 H   0  0  0  0  0  0  0  0  0  0  0  0
    1.1028   -3.1411    8.1451 H   0  0  0  0  0  0  0  0  0  0  0  0
    0.2651   -5.9448    8.3263 H   0  0  0  0  0  0  0  0  0  0  0  0
    0.4262   -4.7694    9.6473 H   0  0  0  0  0  0  0  0  0  0  0  0
   -1.8378   -5.0638    7.9614 H   0  0  0  0  0  0  0  0  0  0  0  0
   -1.5070   -3.6236    8.9038 H   0  0  0  0  0  0  0  0  0  0  0  0
   -1.6208   -3.6175    6.0837 H   0  0  0  0  0  0  0  0  0  0  0  0
   -0.7856   -2.4210    7.0390 H   0  0  0  0  0  0  0  0  0  0  0  0
    0.1712   -4.9725    5.9818 H   0  0  0  0  0  0  0  0  0  0  0  0
    5.4647   -4.8617    4.1222 H   0  0  0  0  0  0  0  0  0  0  0  0
    5.1465   -3.2250    4.0685 H   0  0  0  0  0  0  0  0  0  0  0  0
    6.7101   -3.4854    5.6688 H   0  0  0  0  0  0  0  0  0  0  0  0
    5.3700   -2.9419    6.4974 H   0  0  0  0  0  0  0  0  0  0  0  0
    7.0323   -4.7042    7.4008 H   0  0  0  0  0  0  0  0  0  0  0  0
    6.4560   -6.3132    5.3200 H   0  0  0  0  0  0  0  0  0  0  0  0
    7.1251   -6.8538    6.8258 H   0  0  0  0  0  0  0  0  0  0  0  0
    4.9848   -8.0733    6.0131 H   0  0  0  0  0  0  0  0  0  0  0  0
    5.1623   -7.6986    7.6520 H   0  0  0  0  0  0  0  0  0  0  0  0
    3.0030   -7.1488    7.0224 H   0  0  0  0  0  0  0  0  0  0  0  0
    1.4733   -6.2697    4.4932 H   0  0  0  0  0  0  0  0  0  0  0  0
    4.6265   -6.8841    3.9760 H   0  0  0  0  0  0  0  0  0  0  0  0
    3.4581   -8.0085    4.6047 H   0  0  0  0  0  0  0  0  0  0  0  0
    3.4392   -7.5947    2.1818 H   0  0  0  0  0  0  0  0  0  0  0  0
    0.3223   -5.7982    2.9496 H   0  0  0  0  0  0  0  0  0  0  0  0
   -1.8958   -6.9001    3.0159 H   0  0  0  0  0  0  0  0  0  0  0  0
   -2.0644   -9.3733    2.9648 H   0  0  0  0  0  0  0  0  0  0  0  0
   -0.0087  -10.7520    2.8623 H   0  0  0  0  0  0  0  0  0  0  0  0
    2.2220   -9.6797    2.8101 H   0  0  0  0  0  0  0  0  0  0  0  0
    2.3658   -6.4150    0.3152 H   0  0  0  0  0  0  0  0  0  0  0  0
    2.4798   -4.2571   -0.8829 H   0  0  0  0  0  0  0  0  0  0  0  0
    3.0838   -2.2025    0.3741 H   0  0  0  0  0  0  0  0  0  0  0  0
    3.5447   -2.3117    2.7370 H   0  0  0  0  0  0  0  0  0  0  0  0
    3.8434   -7.0472    9.4079 H   0  0  0  0  0  0  0  0  0  0  0  0
    2.2140   -6.5624    9.0641 H   0  0  0  0  0  0  0  0  0  0  0  0
    3.2389   -5.5370   10.0673 H   0  0  0  0  0  0  0  0  0  0  0  0
    5.6049   -5.8890    8.8506 H   0  0  0  0  0  0  0  0  0  0  0  0
    5.2982   -4.2781    8.9792 H   0  0  0  0  0  0  0  0  0  0  0  0
  1  2  1  0
  1 47  1  0
  1 48  1  0
  1 49  1  0
  2 19  1  0
  2  3  1  0
  2  4  1  0
  3 50  1  0
  3 51  1  0
  3 52  1  0
  4  5  2  3
  4 53  1  0
  5  6  1  0
  5 54  1  0
  6  7  2  3
  6 55  1  0
  7  8  1  0
  7 56  1  0
  8 18  1  0
  8  9  1  0
  8 57  1  6
  9 10  1  0
  9 58  1  0
  9 59  1  0
 10 44  1  0
 10 11  1  0
 10 60  1  6
 11 15  1  0
 11 12  1  0
 11 61  1  1
 12 13  1  0
 12 62  1  0
 12 63  1  0
 13 14  1  0
 13 64  1  0
 13 65  1  0
 14 15  1  0
 14 66  1  0
 14 67  1  0
 15 16  1  0
 15 68  1  6
 16 17  2  3
 17 18  1  0
 17 21  1  0
 18 19  1  0
 19 20  2  0
 21 28  1  0
 21 43  1  6
 21 22  1  0
 22 23  1  0
 22 69  1  0
 22 70  1  0
 23 24  1  0
 23 71  1  0
 23 72  1  0
 24 46  1  0
 24 25  1  0
 24 73  1  1
 25 26  1  0
 25 74  1  0
 25 75  1  0
 26 27  1  0
 26 76  1  0
 26 77  1  0
 27 28  1  0
 27 44  1  0
 27 78  1  1
 28 29  1  1
 28 30  1  0
 29 79  1  0
 30 31  1  0
 30 80  1  0
 30 81  1  0
 31 32  1  0
 31 38  1  0
 31 82  1  6
 32 37  1  0
 32 33  2  0
 33 34  1  0
 33 83  1  0
 34 35  2  0
 34 84  1  0
 35 36  1  0
 35 85  1  0
 36 37  2  0
 36 86  1  0
 37 87  1  0
 38 43  2  0
 38 39  1  0
 39 40  2  0
 39 88  1  0
 40 41  1  0
 40 89  1  0
 41 42  2  0
 41 90  1  0
 42 43  1  0
 42 91  1  0
 44 45  1  1
 44 46  1  0
 45 92  1  0
 45 93  1  0
 45 94  1  0
 46 95  1  0
 46 96  1  0
M  CHG  1  44   1
M  END
>  <i_m_ct_stereo_status>  (129) 
1

>  <s_m_source_file>  (129) 
/var/tmp/pbs.5076255.sched01/tmpqm933_o1/456x1pmp19.sdf

>  <i_m_source_file_index>  (129) 
8

>  <i_lp_mmshare_version>  (129) 
48012

>  <i_f3d_flags>  (129) 
0

>  <s_epik_input>  (129) 
Tz1DMUMoW0NIM10pKFtDSDNdKS9bQ0hdPVtDSF1cW0NIXT1bQ0hdL1tDQEhdKE4xL0MyW0NAQF0zNDUpW0NIMl1bQ0hdKFtDQEhdNltDQEhdKC9OPTIpW0NIMl1bQ0gyXVtDSDJdNilbTkBAK103KFtDSDNdKVtDQEhdKFtDSDJdW0NIMl1bQ0BIXShbQ0gyXTcpW0NIMl1bQ0gyXTMpW0NAXTQoW09IXSlbQ0gyXVtDQEBIXShjOFtjSF1bY0hdW2NIXVtjSF1bY0hdOCljOWM1W2NIXVtjSF1bY0hdW2NIXTk=

>  <s_epik_cmdline>  (129) 
J2VwaWtfcHl0aG9uJywgJy1waHQnLCAnMi4wJywgJy1waCcsICc3LjAnLCAnLXRuJywgJzgnLCAnLW1hJywgJzIwMCcsICctaW1hZScsICc8aW5maWxlLm1hZT4nLCAnLW9tYWUnLCAnPG91dGZpbGUubWFlPic=

>  <r_lp_tautomer_probability>  (129) 
1

>  <r_epik_Ionization_Penalty>  (129) 
0.0248322

>  <r_epik_Ionization_Penalty_Charging>  (129) 
0

>  <r_epik_Ionization_Penalty_Neutral>  (129) 
0.0248322

>  <r_epik_State_Penalty>  (129) 
0.0199713

>  <r_epik_Charging_Adjusted_Penalty>  (129) 
0.0199713

>  <i_epik_Tot_Q>  (129) 
1

>  <i_epik_Tot_abs_Q>  (129) 
1

>  <s_epik_Chemistry_Notes>  (129) 
This compound has an imine and may undergo hydrolysis.

>  <s_lp_Force_Field>  (129) 
OPLS3e

>  <r_lp_Energy>  (129) 
284.753

>  <b_lp_Chiralities_Consistent>  (129) 
1

>  <s_lp_Variant>  (129) 
33:0-5

>  <s_i_glide_gridfile>  (129) 
pfpi4k_grid

>  <i_i_glide_lignum>  (129) 
8

>  <i_i_glide_rotatable_bonds>  (129) 
2

>  <r_i_docking_score>  (129) 
-1.35657

>  <r_i_glide_ligand_efficiency>  (129) 
-0.0294906

>  <r_i_glide_ligand_efficiency_sa>  (129) 
-0.105666

>  <r_i_glide_ligand_efficiency_ln>  (129) 
-0.280942

>  <r_i_glide_gscore>  (129) 
-1.35657

>  <r_i_glide_lipo>  (129) 
-0.0280843

>  <r_i_glide_hbond>  (129) 
0

>  <r_i_glide_metal>  (129) 
-0

>  <r_i_glide_rewards>  (129) 
0

>  <r_i_glide_evdw>  (129) 
-28.0573

>  <r_i_glide_ecoul>  (129) 
0.126487

>  <r_i_glide_erotb>  (129) 
0.0554054

>  <r_i_glide_esite>  (129) 
0

>  <r_i_glide_emodel>  (129) 
-30.1709

>  <r_i_glide_energy>  (129) 
-27.9308

>  <r_i_glide_einternal>  (129) 
0.555003

>  <r_i_glide_intrahb_reward>  (129) 
-0

>  <i_i_glide_confnum>  (129) 
4

>  <i_i_glide_posenum>  (129) 
29

>  <r_i_glide_eff_state_penalty>  (129) 
0

>  <ligand_id>  (129) 
33

>  <original_smiles>  (129) 
CC1(C)C=CC=CC2CC3C4CCCC4N=C(N2C1=O)C12CCC4CCC(C1(O)CC(c1ccccc1)c1ccccc12)[N+]3(C)C4

>  <smiles>  (129) 
[H]OC12C([H])([H])C([H])(c3c([H])c([H])c([H])c([H])c3[H])c3c([H])c([H])c([H])c([H])c3C13C1=NC4([H])C([H])([H])C([H])([H])C([H])([H])C4([H])C([H])(C([H])([H])C4([H])C([H])=C([H])C([H])=C([H])C(C([H])([H])[H])(C([H])([H])[H])C(=O)N14)[N+]1(C([H])([H])[H])C([H])([H])C([H])(C([H])([H])C3([H])[H])C([H])([H])C([H])([H])C21[H]

$$$$
33:5:0
     RDKit          3D

 96104  0  0  1  0  0  0  0  0999 V2000
    2.6488   -0.1080    2.9008 C   0  0  0  0  0  0  0  0  0  0  0  0
    2.9828    0.0802    4.3923 C   0  0  0  0  0  0  0  0  0  0  0  0
    3.8593    1.3550    4.4914 C   0  0  0  0  0  0  0  0  0  0  0  0
    1.6983    0.2316    5.1651 C   0  0  0  0  0  0  0  0  0  0  0  0
    1.6681    0.8334    6.3580 C   0  0  0  0  0  0  0  0  0  0  0  0
    1.1388    0.0663    7.4365 C   0  0  0  0  0  0  0  0  0  0  0  0
    1.6996   -1.1073    7.7952 C   0  0  0  0  0  0  0  0  0  0  0  0
    3.0010   -1.8020    7.2741 C   0  0  1  0  0  0  0  0  0  0  0  0
    3.4150   -2.9693    8.2582 C   0  0  0  0  0  0  0  0  0  0  0  0
    2.9120   -4.4013    7.8437 C   0  0  2  0  0  0  0  0  0  0  0  0
    1.3230   -4.4106    7.6543 C   0  0  2  0  0  0  0  0  0  0  0  0
    0.2880   -5.2766    8.3736 C   0  0  0  0  0  0  0  0  0  0  0  0
   -1.0576   -4.5848    8.0019 C   0  0  0  0  0  0  0  0  0  0  0  0
   -0.7630   -3.5967    6.8459 C   0  0  0  0  0  0  0  0  0  0  0  0
    0.5804   -4.0934    6.3081 C   0  0  1  0  0  0  0  0  0  0  0  0
    1.2165   -3.1498    5.4031 N   0  0  0  0  0  0  0  0  0  0  0  0
    2.4960   -3.1934    5.1895 C   0  0  0  0  0  0  0  0  0  0  0  0
    3.1726   -2.0711    5.7705 N   0  0  0  0  0  0  0  0  0  0  0  0
    3.7874   -1.1279    4.9927 C   0  0  0  0  0  0  0  0  0  0  0  0
    5.0079   -1.1442    4.8331 O   0  0  0  0  0  0  0  0  0  0  0  0
    3.4055   -4.4830    4.6150 C   0  0  1  0  0  0  0  0  0  0  0  0
    4.9799   -4.2663    4.6951 C   0  0  0  0  0  0  0  0  0  0  0  0
    5.7957   -4.0244    6.0101 C   0  0  0  0  0  0  0  0  0  0  0  0
    6.1164   -5.1822    6.9975 C   0  0  2  0  0  0  0  0  0  0  0  0
    6.3101   -6.5601    6.3428 C   0  0  0  0  0  0  0  0  0  0  0  0
    5.0615   -7.4098    6.5834 C   0  0  0  0  0  0  0  0  0  0  0  0
    3.7566   -6.5468    6.6803 C   0  0  2  0  0  0  0  0  0  0  0  0
    3.1872   -6.0100    5.2420 C   0  0  1  0  0  0  0  0  0  0  0  0
    1.8537   -6.3479    5.4194 O   0  0  0  0  0  0  0  0  0  0  0  0
    3.5018   -7.0922    4.1541 C   0  0  0  0  0  0  0  0  0  0  0  0
    2.7065   -7.0022    2.8476 C   0  0  1  0  0  0  0  0  0  0  0  0
    1.3139   -7.6448    2.8901 C   0  0  0  0  0  0  0  0  0  0  0  0
    1.1984   -9.0484    2.8070 C   0  0  0  0  0  0  0  0  0  0  0  0
   -0.0631   -9.6663    2.8730 C   0  0  0  0  0  0  0  0  0  0  0  0
   -1.2226   -8.8883    3.0268 C   0  0  0  0  0  0  0  0  0  0  0  0
   -1.1224   -7.4889    3.1131 C   0  0  0  0  0  0  0  0  0  0  0  0
    0.1413   -6.8702    3.0407 C   0  0  0  0  0  0  0  0  0  0  0  0
    2.7477   -5.6036    2.2801 C   0  0  0  0  0  0  0  0  0  0  0  0
    2.4745   -5.4879    0.8992 C   0  0  0  0  0  0  0  0  0  0  0  0
    2.6170   -4.2657    0.2321 C   0  0  0  0  0  0  0  0  0  0  0  0
    3.0811   -3.1578    0.9486 C   0  0  0  0  0  0  0  0  0  0  0  0
    3.3527   -3.2806    2.3220 C   0  0  0  0  0  0  0  0  0  0  0  0
    3.1399   -4.4740    3.0568 C   0  0  0  0  0  0  0  0  0  0  0  0
    3.7630   -5.6585    7.9534 N   0  0  2  0  0  0  0  0  0  0  0  0
    3.2737   -6.4360    9.1341 C   0  0  0  0  0  0  0  0  0  0  0  0
    5.2081   -5.3218    8.2530 C   0  0  0  0  0  0  0  0  0  0  0  0
    1.9749   -0.9485    2.7328 H   0  0  0  0  0  0  0  0  0  0  0  0
    3.5516   -0.2587    2.3068 H   0  0  0  0  0  0  0  0  0  0  0  0
    2.1551    0.7774    2.4957 H   0  0  0  0  0  0  0  0  0  0  0  0
    4.2789    1.5056    5.4866 H   0  0  0  0  0  0  0  0  0  0  0  0
    3.2953    2.2492    4.2223 H   0  0  0  0  0  0  0  0  0  0  0  0
    4.7040    1.2960    3.8063 H   0  0  0  0  0  0  0  0  0  0  0  0
    0.9998   -0.5739    4.9894 H   0  0  0  0  0  0  0  0  0  0  0  0
    2.4210    1.5532    6.6353 H   0  0  0  0  0  0  0  0  0  0  0  0
    0.2745    0.4299    7.9729 H   0  0  0  0  0  0  0  0  0  0  0  0
    1.2471   -1.5536    8.6651 H   0  0  0  0  0  0  0  0  0  0  0  0
    3.7354   -1.0253    7.4957 H   0  0  0  0  0  0  0  0  0  0  0  0
    4.4867   -2.8679    8.3528 H   0  0  0  0  0  0  0  0  0  0  0  0
    3.0732   -2.7548    9.2692 H   0  0  0  0  0  0  0  0  0  0  0  0
    3.4283   -4.2975    6.9554 H   0  0  0  0  0  0  0  0  0  0  0  0
    1.1355   -3.5376    8.2558 H   0  0  0  0  0  0  0  0  0  0  0  0
    0.2998   -6.2907    7.9731 H   0  0  0  0  0  0  0  0  0  0  0  0
    0.4353   -5.3195    9.4530 H   0  0  0  0  0  0  0  0  0  0  0  0
   -1.7928   -5.3252    7.6871 H   0  0  0  0  0  0  0  0  0  0  0  0
   -1.4801   -4.0514    8.8536 H   0  0  0  0  0  0  0  0  0  0  0  0
   -1.5401   -3.5773    6.0816 H   0  0  0  0  0  0  0  0  0  0  0  0
   -0.6666   -2.5763    7.2197 H   0  0  0  0  0  0  0  0  0  0  0  0
    0.1963   -4.9454    5.7603 H   0  0  0  0  0  0  0  0  0  0  0  0
    5.4769   -5.0588    4.1451 H   0  0  0  0  0  0  0  0  0  0  0  0
    5.2485   -3.4191    4.0757 H   0  0  0  0  0  0  0  0  0  0  0  0
    6.7765   -3.6833    5.6749 H   0  0  0  0  0  0  0  0  0  0  0  0
    5.4479   -3.1476    6.5370 H   0  0  0  0  0  0  0  0  0  0  0  0
    7.0959   -4.9296    7.4001 H   0  0  0  0  0  0  0  0  0  0  0  0
    6.5391   -6.4847    5.2782 H   0  0  0  0  0  0  0  0  0  0  0  0
    7.1723   -7.0739    6.7819 H   0  0  0  0  0  0  0  0  0  0  0  0
    5.0192   -8.2217    5.8623 H   0  0  0  0  0  0  0  0  0  0  0  0
    5.2014   -7.9402    7.5279 H   0  0  0  0  0  0  0  0  0  0  0  0
    3.0763   -7.3522    6.9612 H   0  0  0  0  0  0  0  0  0  0  0  0
    1.7681   -7.2888    5.5031 H   0  0  0  0  0  0  0  0  0  0  0  0
    4.5542   -7.0019    3.8788 H   0  0  0  0  0  0  0  0  0  0  0  0
    3.3931   -8.1142    4.5238 H   0  0  0  0  0  0  0  0  0  0  0  0
    3.2638   -7.6065    2.1286 H   0  0  0  0  0  0  0  0  0  0  0  0
    2.0791   -9.6634    2.6928 H   0  0  0  0  0  0  0  0  0  0  0  0
   -0.1400  -10.7418    2.8142 H   0  0  0  0  0  0  0  0  0  0  0  0
   -2.1847   -9.3768    3.0977 H   0  0  0  0  0  0  0  0  0  0  0  0
   -2.0188   -6.9054    3.2598 H   0  0  0  0  0  0  0  0  0  0  0  0
    0.2234   -5.7983    3.1383 H   0  0  0  0  0  0  0  0  0  0  0  0
    2.1695   -6.3519    0.3316 H   0  0  0  0  0  0  0  0  0  0  0  0
    2.4167   -4.1827   -0.8269 H   0  0  0  0  0  0  0  0  0  0  0  0
    3.2318   -2.2127    0.4502 H   0  0  0  0  0  0  0  0  0  0  0  0
    3.7624   -2.4202    2.8038 H   0  0  0  0  0  0  0  0  0  0  0  0
    3.8913   -7.3141    9.3342 H   0  0  0  0  0  0  0  0  0  0  0  0
    2.2635   -6.8128    9.0016 H   0  0  0  0  0  0  0  0  0  0  0  0
    3.2910   -5.8209   10.0349 H   0  0  0  0  0  0  0  0  0  0  0  0
    5.6568   -6.1442    8.8142 H   0  0  0  0  0  0  0  0  0  0  0  0
    5.3522   -4.5255    8.9745 H   0  0  0  0  0  0  0  0  0  0  0  0
  1  2  1  0
  1 47  1  0
  1 48  1  0
  1 49  1  0
  2 19  1  0
  2  3  1  0
  2  4  1  0
  3 50  1  0
  3 51  1  0
  3 52  1  0
  4  5  2  3
  4 53  1  0
  5  6  1  0
  5 54  1  0
  6  7  2  3
  6 55  1  0
  7  8  1  0
  7 56  1  0
  8 18  1  0
  8  9  1  0
  8 57  1  1
  9 10  1  0
  9 58  1  0
  9 59  1  0
 10 44  1  0
 10 11  1  0
 10 60  1  6
 11 15  1  0
 11 12  1  0
 11 61  1  1
 12 13  1  0
 12 62  1  0
 12 63  1  0
 13 14  1  0
 13 64  1  0
 13 65  1  0
 14 15  1  0
 14 66  1  0
 14 67  1  0
 15 16  1  0
 15 68  1  6
 16 17  2  3
 17 18  1  0
 17 21  1  0
 18 19  1  0
 19 20  2  0
 21 28  1  0
 21 43  1  6
 21 22  1  0
 22 23  1  0
 22 69  1  0
 22 70  1  0
 23 24  1  0
 23 71  1  0
 23 72  1  0
 24 46  1  0
 24 25  1  0
 24 73  1  1
 25 26  1  0
 25 74  1  0
 25 75  1  0
 26 27  1  0
 26 76  1  0
 26 77  1  0
 27 28  1  0
 27 44  1  0
 27 78  1  1
 28 29  1  1
 28 30  1  0
 29 79  1  0
 30 31  1  0
 30 80  1  0
 30 81  1  0
 31 32  1  0
 31 38  1  0
 31 82  1  6
 32 37  1  0
 32 33  2  0
 33 34  1  0
 33 83  1  0
 34 35  2  0
 34 84  1  0
 35 36  1  0
 35 85  1  0
 36 37  2  0
 36 86  1  0
 37 87  1  0
 38 43  2  0
 38 39  1  0
 39 40  2  0
 39 88  1  0
 40 41  1  0
 40 89  1  0
 41 42  2  0
 41 90  1  0
 42 43  1  0
 42 91  1  0
 44 45  1  1
 44 46  1  0
 45 92  1  0
 45 93  1  0
 45 94  1  0
 46 95  1  0
 46 96  1  0
M  CHG  1  44   1
M  END
>  <i_m_ct_stereo_status>  (130) 
1

>  <s_m_source_file>  (130) 
/var/tmp/pbs.5076255.sched01/tmpqm933_o1/456x1pmp19.sdf

>  <i_m_source_file_index>  (130) 
9

>  <i_lp_mmshare_version>  (130) 
48012

>  <i_f3d_flags>  (130) 
0

>  <s_epik_input>  (130) 
Tz1DMUMoW0NIM10pKFtDSDNdKS9bQ0hdPVtDSF1cW0NIXT1bQ0hdL1tDQEhdKE4xL0MyW0NAQF0zNDUpW0NIMl1bQ0hdKFtDQEhdNltDQEhdKC9OPTIpW0NIMl1bQ0gyXVtDSDJdNilbTkBAK103KFtDSDNdKVtDQEhdKFtDSDJdW0NIMl1bQ0BIXShbQ0gyXTcpW0NIMl1bQ0gyXTMpW0NAXTQoW09IXSlbQ0gyXVtDQEBIXShjOFtjSF1bY0hdW2NIXVtjSF1bY0hdOCljOWM1W2NIXVtjSF1bY0hdW2NIXTk=

>  <s_epik_cmdline>  (130) 
J2VwaWtfcHl0aG9uJywgJy1waHQnLCAnMi4wJywgJy1waCcsICc3LjAnLCAnLXRuJywgJzgnLCAnLW1hJywgJzIwMCcsICctaW1hZScsICc8aW5maWxlLm1hZT4nLCAnLW9tYWUnLCAnPG91dGZpbGUubWFlPic=

>  <r_lp_tautomer_probability>  (130) 
1

>  <r_epik_Ionization_Penalty>  (130) 
0.0248322

>  <r_epik_Ionization_Penalty_Charging>  (130) 
0

>  <r_epik_Ionization_Penalty_Neutral>  (130) 
0.0248322

>  <r_epik_State_Penalty>  (130) 
0.0199713

>  <r_epik_Charging_Adjusted_Penalty>  (130) 
0.0199713

>  <i_epik_Tot_Q>  (130) 
1

>  <i_epik_Tot_abs_Q>  (130) 
1

>  <s_epik_Chemistry_Notes>  (130) 
This compound has an imine and may undergo hydrolysis.

>  <s_lp_Force_Field>  (130) 
OPLS3e

>  <r_lp_Energy>  (130) 
310.565

>  <b_lp_Chiralities_Consistent>  (130) 
1

>  <s_lp_Variant>  (130) 
33:0-6

>  <s_i_glide_gridfile>  (130) 
pfpi4k_grid

>  <i_i_glide_lignum>  (130) 
9

>  <i_i_glide_rotatable_bonds>  (130) 
2

>  <r_i_docking_score>  (130) 
-1.35204

>  <r_i_glide_ligand_efficiency>  (130) 
-0.0293922

>  <r_i_glide_ligand_efficiency_sa>  (130) 
-0.105314

>  <r_i_glide_ligand_efficiency_ln>  (130) 
-0.280005

>  <r_i_glide_gscore>  (130) 
-1.35204

>  <r_i_glide_lipo>  (130) 
-0.0119913

>  <r_i_glide_hbond>  (130) 
0

>  <r_i_glide_metal>  (130) 
-0

>  <r_i_glide_rewards>  (130) 
0

>  <r_i_glide_evdw>  (130) 
-27.457

>  <r_i_glide_ecoul>  (130) 
-0.150697

>  <r_i_glide_erotb>  (130) 
0.0554054

>  <r_i_glide_esite>  (130) 
0

>  <r_i_glide_emodel>  (130) 
-29.8717

>  <r_i_glide_energy>  (130) 
-27.6077

>  <r_i_glide_einternal>  (130) 
0.204738

>  <r_i_glide_intrahb_reward>  (130) 
-0

>  <i_i_glide_confnum>  (130) 
1

>  <i_i_glide_posenum>  (130) 
25

>  <r_i_glide_eff_state_penalty>  (130) 
0

>  <ligand_id>  (130) 
33

>  <original_smiles>  (130) 
CC1(C)C=CC=CC2CC3C4CCCC4N=C(N2C1=O)C12CCC4CCC(C1(O)CC(c1ccccc1)c1ccccc12)[N+]3(C)C4

>  <smiles>  (130) 
[H]OC12C([H])([H])C([H])(c3c([H])c([H])c([H])c([H])c3[H])c3c([H])c([H])c([H])c([H])c3C13C1=NC4([H])C([H])([H])C([H])([H])C([H])([H])C4([H])C([H])(C([H])([H])C4([H])C([H])=C([H])C([H])=C([H])C(C([H])([H])[H])(C([H])([H])[H])C(=O)N14)[N+]1(C([H])([H])[H])C([H])([H])C([H])(C([H])([H])C3([H])[H])C([H])([H])C([H])([H])C21[H]

$$$$
33:5:1
     RDKit          3D

 96104  0  0  1  0  0  0  0  0999 V2000
    2.5889   -0.1178    2.9384 C   0  0  0  0  0  0  0  0  0  0  0  0
    2.9183    0.0601    4.4335 C   0  0  0  0  0  0  0  0  0  0  0  0
    3.7724    1.3501    4.5456 C   0  0  0  0  0  0  0  0  0  0  0  0
    1.6302    0.1784    5.2047 C   0  0  0  0  0  0  0  0  0  0  0  0
    1.5875    0.7680    6.4059 C   0  0  0  0  0  0  0  0  0  0  0  0
    1.0721   -0.0221    7.4770 C   0  0  0  0  0  0  0  0  0  0  0  0
    1.6544   -1.1864    7.8227 C   0  0  0  0  0  0  0  0  0  0  0  0
    2.9675   -1.8532    7.2958 C   0  0  1  0  0  0  0  0  0  0  0  0
    3.4041   -3.0213    8.2669 C   0  0  0  0  0  0  0  0  0  0  0  0
    2.9263   -4.4585    7.8377 C   0  0  2  0  0  0  0  0  0  0  0  0
    1.3385   -4.4944    7.6447 C   0  0  2  0  0  0  0  0  0  0  0  0
    0.3192   -5.3869    8.3542 C   0  0  0  0  0  0  0  0  0  0  0  0
   -1.0385   -4.7139    7.9894 C   0  0  0  0  0  0  0  0  0  0  0  0
   -0.7593   -3.7091    6.8447 C   0  0  0  0  0  0  0  0  0  0  0  0
    0.5930   -4.1803    6.3019 C   0  0  1  0  0  0  0  0  0  0  0  0
    1.2103   -3.2225    5.3972 N   0  0  0  0  0  0  0  0  0  0  0  0
    2.4931   -3.2320    5.1950 C   0  0  0  0  0  0  0  0  0  0  0  0
    3.1445   -2.1029    5.7888 N   0  0  0  0  0  0  0  0  0  0  0  0
    3.7420   -1.1401    5.0209 C   0  0  0  0  0  0  0  0  0  0  0  0
    4.9624   -1.1357    4.8588 O   0  0  0  0  0  0  0  0  0  0  0  0
    3.4271   -4.4946    4.6046 C   0  0  1  0  0  0  0  0  0  0  0  0
    4.9963   -4.2517    4.6912 C   0  0  0  0  0  0  0  0  0  0  0  0
    5.8052   -4.0093    6.0095 C   0  0  0  0  0  0  0  0  0  0  0  0
    6.1461   -5.1738    6.9833 C   0  0  2  0  0  0  0  0  0  0  0  0
    6.3623   -6.5396    6.3131 C   0  0  0  0  0  0  0  0  0  0  0  0
    5.1290   -7.4131    6.5420 C   0  0  0  0  0  0  0  0  0  0  0  0
    3.8070   -6.5765    6.6469 C   0  0  2  0  0  0  0  0  0  0  0  0
    3.2373   -6.0303    5.2125 C   0  0  1  0  0  0  0  0  0  0  0  0
    1.9121   -6.4080    5.3664 O   0  0  0  0  0  0  0  0  0  0  0  0
    3.5753   -7.0949    4.1148 C   0  0  0  0  0  0  0  0  0  0  0  0
    2.7766   -7.0102    2.8060 C   0  0  1  0  0  0  0  0  0  0  0  0
    1.3931   -7.6762    2.8472 C   0  0  0  0  0  0  0  0  0  0  0  0
    1.3091   -9.0856    2.8098 C   0  0  0  0  0  0  0  0  0  0  0  0
    0.0608   -9.7313    2.8794 C   0  0  0  0  0  0  0  0  0  0  0  0
   -1.1197   -8.9736    2.9747 C   0  0  0  0  0  0  0  0  0  0  0  0
   -1.0507   -7.5714    3.0153 C   0  0  0  0  0  0  0  0  0  0  0  0
    0.1996   -6.9225    2.9471 C   0  0  0  0  0  0  0  0  0  0  0  0
    2.7912   -5.6061    2.2579 C   0  0  0  0  0  0  0  0  0  0  0  0
    2.5130   -5.4759    0.8794 C   0  0  0  0  0  0  0  0  0  0  0  0
    2.6324   -4.2458    0.2263 C   0  0  0  0  0  0  0  0  0  0  0  0
    3.0785   -3.1364    0.9561 C   0  0  0  0  0  0  0  0  0  0  0  0
    3.3513   -3.2699    2.3260 C   0  0  0  0  0  0  0  0  0  0  0  0
    3.1603   -4.4738    3.0499 C   0  0  0  0  0  0  0  0  0  0  0  0
    3.7991   -5.7027    7.9312 N   0  0  2  0  0  0  0  0  0  0  0  0
    3.3250   -6.5026    9.1037 C   0  0  0  0  0  0  0  0  0  0  0  0
    5.2393   -5.3434    8.2356 C   0  0  0  0  0  0  0  0  0  0  0  0
    1.9312   -0.9688    2.7595 H   0  0  0  0  0  0  0  0  0  0  0  0
    3.4944   -0.2448    2.3428 H   0  0  0  0  0  0  0  0  0  0  0  0
    2.0804    0.7620    2.5425 H   0  0  0  0  0  0  0  0  0  0  0  0
    4.1899    1.4970    5.5434 H   0  0  0  0  0  0  0  0  0  0  0  0
    3.1916    2.2362    4.2864 H   0  0  0  0  0  0  0  0  0  0  0  0
    4.6181    1.3185    3.8592 H   0  0  0  0  0  0  0  0  0  0  0  0
    0.9485   -0.6386    5.0225 H   0  0  0  0  0  0  0  0  0  0  0  0
    2.3254    1.4991    6.6906 H   0  0  0  0  0  0  0  0  0  0  0  0
    0.2025    0.3233    8.0175 H   0  0  0  0  0  0  0  0  0  0  0  0
    1.2102   -1.6506    8.6893 H   0  0  0  0  0  0  0  0  0  0  0  0
    3.6871   -1.0640    7.5263 H   0  0  0  0  0  0  0  0  0  0  0  0
    4.4750   -2.9027    8.3629 H   0  0  0  0  0  0  0  0  0  0  0  0
    3.0619   -2.8230    9.2821 H   0  0  0  0  0  0  0  0  0  0  0  0
    3.4399   -4.3383    6.9501 H   0  0  0  0  0  0  0  0  0  0  0  0
    1.1349   -3.6331    8.2587 H   0  0  0  0  0  0  0  0  0  0  0  0
    0.3505   -6.3962    7.9428 H   0  0  0  0  0  0  0  0  0  0  0  0
    0.4658   -5.4398    9.4333 H   0  0  0  0  0  0  0  0  0  0  0  0
   -1.7605   -5.4607    7.6669 H   0  0  0  0  0  0  0  0  0  0  0  0
   -1.4720   -4.1991    8.8466 H   0  0  0  0  0  0  0  0  0  0  0  0
   -1.5344   -3.6970    6.0798 H   0  0  0  0  0  0  0  0  0  0  0  0
   -0.6867   -2.6903    7.2292 H   0  0  0  0  0  0  0  0  0  0  0  0
    0.2275   -5.0402    5.7536 H   0  0  0  0  0  0  0  0  0  0  0  0
    5.5084   -5.0300    4.1336 H   0  0  0  0  0  0  0  0  0  0  0  0
    5.2517   -3.3953    4.0795 H   0  0  0  0  0  0  0  0  0  0  0  0
    6.7796   -3.6449    5.6791 H   0  0  0  0  0  0  0  0  0  0  0  0
    5.4411   -3.1443    6.5458 H   0  0  0  0  0  0  0  0  0  0  0  0
    7.1206   -4.9089    7.3895 H   0  0  0  0  0  0  0  0  0  0  0  0
    6.5926   -6.4491    5.2509 H   0  0  0  0  0  0  0  0  0  0  0  0
    7.2321   -7.0430    6.7473 H   0  0  0  0  0  0  0  0  0  0  0  0
    5.1024   -8.2215    5.8184 H   0  0  0  0  0  0  0  0  0  0  0  0
    5.2775   -7.9487    7.4822 H   0  0  0  0  0  0  0  0  0  0  0  0
    3.1318   -7.3927    6.9112 H   0  0  0  0  0  0  0  0  0  0  0  0
    1.5109   -6.4271    4.5079 H   0  0  0  0  0  0  0  0  0  0  0  0
    4.6258   -6.9821    3.8426 H   0  0  0  0  0  0  0  0  0  0  0  0
    3.4824   -8.1201    4.4788 H   0  0  0  0  0  0  0  0  0  0  0  0
    3.3410   -7.6021    2.0804 H   0  0  0  0  0  0  0  0  0  0  0  0
    2.2050   -9.6839    2.7351 H   0  0  0  0  0  0  0  0  0  0  0  0
    0.0113  -10.8092    2.8483 H   0  0  0  0  0  0  0  0  0  0  0  0
   -2.0749   -9.4753    3.0386 H   0  0  0  0  0  0  0  0  0  0  0  0
   -1.9642   -7.0055    3.1133 H   0  0  0  0  0  0  0  0  0  0  0  0
    0.2394   -5.8449    2.9956 H   0  0  0  0  0  0  0  0  0  0  0  0
    2.2256   -6.3398    0.3009 H   0  0  0  0  0  0  0  0  0  0  0  0
    2.4314   -4.1551   -0.8318 H   0  0  0  0  0  0  0  0  0  0  0  0
    3.2135   -2.1852    0.4656 H   0  0  0  0  0  0  0  0  0  0  0  0
    3.7461   -2.4075    2.8188 H   0  0  0  0  0  0  0  0  0  0  0  0
    3.9584   -7.3716    9.2949 H   0  0  0  0  0  0  0  0  0  0  0  0
    2.3228   -6.8978    8.9683 H   0  0  0  0  0  0  0  0  0  0  0  0
    3.3314   -5.8971   10.0114 H   0  0  0  0  0  0  0  0  0  0  0  0
    5.7022   -6.1622    8.7912 H   0  0  0  0  0  0  0  0  0  0  0  0
    5.3667   -4.5535    8.9677 H   0  0  0  0  0  0  0  0  0  0  0  0
  1  2  1  0
  1 47  1  0
  1 48  1  0
  1 49  1  0
  2 19  1  0
  2  3  1  0
  2  4  1  0
  3 50  1  0
  3 51  1  0
  3 52  1  0
  4  5  2  3
  4 53  1  0
  5  6  1  0
  5 54  1  0
  6  7  2  3
  6 55  1  0
  7  8  1  0
  7 56  1  0
  8 18  1  0
  8  9  1  0
  8 57  1  1
  9 10  1  0
  9 58  1  0
  9 59  1  0
 10 44  1  0
 10 11  1  0
 10 60  1  6
 11 15  1  0
 11 12  1  0
 11 61  1  1
 12 13  1  0
 12 62  1  0
 12 63  1  0
 13 14  1  0
 13 64  1  0
 13 65  1  0
 14 15  1  0
 14 66  1  0
 14 67  1  0
 15 16  1  0
 15 68  1  6
 16 17  2  3
 17 18  1  0
 17 21  1  0
 18 19  1  0
 19 20  2  0
 21 28  1  0
 21 43  1  6
 21 22  1  0
 22 23  1  0
 22 69  1  0
 22 70  1  0
 23 24  1  0
 23 71  1  0
 23 72  1  0
 24 46  1  0
 24 25  1  0
 24 73  1  1
 25 26  1  0
 25 74  1  0
 25 75  1  0
 26 27  1  0
 26 76  1  0
 26 77  1  0
 27 28  1  0
 27 44  1  0
 27 78  1  1
 28 29  1  1
 28 30  1  0
 29 79  1  0
 30 31  1  0
 30 80  1  0
 30 81  1  0
 31 32  1  0
 31 38  1  0
 31 82  1  6
 32 37  1  0
 32 33  2  0
 33 34  1  0
 33 83  1  0
 34 35  2  0
 34 84  1  0
 35 36  1  0
 35 85  1  0
 36 37  2  0
 36 86  1  0
 37 87  1  0
 38 43  2  0
 38 39  1  0
 39 40  2  0
 39 88  1  0
 40 41  1  0
 40 89  1  0
 41 42  2  0
 41 90  1  0
 42 43  1  0
 42 91  1  0
 44 45  1  1
 44 46  1  0
 45 92  1  0
 45 93  1  0
 45 94  1  0
 46 95  1  0
 46 96  1  0
M  CHG  1  44   1
M  END
>  <i_m_ct_stereo_status>  (131) 
1

>  <s_m_source_file>  (131) 
/var/tmp/pbs.5076255.sched01/tmpqm933_o1/456x1pmp19.sdf

>  <i_m_source_file_index>  (131) 
9

>  <i_lp_mmshare_version>  (131) 
48012

>  <i_f3d_flags>  (131) 
0

>  <s_epik_input>  (131) 
Tz1DMUMoW0NIM10pKFtDSDNdKS9bQ0hdPVtDSF1cW0NIXT1bQ0hdL1tDQEhdKE4xL0MyW0NAQF0zNDUpW0NIMl1bQ0hdKFtDQEhdNltDQEhdKC9OPTIpW0NIMl1bQ0gyXVtDSDJdNilbTkBAK103KFtDSDNdKVtDQEhdKFtDSDJdW0NIMl1bQ0BIXShbQ0gyXTcpW0NIMl1bQ0gyXTMpW0NAXTQoW09IXSlbQ0gyXVtDQEBIXShjOFtjSF1bY0hdW2NIXVtjSF1bY0hdOCljOWM1W2NIXVtjSF1bY0hdW2NIXTk=

>  <s_epik_cmdline>  (131) 
J2VwaWtfcHl0aG9uJywgJy1waHQnLCAnMi4wJywgJy1waCcsICc3LjAnLCAnLXRuJywgJzgnLCAnLW1hJywgJzIwMCcsICctaW1hZScsICc8aW5maWxlLm1hZT4nLCAnLW9tYWUnLCAnPG91dGZpbGUubWFlPic=

>  <r_lp_tautomer_probability>  (131) 
1

>  <r_epik_Ionization_Penalty>  (131) 
0.0248322

>  <r_epik_Ionization_Penalty_Charging>  (131) 
0

>  <r_epik_Ionization_Penalty_Neutral>  (131) 
0.0248322

>  <r_epik_State_Penalty>  (131) 
0.0199713

>  <r_epik_Charging_Adjusted_Penalty>  (131) 
0.0199713

>  <i_epik_Tot_Q>  (131) 
1

>  <i_epik_Tot_abs_Q>  (131) 
1

>  <s_epik_Chemistry_Notes>  (131) 
This compound has an imine and may undergo hydrolysis.

>  <s_lp_Force_Field>  (131) 
OPLS3e

>  <r_lp_Energy>  (131) 
310.565

>  <b_lp_Chiralities_Consistent>  (131) 
1

>  <s_lp_Variant>  (131) 
33:0-6

>  <s_i_glide_gridfile>  (131) 
pfpi4k_grid

>  <i_i_glide_lignum>  (131) 
9

>  <i_i_glide_rotatable_bonds>  (131) 
2

>  <r_i_docking_score>  (131) 
-1.33075

>  <r_i_glide_ligand_efficiency>  (131) 
-0.0289294

>  <r_i_glide_ligand_efficiency_sa>  (131) 
-0.103656

>  <r_i_glide_ligand_efficiency_ln>  (131) 
-0.275596

>  <r_i_glide_gscore>  (131) 
-1.33075

>  <r_i_glide_lipo>  (131) 
-0.0169176

>  <r_i_glide_hbond>  (131) 
0

>  <r_i_glide_metal>  (131) 
-0

>  <r_i_glide_rewards>  (131) 
0

>  <r_i_glide_evdw>  (131) 
-27.4971

>  <r_i_glide_ecoul>  (131) 
0.0374168

>  <r_i_glide_erotb>  (131) 
0.0554054

>  <r_i_glide_esite>  (131) 
0

>  <r_i_glide_emodel>  (131) 
-29.7357

>  <r_i_glide_energy>  (131) 
-27.4597

>  <r_i_glide_einternal>  (131) 
0.180893

>  <r_i_glide_intrahb_reward>  (131) 
-0

>  <i_i_glide_confnum>  (131) 
3

>  <i_i_glide_posenum>  (131) 
14

>  <r_i_glide_eff_state_penalty>  (131) 
0

>  <ligand_id>  (131) 
33

>  <original_smiles>  (131) 
CC1(C)C=CC=CC2CC3C4CCCC4N=C(N2C1=O)C12CCC4CCC(C1(O)CC(c1ccccc1)c1ccccc12)[N+]3(C)C4

>  <smiles>  (131) 
[H]OC12C([H])([H])C([H])(c3c([H])c([H])c([H])c([H])c3[H])c3c([H])c([H])c([H])c([H])c3C13C1=NC4([H])C([H])([H])C([H])([H])C([H])([H])C4([H])C([H])(C([H])([H])C4([H])C([H])=C([H])C([H])=C([H])C(C([H])([H])[H])(C([H])([H])[H])C(=O)N14)[N+]1(C([H])([H])[H])C([H])([H])C([H])(C([H])([H])C3([H])[H])C([H])([H])C([H])([H])C21[H]

$$$$
33:5:2
     RDKit          3D

 96104  0  0  1  0  0  0  0  0999 V2000
    2.5657   -0.1223    2.9207 C   0  0  0  0  0  0  0  0  0  0  0  0
    2.8988    0.0660    4.4135 C   0  0  0  0  0  0  0  0  0  0  0  0
    3.7520    1.3575    4.5155 C   0  0  0  0  0  0  0  0  0  0  0  0
    1.6117    0.1884    5.1863 C   0  0  0  0  0  0  0  0  0  0  0  0
    1.5705    0.7855    6.3830 C   0  0  0  0  0  0  0  0  0  0  0  0
    1.0567    0.0029    7.4597 C   0  0  0  0  0  0  0  0  0  0  0  0
    1.6412   -1.1594    7.8124 C   0  0  0  0  0  0  0  0  0  0  0  0
    2.9543   -1.8275    7.2882 C   0  0  1  0  0  0  0  0  0  0  0  0
    3.3936   -2.9886    8.2668 C   0  0  0  0  0  0  0  0  0  0  0  0
    2.9200   -4.4289    7.8481 C   0  0  2  0  0  0  0  0  0  0  0  0
    1.3304   -4.4719    7.6550 C   0  0  2  0  0  0  0  0  0  0  0  0
    0.3133   -5.3585    8.3741 C   0  0  0  0  0  0  0  0  0  0  0  0
   -1.0464   -4.6885    8.0060 C   0  0  0  0  0  0  0  0  0  0  0  0
   -0.7706   -3.6905    6.8560 C   0  0  0  0  0  0  0  0  0  0  0  0
    0.5790   -4.1650    6.3118 C   0  0  1  0  0  0  0  0  0  0  0  0
    1.1988   -3.2077    5.4105 N   0  0  0  0  0  0  0  0  0  0  0  0
    2.4790   -3.2192    5.1965 C   0  0  0  0  0  0  0  0  0  0  0  0
    3.1309   -2.0864    5.7818 N   0  0  0  0  0  0  0  0  0  0  0  0
    3.7256   -1.1276    5.0071 C   0  0  0  0  0  0  0  0  0  0  0  0
    4.9462   -1.1219    4.8448 O   0  0  0  0  0  0  0  0  0  0  0  0
    3.4142   -4.4888    4.6162 C   0  0  1  0  0  0  0  0  0  0  0  0
    4.9825   -4.2412    4.6978 C   0  0  0  0  0  0  0  0  0  0  0  0
    5.7931   -3.9886    6.0130 C   0  0  0  0  0  0  0  0  0  0  0  0
    6.1368   -5.1456    6.9944 C   0  0  2  0  0  0  0  0  0  0  0  0
    6.3568   -6.5159    6.3348 C   0  0  0  0  0  0  0  0  0  0  0  0
    5.1263   -7.3894    6.5726 C   0  0  0  0  0  0  0  0  0  0  0  0
    3.8059   -6.5527    6.6750 C   0  0  2  0  0  0  0  0  0  0  0  0
    3.2257   -6.0211    5.2380 C   0  0  1  0  0  0  0  0  0  0  0  0
    1.9025   -6.4086    5.4059 O   0  0  0  0  0  0  0  0  0  0  0  0
    3.5614   -7.0960    4.1481 C   0  0  0  0  0  0  0  0  0  0  0  0
    2.7635   -7.0217    2.8383 C   0  0  1  0  0  0  0  0  0  0  0  0
    1.3657   -7.6616    2.8776 C   0  0  0  0  0  0  0  0  0  0  0  0
    0.2047   -6.8633    2.9942 C   0  0  0  0  0  0  0  0  0  0  0  0
   -1.0727   -7.4532    3.0506 C   0  0  0  0  0  0  0  0  0  0  0  0
   -1.2049   -8.8487    2.9850 C   0  0  0  0  0  0  0  0  0  0  0  0
   -0.0587   -9.6545    2.8769 C   0  0  0  0  0  0  0  0  0  0  0  0
    1.2225   -9.0664    2.8225 C   0  0  0  0  0  0  0  0  0  0  0  0
    2.7930   -5.6212    2.2747 C   0  0  0  0  0  0  0  0  0  0  0  0
    2.5095   -5.4999    0.8963 C   0  0  0  0  0  0  0  0  0  0  0  0
    2.6186   -4.2723    0.2356 C   0  0  0  0  0  0  0  0  0  0  0  0
    3.0619   -3.1557    0.9583 C   0  0  0  0  0  0  0  0  0  0  0  0
    3.3365   -3.2806    2.3288 C   0  0  0  0  0  0  0  0  0  0  0  0
    3.1535   -4.4810    3.0595 C   0  0  0  0  0  0  0  0  0  0  0  0
    3.7964   -5.6708    7.9525 N   0  0  2  0  0  0  0  0  0  0  0  0
    3.3220   -6.4632    9.1308 C   0  0  0  0  0  0  0  0  0  0  0  0
    5.2354   -5.3072    8.2515 C   0  0  0  0  0  0  0  0  0  0  0  0
    1.9087   -0.9754    2.7490 H   0  0  0  0  0  0  0  0  0  0  0  0
    3.4705   -0.2521    2.3247 H   0  0  0  0  0  0  0  0  0  0  0  0
    2.0558    0.7546    2.5204 H   0  0  0  0  0  0  0  0  0  0  0  0
    4.1696    1.5118    5.5120 H   0  0  0  0  0  0  0  0  0  0  0  0
    3.1693    2.2405    4.2506 H   0  0  0  0  0  0  0  0  0  0  0  0
    4.5989    1.3221    3.8299 H   0  0  0  0  0  0  0  0  0  0  0  0
    0.9300   -0.6302    5.0105 H   0  0  0  0  0  0  0  0  0  0  0  0
    2.3085    1.5190    6.6621 H   0  0  0  0  0  0  0  0  0  0  0  0
    0.1879    0.3506    7.9991 H   0  0  0  0  0  0  0  0  0  0  0  0
    1.1988   -1.6177    8.6830 H   0  0  0  0  0  0  0  0  0  0  0  0
    3.6735   -1.0362    7.5127 H   0  0  0  0  0  0  0  0  0  0  0  0
    4.4642   -2.8678    8.3609 H   0  0  0  0  0  0  0  0  0  0  0  0
    3.0517   -2.7848    9.2808 H   0  0  0  0  0  0  0  0  0  0  0  0
    3.4342   -4.3089    6.9599 H   0  0  0  0  0  0  0  0  0  0  0  0
    1.1265   -3.6059    8.2640 H   0  0  0  0  0  0  0  0  0  0  0  0
    0.3400   -6.3728    7.9751 H   0  0  0  0  0  0  0  0  0  0  0  0
    0.4598   -5.4002    9.4542 H   0  0  0  0  0  0  0  0  0  0  0  0
   -1.7691   -5.4416    7.6898 H   0  0  0  0  0  0  0  0  0  0  0  0
   -1.4798   -4.1686    8.8613 H   0  0  0  0  0  0  0  0  0  0  0  0
   -1.5476   -3.6843    6.0937 H   0  0  0  0  0  0  0  0  0  0  0  0
   -0.6995   -2.6697    7.2338 H   0  0  0  0  0  0  0  0  0  0  0  0
    0.2128   -5.0248    5.7595 H   0  0  0  0  0  0  0  0  0  0  0  0
    5.4934   -5.0232    4.1442 H   0  0  0  0  0  0  0  0  0  0  0  0
    5.2347   -3.3880    4.0798 H   0  0  0  0  0  0  0  0  0  0  0  0
    6.7662   -3.6262    5.6769 H   0  0  0  0  0  0  0  0  0  0  0  0
    5.4288   -3.1197    6.5429 H   0  0  0  0  0  0  0  0  0  0  0  0
    7.1104   -4.8758    7.3966 H   0  0  0  0  0  0  0  0  0  0  0  0
    6.5798   -6.4328    5.2700 H   0  0  0  0  0  0  0  0  0  0  0  0
    7.2286   -7.0154    6.7705 H   0  0  0  0  0  0  0  0  0  0  0  0
    5.0949   -8.1995    5.8522 H   0  0  0  0  0  0  0  0  0  0  0  0
    5.2762   -7.9210    7.5154 H   0  0  0  0  0  0  0  0  0  0  0  0
    3.1425   -7.3737    6.9509 H   0  0  0  0  0  0  0  0  0  0  0  0
    1.5086   -5.8758    6.0797 H   0  0  0  0  0  0  0  0  0  0  0  0
    4.6122   -6.9842    3.8729 H   0  0  0  0  0  0  0  0  0  0  0  0
    3.4651   -8.1174    4.5215 H   0  0  0  0  0  0  0  0  0  0  0  0
    3.3233   -7.6296    2.1223 H   0  0  0  0  0  0  0  0  0  0  0  0
    0.2979   -5.7930    3.0763 H   0  0  0  0  0  0  0  0  0  0  0  0
   -1.9518   -6.8395    3.1664 H   0  0  0  0  0  0  0  0  0  0  0  0
   -2.1830   -9.3090    3.0388 H   0  0  0  0  0  0  0  0  0  0  0  0
   -0.1639  -10.7278    2.8326 H   0  0  0  0  0  0  0  0  0  0  0  0
    2.0913   -9.7037    2.7434 H   0  0  0  0  0  0  0  0  0  0  0  0
    2.2103   -6.3667    0.3273 H   0  0  0  0  0  0  0  0  0  0  0  0
    2.4116   -4.1859   -0.8213 H   0  0  0  0  0  0  0  0  0  0  0  0
    3.1879   -2.2065    0.4630 H   0  0  0  0  0  0  0  0  0  0  0  0
    3.7236   -2.4120    2.8166 H   0  0  0  0  0  0  0  0  0  0  0  0
    3.9556   -7.3308    9.3260 H   0  0  0  0  0  0  0  0  0  0  0  0
    2.3205   -6.8607    8.9978 H   0  0  0  0  0  0  0  0  0  0  0  0
    3.3278   -5.8523   10.0343 H   0  0  0  0  0  0  0  0  0  0  0  0
    5.6998   -6.1225    8.8105 H   0  0  0  0  0  0  0  0  0  0  0  0
    5.3630   -4.5113    8.9766 H   0  0  0  0  0  0  0  0  0  0  0  0
  1  2  1  0
  1 47  1  0
  1 48  1  0
  1 49  1  0
  2 19  1  0
  2  3  1  0
  2  4  1  0
  3 50  1  0
  3 51  1  0
  3 52  1  0
  4  5  2  3
  4 53  1  0
  5  6  1  0
  5 54  1  0
  6  7  2  3
  6 55  1  0
  7  8  1  0
  7 56  1  0
  8 18  1  0
  8  9  1  0
  8 57  1  1
  9 10  1  0
  9 58  1  0
  9 59  1  0
 10 44  1  0
 10 11  1  0
 10 60  1  6
 11 15  1  0
 11 12  1  0
 11 61  1  1
 12 13  1  0
 12 62  1  0
 12 63  1  0
 13 14  1  0
 13 64  1  0
 13 65  1  0
 14 15  1  0
 14 66  1  0
 14 67  1  0
 15 16  1  0
 15 68  1  6
 16 17  2  3
 17 18  1  0
 17 21  1  0
 18 19  1  0
 19 20  2  0
 21 28  1  0
 21 43  1  6
 21 22  1  0
 22 23  1  0
 22 69  1  0
 22 70  1  0
 23 24  1  0
 23 71  1  0
 23 72  1  0
 24 46  1  0
 24 25  1  0
 24 73  1  1
 25 26  1  0
 25 74  1  0
 25 75  1  0
 26 27  1  0
 26 76  1  0
 26 77  1  0
 27 28  1  0
 27 44  1  0
 27 78  1  1
 28 29  1  1
 28 30  1  0
 29 79  1  0
 30 31  1  0
 30 80  1  0
 30 81  1  0
 31 32  1  0
 31 38  1  0
 31 82  1  6
 32 37  1  0
 32 33  2  0
 33 34  1  0
 33 83  1  0
 34 35  2  0
 34 84  1  0
 35 36  1  0
 35 85  1  0
 36 37  2  0
 36 86  1  0
 37 87  1  0
 38 43  2  0
 38 39  1  0
 39 40  2  0
 39 88  1  0
 40 41  1  0
 40 89  1  0
 41 42  2  0
 41 90  1  0
 42 43  1  0
 42 91  1  0
 44 45  1  1
 44 46  1  0
 45 92  1  0
 45 93  1  0
 45 94  1  0
 46 95  1  0
 46 96  1  0
M  CHG  1  44   1
M  END
>  <i_m_ct_stereo_status>  (132) 
1

>  <s_m_source_file>  (132) 
/var/tmp/pbs.5076255.sched01/tmpqm933_o1/456x1pmp19.sdf

>  <i_m_source_file_index>  (132) 
9

>  <i_lp_mmshare_version>  (132) 
48012

>  <i_f3d_flags>  (132) 
0

>  <s_epik_input>  (132) 
Tz1DMUMoW0NIM10pKFtDSDNdKS9bQ0hdPVtDSF1cW0NIXT1bQ0hdL1tDQEhdKE4xL0MyW0NAQF0zNDUpW0NIMl1bQ0hdKFtDQEhdNltDQEhdKC9OPTIpW0NIMl1bQ0gyXVtDSDJdNilbTkBAK103KFtDSDNdKVtDQEhdKFtDSDJdW0NIMl1bQ0BIXShbQ0gyXTcpW0NIMl1bQ0gyXTMpW0NAXTQoW09IXSlbQ0gyXVtDQEBIXShjOFtjSF1bY0hdW2NIXVtjSF1bY0hdOCljOWM1W2NIXVtjSF1bY0hdW2NIXTk=

>  <s_epik_cmdline>  (132) 
J2VwaWtfcHl0aG9uJywgJy1waHQnLCAnMi4wJywgJy1waCcsICc3LjAnLCAnLXRuJywgJzgnLCAnLW1hJywgJzIwMCcsICctaW1hZScsICc8aW5maWxlLm1hZT4nLCAnLW9tYWUnLCAnPG91dGZpbGUubWFlPic=

>  <r_lp_tautomer_probability>  (132) 
1

>  <r_epik_Ionization_Penalty>  (132) 
0.0248322

>  <r_epik_Ionization_Penalty_Charging>  (132) 
0

>  <r_epik_Ionization_Penalty_Neutral>  (132) 
0.0248322

>  <r_epik_State_Penalty>  (132) 
0.0199713

>  <r_epik_Charging_Adjusted_Penalty>  (132) 
0.0199713

>  <i_epik_Tot_Q>  (132) 
1

>  <i_epik_Tot_abs_Q>  (132) 
1

>  <s_epik_Chemistry_Notes>  (132) 
This compound has an imine and may undergo hydrolysis.

>  <s_lp_Force_Field>  (132) 
OPLS3e

>  <r_lp_Energy>  (132) 
310.565

>  <b_lp_Chiralities_Consistent>  (132) 
1

>  <s_lp_Variant>  (132) 
33:0-6

>  <s_i_glide_gridfile>  (132) 
pfpi4k_grid

>  <i_i_glide_lignum>  (132) 
9

>  <i_i_glide_rotatable_bonds>  (132) 
2

>  <r_i_docking_score>  (132) 
-1.28214

>  <r_i_glide_ligand_efficiency>  (132) 
-0.0278727

>  <r_i_glide_ligand_efficiency_sa>  (132) 
-0.0998692

>  <r_i_glide_ligand_efficiency_ln>  (132) 
-0.265529

>  <r_i_glide_gscore>  (132) 
-1.28214

>  <r_i_glide_lipo>  (132) 
-0.0138872

>  <r_i_glide_hbond>  (132) 
0

>  <r_i_glide_metal>  (132) 
-0

>  <r_i_glide_rewards>  (132) 
0

>  <r_i_glide_evdw>  (132) 
-27.4368

>  <r_i_glide_ecoul>  (132) 
0.321186

>  <r_i_glide_erotb>  (132) 
0.0554054

>  <r_i_glide_esite>  (132) 
0

>  <r_i_glide_emodel>  (132) 
-29.0981

>  <r_i_glide_energy>  (132) 
-27.1156

>  <r_i_glide_einternal>  (132) 
0.510593

>  <r_i_glide_intrahb_reward>  (132) 
-0

>  <i_i_glide_confnum>  (132) 
4

>  <i_i_glide_posenum>  (132) 
31

>  <r_i_glide_eff_state_penalty>  (132) 
0

>  <ligand_id>  (132) 
33

>  <original_smiles>  (132) 
CC1(C)C=CC=CC2CC3C4CCCC4N=C(N2C1=O)C12CCC4CCC(C1(O)CC(c1ccccc1)c1ccccc12)[N+]3(C)C4

>  <smiles>  (132) 
[H]OC12C([H])([H])C([H])(c3c([H])c([H])c([H])c([H])c3[H])c3c([H])c([H])c([H])c([H])c3C13C1=NC4([H])C([H])([H])C([H])([H])C([H])([H])C4([H])C([H])(C([H])([H])C4([H])C([H])=C([H])C([H])=C([H])C(C([H])([H])[H])(C([H])([H])[H])C(=O)N14)[N+]1(C([H])([H])[H])C([H])([H])C([H])(C([H])([H])C3([H])[H])C([H])([H])C([H])([H])C21[H]

$$$$
33:6:0
     RDKit          3D

 96104  0  0  1  0  0  0  0  0999 V2000
    0.8236   -3.8366    5.3975 C   0  0  0  0  0  0  0  0  0  0  0  0
    1.6602   -4.1612    6.6535 C   0  0  0  0  0  0  0  0  0  0  0  0
    2.0540   -2.7794    7.2344 C   0  0  0  0  0  0  0  0  0  0  0  0
    0.6783   -4.8011    7.6692 C   0  0  0  0  0  0  0  0  0  0  0  0
    0.5264   -6.0829    8.0867 C   0  0  0  0  0  0  0  0  0  0  0  0
    1.3549   -7.1739    7.6372 C   0  0  0  0  0  0  0  0  0  0  0  0
    1.5364   -7.3503    6.3187 C   0  0  0  0  0  0  0  0  0  0  0  0
    2.9509   -7.2694    5.7747 C   0  0  1  0  0  0  0  0  0  0  0  0
    3.4081   -8.5286    4.9401 C   0  0  0  0  0  0  0  0  0  0  0  0
    3.6373   -8.2615    3.4260 C   0  0  2  0  0  0  0  0  0  0  0  0
    2.2298   -7.8845    2.7956 C   0  0  2  0  0  0  0  0  0  0  0  0
    1.4325   -8.7318    1.8054 C   0  0  0  0  0  0  0  0  0  0  0  0
    0.0795   -7.9795    1.6972 C   0  0  0  0  0  0  0  0  0  0  0  0
    0.2927   -6.6007    2.3290 C   0  0  0  0  0  0  0  0  0  0  0  0
    1.8159   -6.4533    2.4001 C   0  0  1  0  0  0  0  0  0  0  0  0
    2.2093   -5.3572    3.2860 N   0  0  0  0  0  0  0  0  0  0  0  0
    3.2966   -5.3992    3.9949 C   0  0  0  0  0  0  0  0  0  0  0  0
    3.1876   -5.8201    5.3530 N   0  0  0  0  0  0  0  0  0  0  0  0
    3.0181   -4.9267    6.3717 C   0  0  0  0  0  0  0  0  0  0  0  0
    3.9095   -4.8425    7.2231 O   0  0  0  0  0  0  0  0  0  0  0  0
    4.8057   -5.1394    3.4136 C   0  0  1  0  0  0  0  0  0  0  0  0
    5.9670   -5.4845    4.4464 C   0  0  0  0  0  0  0  0  0  0  0  0
    6.3362   -6.8963    5.0129 C   0  0  0  0  0  0  0  0  0  0  0  0
    6.9364   -8.0306    4.1316 C   0  0  2  0  0  0  0  0  0  0  0  0
    7.8488   -7.5644    2.9857 C   0  0  0  0  0  0  0  0  0  0  0  0
    7.1024   -7.7287    1.6588 C   0  0  0  0  0  0  0  0  0  0  0  0
    5.5633   -7.4770    1.8267 C   0  0  2  0  0  0  0  0  0  0  0  0
    5.1929   -5.8849    1.9963 C   0  0  1  0  0  0  0  0  0  0  0  0
    4.1684   -5.7822    1.0618 O   0  0  0  0  0  0  0  0  0  0  0  0
    6.2444   -5.0256    1.2159 C   0  0  0  0  0  0  0  0  0  0  0  0
    5.8635   -3.5748    0.9010 C   0  0  1  0  0  0  0  0  0  0  0  0
    5.0334   -3.3881   -0.3775 C   0  0  0  0  0  0  0  0  0  0  0  0
    5.6708   -3.4381   -1.6363 C   0  0  0  0  0  0  0  0  0  0  0  0
    4.9314   -3.2889   -2.8260 C   0  0  0  0  0  0  0  0  0  0  0  0
    3.5418   -3.0810   -2.7678 C   0  0  0  0  0  0  0  0  0  0  0  0
    2.8954   -3.0482   -1.5209 C   0  0  0  0  0  0  0  0  0  0  0  0
    3.6351   -3.1845   -0.3316 C   0  0  0  0  0  0  0  0  0  0  0  0
    5.3360   -2.8637    2.1180 C   0  0  0  0  0  0  0  0  0  0  0  0
    5.3629   -1.4523    2.0715 C   0  0  0  0  0  0  0  0  0  0  0  0
    4.9976   -0.6830    3.1815 C   0  0  0  0  0  0  0  0  0  0  0  0
    4.6490   -1.3350    4.3678 C   0  0  0  0  0  0  0  0  0  0  0  0
    4.6295   -2.7373    4.4130 C   0  0  0  0  0  0  0  0  0  0  0  0
    4.9135   -3.5643    3.2927 C   0  0  0  0  0  0  0  0  0  0  0  0
    4.9043   -8.6249    2.6581 N   0  0  2  0  0  0  0  0  0  0  0  0
    4.5696   -9.7772    1.7626 C   0  0  0  0  0  0  0  0  0  0  0  0
    5.9661   -9.1295    3.6102 C   0  0  0  0  0  0  0  0  0  0  0  0
    0.4088   -4.7385    4.9493 H   0  0  0  0  0  0  0  0  0  0  0  0
    1.4047   -3.2876    4.6543 H   0  0  0  0  0  0  0  0  0  0  0  0
   -0.0309   -3.2070    5.6454 H   0  0  0  0  0  0  0  0  0  0  0  0
    2.5947   -2.8625    8.1787 H   0  0  0  0  0  0  0  0  0  0  0  0
    1.1795   -2.1575    7.4232 H   0  0  0  0  0  0  0  0  0  0  0  0
    2.6845   -2.2170    6.5464 H   0  0  0  0  0  0  0  0  0  0  0  0
    0.0018   -4.0864    8.1161 H   0  0  0  0  0  0  0  0  0  0  0  0
   -0.2296   -6.2906    8.8231 H   0  0  0  0  0  0  0  0  0  0  0  0
    2.1700   -7.4226    8.3022 H   0  0  0  0  0  0  0  0  0  0  0  0
    0.7789   -6.9705    5.6454 H   0  0  0  0  0  0  0  0  0  0  0  0
    3.5845   -7.3873    6.6583 H   0  0  0  0  0  0  0  0  0  0  0  0
    4.2508   -8.9371    5.4779 H   0  0  0  0  0  0  0  0  0  0  0  0
    2.6779   -9.3300    5.0528 H   0  0  0  0  0  0  0  0  0  0  0  0
    4.2186   -7.4451    3.6804 H   0  0  0  0  0  0  0  0  0  0  0  0
    1.5933   -8.0485    3.6584 H   0  0  0  0  0  0  0  0  0  0  0  0
    1.9136   -8.7142    0.8363 H   0  0  0  0  0  0  0  0  0  0  0  0
    1.2961   -9.7694    2.1100 H   0  0  0  0  0  0  0  0  0  0  0  0
   -0.2287   -7.8423    0.6575 H   0  0  0  0  0  0  0  0  0  0  0  0
   -0.7222   -8.5088    2.2121 H   0  0  0  0  0  0  0  0  0  0  0  0
   -0.1718   -5.8430    1.7149 H   0  0  0  0  0  0  0  0  0  0  0  0
   -0.1512   -6.5586    3.3256 H   0  0  0  0  0  0  0  0  0  0  0  0
    2.0224   -6.2369    1.3587 H   0  0  0  0  0  0  0  0  0  0  0  0
    6.8980   -5.0694    4.0672 H   0  0  0  0  0  0  0  0  0  0  0  0
    5.7989   -4.8977    5.3470 H   0  0  0  0  0  0  0  0  0  0  0  0
    7.1174   -6.6855    5.7495 H   0  0  0  0  0  0  0  0  0  0  0  0
    5.5570   -7.2718    5.6536 H   0  0  0  0  0  0  0  0  0  0  0  0
    7.5996   -8.5639    4.8062 H   0  0  0  0  0  0  0  0  0  0  0  0
    8.1779   -6.5321    3.1267 H   0  0  0  0  0  0  0  0  0  0  0  0
    8.7681   -8.1612    2.9496 H   0  0  0  0  0  0  0  0  0  0  0  0
    7.5892   -7.1424    0.8887 H   0  0  0  0  0  0  0  0  0  0  0  0
    7.2603   -8.7505    1.3030 H   0  0  0  0  0  0  0  0  0  0  0  0
    5.2462   -7.7176    0.8126 H   0  0  0  0  0  0  0  0  0  0  0  0
    4.4971   -5.9841    0.1960 H   0  0  0  0  0  0  0  0  0  0  0  0
    7.1475   -4.9720    1.8273 H   0  0  0  0  0  0  0  0  0  0  0  0
    6.5509   -5.4736    0.2694 H   0  0  0  0  0  0  0  0  0  0  0  0
    6.8110   -3.0735    0.6889 H   0  0  0  0  0  0  0  0  0  0  0  0
    6.7341   -3.6047   -1.6952 H   0  0  0  0  0  0  0  0  0  0  0  0
    5.4275   -3.3629   -3.7801 H   0  0  0  0  0  0  0  0  0  0  0  0
    2.9609   -2.9851   -3.6738 H   0  0  0  0  0  0  0  0  0  0  0  0
    1.8259   -2.9097   -1.4812 H   0  0  0  0  0  0  0  0  0  0  0  0
    3.1219   -3.1477    0.6171 H   0  0  0  0  0  0  0  0  0  0  0  0
    5.6761   -0.9457    1.1727 H   0  0  0  0  0  0  0  0  0  0  0  0
    5.0190    0.3970    3.1454 H   0  0  0  0  0  0  0  0  0  0  0  0
    4.4007   -0.7627    5.2464 H   0  0  0  0  0  0  0  0  0  0  0  0
    4.4130   -3.1567    5.3701 H   0  0  0  0  0  0  0  0  0  0  0  0
    5.4518  -10.1791    1.2608 H   0  0  0  0  0  0  0  0  0  0  0  0
    3.8796   -9.5022    0.9704 H   0  0  0  0  0  0  0  0  0  0  0  0
    4.1263  -10.5954    2.3322 H   0  0  0  0  0  0  0  0  0  0  0  0
    6.6100   -9.8363    3.0859 H   0  0  0  0  0  0  0  0  0  0  0  0
    5.6094   -9.7958    4.3878 H   0  0  0  0  0  0  0  0  0  0  0  0
  1  2  1  0
  1 47  1  0
  1 48  1  0
  1 49  1  0
  2 19  1  0
  2  3  1  0
  2  4  1  0
  3 50  1  0
  3 51  1  0
  3 52  1  0
  4  5  2  3
  4 53  1  0
  5  6  1  0
  5 54  1  0
  6  7  2  3
  6 55  1  0
  7  8  1  0
  7 56  1  0
  8 18  1  0
  8  9  1  0
  8 57  1  1
  9 10  1  0
  9 58  1  0
  9 59  1  0
 10 44  1  0
 10 11  1  0
 10 60  1  1
 11 15  1  0
 11 12  1  0
 11 61  1  1
 12 13  1  0
 12 62  1  0
 12 63  1  0
 13 14  1  0
 13 64  1  0
 13 65  1  0
 14 15  1  0
 14 66  1  0
 14 67  1  0
 15 16  1  0
 15 68  1  6
 16 17  2  3
 17 18  1  0
 17 21  1  0
 18 19  1  0
 19 20  2  0
 21 28  1  0
 21 43  1  6
 21 22  1  0
 22 23  1  0
 22 69  1  0
 22 70  1  0
 23 24  1  0
 23 71  1  0
 23 72  1  0
 24 46  1  0
 24 25  1  0
 24 73  1  1
 25 26  1  0
 25 74  1  0
 25 75  1  0
 26 27  1  0
 26 76  1  0
 26 77  1  0
 27 28  1  0
 27 44  1  0
 27 78  1  6
 28 29  1  6
 28 30  1  0
 29 79  1  0
 30 31  1  0
 30 80  1  0
 30 81  1  0
 31 32  1  0
 31 38  1  0
 31 82  1  6
 32 37  1  0
 32 33  2  0
 33 34  1  0
 33 83  1  0
 34 35  2  0
 34 84  1  0
 35 36  1  0
 35 85  1  0
 36 37  2  0
 36 86  1  0
 37 87  1  0
 38 43  2  0
 38 39  1  0
 39 40  2  0
 39 88  1  0
 40 41  1  0
 40 89  1  0
 41 42  2  0
 41 90  1  0
 42 43  1  0
 42 91  1  0
 44 45  1  6
 44 46  1  0
 45 92  1  0
 45 93  1  0
 45 94  1  0
 46 95  1  0
 46 96  1  0
M  CHG  1  44   1
M  END
>  <i_m_ct_stereo_status>  (133) 
1

>  <s_m_source_file>  (133) 
/var/tmp/pbs.5076255.sched01/tmpqm933_o1/456x1pmp19.sdf

>  <i_m_source_file_index>  (133) 
10

>  <i_lp_mmshare_version>  (133) 
48012

>  <i_f3d_flags>  (133) 
0

>  <s_epik_input>  (133) 
Tz1DMUMoW0NIM10pKFtDSDNdKS9bQ0hdPVtDSF1cW0NIXT1bQ0hdL1tDQEhdKE4xL0MyW0NAQF0zNDUpW0NIMl1bQ0hdKFtDQEhdNltDQEhdKC9OPTIpW0NIMl1bQ0gyXVtDSDJdNilbTkBAK103KFtDSDNdKVtDQEhdKFtDSDJdW0NIMl1bQ0BIXShbQ0gyXTcpW0NIMl1bQ0gyXTMpW0NAXTQoW09IXSlbQ0gyXVtDQEBIXShjOFtjSF1bY0hdW2NIXVtjSF1bY0hdOCljOWM1W2NIXVtjSF1bY0hdW2NIXTk=

>  <s_epik_cmdline>  (133) 
J2VwaWtfcHl0aG9uJywgJy1waHQnLCAnMi4wJywgJy1waCcsICc3LjAnLCAnLXRuJywgJzgnLCAnLW1hJywgJzIwMCcsICctaW1hZScsICc8aW5maWxlLm1hZT4nLCAnLW9tYWUnLCAnPG91dGZpbGUubWFlPic=

>  <r_lp_tautomer_probability>  (133) 
1

>  <r_epik_Ionization_Penalty>  (133) 
0.0248322

>  <r_epik_Ionization_Penalty_Charging>  (133) 
0

>  <r_epik_Ionization_Penalty_Neutral>  (133) 
0.0248322

>  <r_epik_State_Penalty>  (133) 
0.0199713

>  <r_epik_Charging_Adjusted_Penalty>  (133) 
0.0199713

>  <i_epik_Tot_Q>  (133) 
1

>  <i_epik_Tot_abs_Q>  (133) 
1

>  <s_epik_Chemistry_Notes>  (133) 
This compound has an imine and may undergo hydrolysis.

>  <s_lp_Force_Field>  (133) 
OPLS3e

>  <r_lp_Energy>  (133) 
311.292

>  <b_lp_Chiralities_Consistent>  (133) 
1

>  <s_lp_Variant>  (133) 
33:0-7

>  <s_i_glide_gridfile>  (133) 
pfpi4k_grid

>  <i_i_glide_lignum>  (133) 
10

>  <i_i_glide_rotatable_bonds>  (133) 
2

>  <r_i_docking_score>  (133) 
-2.56498

>  <r_i_glide_ligand_efficiency>  (133) 
-0.0557605

>  <r_i_glide_ligand_efficiency_sa>  (133) 
-0.199793

>  <r_i_glide_ligand_efficiency_ln>  (133) 
-0.531202

>  <r_i_glide_gscore>  (133) 
-2.56498

>  <r_i_glide_lipo>  (133) 
-1.09021

>  <r_i_glide_hbond>  (133) 
0

>  <r_i_glide_metal>  (133) 
-0

>  <r_i_glide_rewards>  (133) 
0

>  <r_i_glide_evdw>  (133) 
-33.1944

>  <r_i_glide_ecoul>  (133) 
0.900419

>  <r_i_glide_erotb>  (133) 
0.0554054

>  <r_i_glide_esite>  (133) 
-0.00552142

>  <r_i_glide_emodel>  (133) 
-37.7231

>  <r_i_glide_energy>  (133) 
-32.294

>  <r_i_glide_einternal>  (133) 
0.162603

>  <r_i_glide_intrahb_reward>  (133) 
-0

>  <i_i_glide_confnum>  (133) 
1

>  <i_i_glide_posenum>  (133) 
15

>  <r_i_glide_eff_state_penalty>  (133) 
0

>  <ligand_id>  (133) 
33

>  <original_smiles>  (133) 
CC1(C)C=CC=CC2CC3C4CCCC4N=C(N2C1=O)C12CCC4CCC(C1(O)CC(c1ccccc1)c1ccccc12)[N+]3(C)C4

>  <smiles>  (133) 
[H]OC12C([H])([H])C([H])(c3c([H])c([H])c([H])c([H])c3[H])c3c([H])c([H])c([H])c([H])c3C13C1=NC4([H])C([H])([H])C([H])([H])C([H])([H])C4([H])C([H])(C([H])([H])C4([H])C([H])=C([H])C([H])=C([H])C(C([H])([H])[H])(C([H])([H])[H])C(=O)N14)[N+]1(C([H])([H])[H])C([H])([H])C([H])(C([H])([H])C3([H])[H])C([H])([H])C([H])([H])C21[H]

$$$$
33:6:1
     RDKit          3D

 96104  0  0  1  0  0  0  0  0999 V2000
    0.8643   -3.9224    5.5340 C   0  0  0  0  0  0  0  0  0  0  0  0
    1.7070   -4.2695    6.7788 C   0  0  0  0  0  0  0  0  0  0  0  0
    2.1094   -2.8981    7.3806 C   0  0  0  0  0  0  0  0  0  0  0  0
    0.7309   -4.9254    7.7909 C   0  0  0  0  0  0  0  0  0  0  0  0
    0.5794   -6.2139    8.1876 C   0  0  0  0  0  0  0  0  0  0  0  0
    1.4002   -7.3010    7.7141 C   0  0  0  0  0  0  0  0  0  0  0  0
    1.5709   -7.4560    6.3914 C   0  0  0  0  0  0  0  0  0  0  0  0
    2.9820   -7.3657    5.8385 C   0  0  1  0  0  0  0  0  0  0  0  0
    3.4316   -8.6128    4.9802 C   0  0  0  0  0  0  0  0  0  0  0  0
    3.6480   -8.3214    3.4676 C   0  0  2  0  0  0  0  0  0  0  0  0
    2.2387   -7.9263    2.8544 C   0  0  2  0  0  0  0  0  0  0  0  0
    1.4328   -8.7517    1.8523 C   0  0  0  0  0  0  0  0  0  0  0  0
    0.0809   -7.9922    1.7665 C   0  0  0  0  0  0  0  0  0  0  0  0
    0.3039   -6.6241    2.4235 C   0  0  0  0  0  0  0  0  0  0  0  0
    1.8289   -6.4864    2.4849 C   0  0  1  0  0  0  0  0  0  0  0  0
    2.2425   -5.3991    3.3742 N   0  0  0  0  0  0  0  0  0  0  0  0
    3.3249   -5.4668    4.0862 C   0  0  0  0  0  0  0  0  0  0  0  0
    3.2162   -5.9146    5.4408 N   0  0  0  0  0  0  0  0  0  0  0  0
    3.0604   -5.0355    6.4746 C   0  0  0  0  0  0  0  0  0  0  0  0
    3.9565   -4.9703    7.3196 O   0  0  0  0  0  0  0  0  0  0  0  0
    4.8317   -5.1975    3.5066 C   0  0  1  0  0  0  0  0  0  0  0  0
    5.9996   -5.5600    4.5217 C   0  0  0  0  0  0  0  0  0  0  0  0
    6.3665   -6.9839    5.0589 C   0  0  0  0  0  0  0  0  0  0  0  0
    6.9577   -8.1066    4.1524 C   0  0  2  0  0  0  0  0  0  0  0  0
    7.8599   -7.6208    3.0076 C   0  0  0  0  0  0  0  0  0  0  0  0
    7.1039   -7.7625    1.6847 C   0  0  0  0  0  0  0  0  0  0  0  0
    5.5667   -7.5072    1.8662 C   0  0  2  0  0  0  0  0  0  0  0  0
    5.2106   -5.9210    2.0774 C   0  0  1  0  0  0  0  0  0  0  0  0
    4.1901   -5.7937    1.1433 O   0  0  0  0  0  0  0  0  0  0  0  0
    6.2559   -5.0482    1.3021 C   0  0  0  0  0  0  0  0  0  0  0  0
    5.8796   -3.5908    1.0106 C   0  0  1  0  0  0  0  0  0  0  0  0
    5.0359   -3.3823   -0.2568 C   0  0  0  0  0  0  0  0  0  0  0  0
    5.6687   -3.3846   -1.5197 C   0  0  0  0  0  0  0  0  0  0  0  0
    4.9220   -3.2207   -2.7021 C   0  0  0  0  0  0  0  0  0  0  0  0
    3.5276   -3.0570   -2.6330 C   0  0  0  0  0  0  0  0  0  0  0  0
    2.8884   -3.0540   -1.3822 C   0  0  0  0  0  0  0  0  0  0  0  0
    3.6348   -3.2026   -0.1979 C   0  0  0  0  0  0  0  0  0  0  0  0
    5.3539   -2.9011    2.2420 C   0  0  0  0  0  0  0  0  0  0  0  0
    5.3797   -1.4902    2.2181 C   0  0  0  0  0  0  0  0  0  0  0  0
    5.0242   -0.7382    3.3421 C   0  0  0  0  0  0  0  0  0  0  0  0
    4.6835   -1.4103    4.5216 C   0  0  0  0  0  0  0  0  0  0  0  0
    4.6620   -2.8141    4.5425 C   0  0  0  0  0  0  0  0  0  0  0  0
    4.9360   -3.6207    3.4071 C   0  0  0  0  0  0  0  0  0  0  0  0
    4.9119   -8.6708    2.6830 N   0  0  2  0  0  0  0  0  0  0  0  0
    4.5698   -9.8054    1.7715 C   0  0  0  0  0  0  0  0  0  0  0  0
    5.9793   -9.1945    3.6195 C   0  0  0  0  0  0  0  0  0  0  0  0
    0.4459   -4.8154    5.0716 H   0  0  0  0  0  0  0  0  0  0  0  0
    1.4400   -3.3613    4.7961 H   0  0  0  0  0  0  0  0  0  0  0  0
    0.0121   -3.2956    5.7976 H   0  0  0  0  0  0  0  0  0  0  0  0
    2.6563   -2.9976    8.3196 H   0  0  0  0  0  0  0  0  0  0  0  0
    1.2381   -2.2767    7.5869 H   0  0  0  0  0  0  0  0  0  0  0  0
    2.7362   -2.3241    6.6987 H   0  0  0  0  0  0  0  0  0  0  0  0
    0.0582   -4.2178    8.2542 H   0  0  0  0  0  0  0  0  0  0  0  0
   -0.1741   -6.4315    8.9261 H   0  0  0  0  0  0  0  0  0  0  0  0
    2.2181   -7.5649    8.3699 H   0  0  0  0  0  0  0  0  0  0  0  0
    0.8096   -7.0647    5.7309 H   0  0  0  0  0  0  0  0  0  0  0  0
    3.6202   -7.4998    6.7160 H   0  0  0  0  0  0  0  0  0  0  0  0
    4.2777   -9.0310    5.5049 H   0  0  0  0  0  0  0  0  0  0  0  0
    2.7016   -9.4159    5.0865 H   0  0  0  0  0  0  0  0  0  0  0  0
    4.2345   -7.5109    3.7273 H   0  0  0  0  0  0  0  0  0  0  0  0
    1.6056   -8.1077    3.7181 H   0  0  0  0  0  0  0  0  0  0  0  0
    1.9102   -8.7146    0.8817 H   0  0  0  0  0  0  0  0  0  0  0  0
    1.2972   -9.7958    2.1351 H   0  0  0  0  0  0  0  0  0  0  0  0
   -0.2341   -7.8429    0.7333 H   0  0  0  0  0  0  0  0  0  0  0  0
   -0.7171   -8.5327    2.2783 H   0  0  0  0  0  0  0  0  0  0  0  0
   -0.1607   -5.8457    1.8330 H   0  0  0  0  0  0  0  0  0  0  0  0
   -0.1358   -6.5998    3.4225 H   0  0  0  0  0  0  0  0  0  0  0  0
    2.0365   -6.2625    1.4451 H   0  0  0  0  0  0  0  0  0  0  0  0
    6.9241   -5.1300    4.1494 H   0  0  0  0  0  0  0  0  0  0  0  0
    5.8355   -4.9952    5.4359 H   0  0  0  0  0  0  0  0  0  0  0  0
    7.1500   -6.7946    5.7972 H   0  0  0  0  0  0  0  0  0  0  0  0
    5.5889   -7.3729    5.6967 H   0  0  0  0  0  0  0  0  0  0  0  0
    7.6254   -8.6543    4.8129 H   0  0  0  0  0  0  0  0  0  0  0  0
    8.1957   -6.5961    3.1680 H   0  0  0  0  0  0  0  0  0  0  0  0
    8.7749   -8.2208    2.9533 H   0  0  0  0  0  0  0  0  0  0  0  0
    7.5867   -7.1704    0.9144 H   0  0  0  0  0  0  0  0  0  0  0  0
    7.2540   -8.7766    1.3120 H   0  0  0  0  0  0  0  0  0  0  0  0
    5.2357   -7.7208    0.8496 H   0  0  0  0  0  0  0  0  0  0  0  0
    4.0224   -4.8727    1.0138 H   0  0  0  0  0  0  0  0  0  0  0  0
    7.1631   -5.0095    1.9066 H   0  0  0  0  0  0  0  0  0  0  0  0
    6.5482   -5.4844    0.3460 H   0  0  0  0  0  0  0  0  0  0  0  0
    6.8245   -3.0861    0.7957 H   0  0  0  0  0  0  0  0  0  0  0  0
    6.7364   -3.5245   -1.5904 H   0  0  0  0  0  0  0  0  0  0  0  0
    5.4160   -3.2386   -3.6606 H   0  0  0  0  0  0  0  0  0  0  0  0
    2.9407   -2.9333   -3.5320 H   0  0  0  0  0  0  0  0  0  0  0  0
    1.8167   -2.9349   -1.3345 H   0  0  0  0  0  0  0  0  0  0  0  0
    3.1140   -3.1868    0.7483 H   0  0  0  0  0  0  0  0  0  0  0  0
    5.6942   -0.9678    1.3258 H   0  0  0  0  0  0  0  0  0  0  0  0
    5.0533    0.3410    3.3226 H   0  0  0  0  0  0  0  0  0  0  0  0
    4.4471   -0.8531    5.4124 H   0  0  0  0  0  0  0  0  0  0  0  0
    4.4526   -3.2495    5.4952 H   0  0  0  0  0  0  0  0  0  0  0  0
    5.4468  -10.2034    1.2561 H   0  0  0  0  0  0  0  0  0  0  0  0
    3.8738   -9.5179    0.9880 H   0  0  0  0  0  0  0  0  0  0  0  0
    4.1282  -10.6337    2.3301 H   0  0  0  0  0  0  0  0  0  0  0  0
    6.6175   -9.8961    3.0791 H   0  0  0  0  0  0  0  0  0  0  0  0
    5.6249   -9.8741    4.3857 H   0  0  0  0  0  0  0  0  0  0  0  0
  1  2  1  0
  1 47  1  0
  1 48  1  0
  1 49  1  0
  2 19  1  0
  2  3  1  0
  2  4  1  0
  3 50  1  0
  3 51  1  0
  3 52  1  0
  4  5  2  3
  4 53  1  0
  5  6  1  0
  5 54  1  0
  6  7  2  3
  6 55  1  0
  7  8  1  0
  7 56  1  0
  8 18  1  0
  8  9  1  0
  8 57  1  1
  9 10  1  0
  9 58  1  0
  9 59  1  0
 10 44  1  0
 10 11  1  0
 10 60  1  1
 11 15  1  0
 11 12  1  0
 11 61  1  1
 12 13  1  0
 12 62  1  0
 12 63  1  0
 13 14  1  0
 13 64  1  0
 13 65  1  0
 14 15  1  0
 14 66  1  0
 14 67  1  0
 15 16  1  0
 15 68  1  6
 16 17  2  3
 17 18  1  0
 17 21  1  0
 18 19  1  0
 19 20  2  0
 21 28  1  0
 21 43  1  6
 21 22  1  0
 22 23  1  0
 22 69  1  0
 22 70  1  0
 23 24  1  0
 23 71  1  0
 23 72  1  0
 24 46  1  0
 24 25  1  0
 24 73  1  1
 25 26  1  0
 25 74  1  0
 25 75  1  0
 26 27  1  0
 26 76  1  0
 26 77  1  0
 27 28  1  0
 27 44  1  0
 27 78  1  6
 28 29  1  6
 28 30  1  0
 29 79  1  0
 30 31  1  0
 30 80  1  0
 30 81  1  0
 31 32  1  0
 31 38  1  0
 31 82  1  6
 32 37  1  0
 32 33  2  0
 33 34  1  0
 33 83  1  0
 34 35  2  0
 34 84  1  0
 35 36  1  0
 35 85  1  0
 36 37  2  0
 36 86  1  0
 37 87  1  0
 38 43  2  0
 38 39  1  0
 39 40  2  0
 39 88  1  0
 40 41  1  0
 40 89  1  0
 41 42  2  0
 41 90  1  0
 42 43  1  0
 42 91  1  0
 44 45  1  6
 44 46  1  0
 45 92  1  0
 45 93  1  0
 45 94  1  0
 46 95  1  0
 46 96  1  0
M  CHG  1  44   1
M  END
>  <i_m_ct_stereo_status>  (134) 
1

>  <s_m_source_file>  (134) 
/var/tmp/pbs.5076255.sched01/tmpqm933_o1/456x1pmp19.sdf

>  <i_m_source_file_index>  (134) 
10

>  <i_lp_mmshare_version>  (134) 
48012

>  <i_f3d_flags>  (134) 
0

>  <s_epik_input>  (134) 
Tz1DMUMoW0NIM10pKFtDSDNdKS9bQ0hdPVtDSF1cW0NIXT1bQ0hdL1tDQEhdKE4xL0MyW0NAQF0zNDUpW0NIMl1bQ0hdKFtDQEhdNltDQEhdKC9OPTIpW0NIMl1bQ0gyXVtDSDJdNilbTkBAK103KFtDSDNdKVtDQEhdKFtDSDJdW0NIMl1bQ0BIXShbQ0gyXTcpW0NIMl1bQ0gyXTMpW0NAXTQoW09IXSlbQ0gyXVtDQEBIXShjOFtjSF1bY0hdW2NIXVtjSF1bY0hdOCljOWM1W2NIXVtjSF1bY0hdW2NIXTk=

>  <s_epik_cmdline>  (134) 
J2VwaWtfcHl0aG9uJywgJy1waHQnLCAnMi4wJywgJy1waCcsICc3LjAnLCAnLXRuJywgJzgnLCAnLW1hJywgJzIwMCcsICctaW1hZScsICc8aW5maWxlLm1hZT4nLCAnLW9tYWUnLCAnPG91dGZpbGUubWFlPic=

>  <r_lp_tautomer_probability>  (134) 
1

>  <r_epik_Ionization_Penalty>  (134) 
0.0248322

>  <r_epik_Ionization_Penalty_Charging>  (134) 
0

>  <r_epik_Ionization_Penalty_Neutral>  (134) 
0.0248322

>  <r_epik_State_Penalty>  (134) 
0.0199713

>  <r_epik_Charging_Adjusted_Penalty>  (134) 
0.0199713

>  <i_epik_Tot_Q>  (134) 
1

>  <i_epik_Tot_abs_Q>  (134) 
1

>  <s_epik_Chemistry_Notes>  (134) 
This compound has an imine and may undergo hydrolysis.

>  <s_lp_Force_Field>  (134) 
OPLS3e

>  <r_lp_Energy>  (134) 
311.292

>  <b_lp_Chiralities_Consistent>  (134) 
1

>  <s_lp_Variant>  (134) 
33:0-7

>  <s_i_glide_gridfile>  (134) 
pfpi4k_grid

>  <i_i_glide_lignum>  (134) 
10

>  <i_i_glide_rotatable_bonds>  (134) 
2

>  <r_i_docking_score>  (134) 
-2.51605

>  <r_i_glide_ligand_efficiency>  (134) 
-0.0546967

>  <r_i_glide_ligand_efficiency_sa>  (134) 
-0.195981

>  <r_i_glide_ligand_efficiency_ln>  (134) 
-0.521067

>  <r_i_glide_gscore>  (134) 
-2.51605

>  <r_i_glide_lipo>  (134) 
-1.04238

>  <r_i_glide_hbond>  (134) 
0

>  <r_i_glide_metal>  (134) 
-0

>  <r_i_glide_rewards>  (134) 
0

>  <r_i_glide_evdw>  (134) 
-32.8813

>  <r_i_glide_ecoul>  (134) 
0.807384

>  <r_i_glide_erotb>  (134) 
0.0554054

>  <r_i_glide_esite>  (134) 
-0.00611114

>  <r_i_glide_emodel>  (134) 
-37.3728

>  <r_i_glide_energy>  (134) 
-32.074

>  <r_i_glide_einternal>  (134) 
0.232663

>  <r_i_glide_intrahb_reward>  (134) 
-0

>  <i_i_glide_confnum>  (134) 
1

>  <i_i_glide_posenum>  (134) 
23

>  <r_i_glide_eff_state_penalty>  (134) 
0

>  <ligand_id>  (134) 
33

>  <original_smiles>  (134) 
CC1(C)C=CC=CC2CC3C4CCCC4N=C(N2C1=O)C12CCC4CCC(C1(O)CC(c1ccccc1)c1ccccc12)[N+]3(C)C4

>  <smiles>  (134) 
[H]OC12C([H])([H])C([H])(c3c([H])c([H])c([H])c([H])c3[H])c3c([H])c([H])c([H])c([H])c3C13C1=NC4([H])C([H])([H])C([H])([H])C([H])([H])C4([H])C([H])(C([H])([H])C4([H])C([H])=C([H])C([H])=C([H])C(C([H])([H])[H])(C([H])([H])[H])C(=O)N14)[N+]1(C([H])([H])[H])C([H])([H])C([H])(C([H])([H])C3([H])[H])C([H])([H])C([H])([H])C21[H]

$$$$
33:6:2
     RDKit          3D

 96104  0  0  1  0  0  0  0  0999 V2000
    0.9270   -3.9275    5.5813 C   0  0  0  0  0  0  0  0  0  0  0  0
    1.7805   -4.2727    6.8201 C   0  0  0  0  0  0  0  0  0  0  0  0
    2.1839   -2.9003    7.4186 C   0  0  0  0  0  0  0  0  0  0  0  0
    0.8126   -4.9303    7.8399 C   0  0  0  0  0  0  0  0  0  0  0  0
    0.6671   -6.2191    8.2365 C   0  0  0  0  0  0  0  0  0  0  0  0
    1.4862   -7.3037    7.7586 C   0  0  0  0  0  0  0  0  0  0  0  0
    1.6471   -7.4582    6.4321 C   0  0  0  0  0  0  0  0  0  0  0  0
    3.0529   -7.3666    5.8691 C   0  0  1  0  0  0  0  0  0  0  0  0
    3.4963   -8.6118    5.0058 C   0  0  0  0  0  0  0  0  0  0  0  0
    3.7034   -8.3223    3.4913 C   0  0  2  0  0  0  0  0  0  0  0  0
    2.2909   -7.9279    2.8810 C   0  0  2  0  0  0  0  0  0  0  0  0
    1.4793   -8.7481    1.8741 C   0  0  0  0  0  0  0  0  0  0  0  0
    0.1225   -7.9939    1.8168 C   0  0  0  0  0  0  0  0  0  0  0  0
    0.3459   -6.6252    2.4774 C   0  0  0  0  0  0  0  0  0  0  0  0
    1.8719   -6.4880    2.5227 C   0  0  1  0  0  0  0  0  0  0  0  0
    2.2968   -5.4020    3.4063 N   0  0  0  0  0  0  0  0  0  0  0  0
    3.3808   -5.4675    4.1151 C   0  0  0  0  0  0  0  0  0  0  0  0
    3.2810   -5.9140    5.4685 N   0  0  0  0  0  0  0  0  0  0  0  0
    3.1316   -5.0361    6.5057 C   0  0  0  0  0  0  0  0  0  0  0  0
    4.0337   -4.9724    7.3448 O   0  0  0  0  0  0  0  0  0  0  0  0
    4.8827   -5.1976    3.5222 C   0  0  1  0  0  0  0  0  0  0  0  0
    6.0583   -5.5579    4.5311 C   0  0  0  0  0  0  0  0  0  0  0  0
    6.4303   -6.9826    5.0634 C   0  0  0  0  0  0  0  0  0  0  0  0
    7.0167   -8.1040    4.1529 C   0  0  2  0  0  0  0  0  0  0  0  0
    7.9102   -7.6176    3.0007 C   0  0  0  0  0  0  0  0  0  0  0  0
    7.1449   -7.7590    1.6836 C   0  0  0  0  0  0  0  0  0  0  0  0
    5.6101   -7.5086    1.8786 C   0  0  2  0  0  0  0  0  0  0  0  0
    5.2471   -5.9208    2.0865 C   0  0  1  0  0  0  0  0  0  0  0  0
    4.2310   -5.7970    1.1409 O   0  0  0  0  0  0  0  0  0  0  0  0
    6.2869   -5.0457    1.3086 C   0  0  0  0  0  0  0  0  0  0  0  0
    5.9007   -3.5894    1.0219 C   0  0  1  0  0  0  0  0  0  0  0  0
    5.0516   -3.3744   -0.2416 C   0  0  0  0  0  0  0  0  0  0  0  0
    5.6765   -3.3644   -1.5093 C   0  0  0  0  0  0  0  0  0  0  0  0
    4.9174   -3.1996   -2.6840 C   0  0  0  0  0  0  0  0  0  0  0  0
    3.5211   -3.0428   -2.6017 C   0  0  0  0  0  0  0  0  0  0  0  0
    2.8918   -3.0581   -1.3472 C   0  0  0  0  0  0  0  0  0  0  0  0
    3.6509   -3.2054   -0.1708 C   0  0  0  0  0  0  0  0  0  0  0  0
    5.3879   -2.8990    2.2577 C   0  0  0  0  0  0  0  0  0  0  0  0
    5.4144   -1.4866    2.2337 C   0  0  0  0  0  0  0  0  0  0  0  0
    5.0666   -0.7358    3.3632 C   0  0  0  0  0  0  0  0  0  0  0  0
    4.7363   -1.4087    4.5429 C   0  0  0  0  0  0  0  0  0  0  0  0
    4.7182   -2.8132    4.5654 C   0  0  0  0  0  0  0  0  0  0  0  0
    4.9838   -3.6198    3.4263 C   0  0  0  0  0  0  0  0  0  0  0  0
    4.9626   -8.6724    2.6999 N   0  0  2  0  0  0  0  0  0  0  0  0
    4.6125   -9.8077    1.7887 C   0  0  0  0  0  0  0  0  0  0  0  0
    6.0377   -9.1941    3.6277 C   0  0  0  0  0  0  0  0  0  0  0  0
    0.5086   -4.8213    5.1222 H   0  0  0  0  0  0  0  0  0  0  0  0
    1.4969   -3.3651    4.8399 H   0  0  0  0  0  0  0  0  0  0  0  0
    0.0759   -3.3030    5.8513 H   0  0  0  0  0  0  0  0  0  0  0  0
    2.7388   -2.9979    8.3532 H   0  0  0  0  0  0  0  0  0  0  0  0
    1.3147   -2.2799    7.6329 H   0  0  0  0  0  0  0  0  0  0  0  0
    2.8056   -2.3256    6.7332 H   0  0  0  0  0  0  0  0  0  0  0  0
    0.1436   -4.2239    8.3098 H   0  0  0  0  0  0  0  0  0  0  0  0
   -0.0781   -6.4385    8.9829 H   0  0  0  0  0  0  0  0  0  0  0  0
    2.3098   -7.5658    8.4054 H   0  0  0  0  0  0  0  0  0  0  0  0
    0.8796   -7.0683    5.7797 H   0  0  0  0  0  0  0  0  0  0  0  0
    3.6982   -7.4994    6.7419 H   0  0  0  0  0  0  0  0  0  0  0  0
    4.3480   -9.0289    5.5250 H   0  0  0  0  0  0  0  0  0  0  0  0
    2.7686   -9.4161    5.1184 H   0  0  0  0  0  0  0  0  0  0  0  0
    4.2895   -7.5119    3.7501 H   0  0  0  0  0  0  0  0  0  0  0  0
    1.6636   -8.1136    3.7489 H   0  0  0  0  0  0  0  0  0  0  0  0
    1.9309   -8.7153    0.8829 H   0  0  0  0  0  0  0  0  0  0  0  0
    1.3454   -9.7913    2.1646 H   0  0  0  0  0  0  0  0  0  0  0  0
   -0.2059   -7.8516    0.7861 H   0  0  0  0  0  0  0  0  0  0  0  0
   -0.6674   -8.5372    2.3348 H   0  0  0  0  0  0  0  0  0  0  0  0
   -0.1204   -5.8402    1.8965 H   0  0  0  0  0  0  0  0  0  0  0  0
   -0.0865   -6.6028    3.4805 H   0  0  0  0  0  0  0  0  0  0  0  0
    2.0608   -6.2547    1.4807 H   0  0  0  0  0  0  0  0  0  0  0  0
    6.9787   -5.1279    4.1517 H   0  0  0  0  0  0  0  0  0  0  0  0
    5.9007   -4.9930    5.4461 H   0  0  0  0  0  0  0  0  0  0  0  0
    7.2185   -6.7915    5.7964 H   0  0  0  0  0  0  0  0  0  0  0  0
    5.6570   -7.3715    5.7062 H   0  0  0  0  0  0  0  0  0  0  0  0
    7.6901   -8.6493    4.8085 H   0  0  0  0  0  0  0  0  0  0  0  0
    8.2456   -6.5915    3.1592 H   0  0  0  0  0  0  0  0  0  0  0  0
    8.8248   -8.2171    2.9380 H   0  0  0  0  0  0  0  0  0  0  0  0
    7.6177   -7.1625    0.9120 H   0  0  0  0  0  0  0  0  0  0  0  0
    7.2952   -8.7726    1.3063 H   0  0  0  0  0  0  0  0  0  0  0  0
    5.2796   -7.7290    0.8639 H   0  0  0  0  0  0  0  0  0  0  0  0
    3.4758   -6.2815    1.4307 H   0  0  0  0  0  0  0  0  0  0  0  0
    7.1990   -5.0038    1.9062 H   0  0  0  0  0  0  0  0  0  0  0  0
    6.5715   -5.4783    0.3484 H   0  0  0  0  0  0  0  0  0  0  0  0
    6.8432   -3.0845    0.8010 H   0  0  0  0  0  0  0  0  0  0  0  0
    6.7435   -3.4976   -1.5866 H   0  0  0  0  0  0  0  0  0  0  0  0
    5.4052   -3.2112   -3.6453 H   0  0  0  0  0  0  0  0  0  0  0  0
    2.9272   -2.9267   -3.4972 H   0  0  0  0  0  0  0  0  0  0  0  0
    1.8202   -2.9466   -1.2869 H   0  0  0  0  0  0  0  0  0  0  0  0
    3.1488   -3.2192    0.7843 H   0  0  0  0  0  0  0  0  0  0  0  0
    5.7177   -0.9643    1.3391 H   0  0  0  0  0  0  0  0  0  0  0  0
    5.0958    0.3442    3.3434 H   0  0  0  0  0  0  0  0  0  0  0  0
    4.5081   -0.8521    5.4368 H   0  0  0  0  0  0  0  0  0  0  0  0
    4.5158   -3.2476    5.5181 H   0  0  0  0  0  0  0  0  0  0  0  0
    5.4861  -10.2045    1.2666 H   0  0  0  0  0  0  0  0  0  0  0  0
    3.9105   -9.5176    1.0116 H   0  0  0  0  0  0  0  0  0  0  0  0
    4.1740  -10.6348    2.3514 H   0  0  0  0  0  0  0  0  0  0  0  0
    6.6720   -9.8932    3.0800 H   0  0  0  0  0  0  0  0  0  0  0  0
    5.6877   -9.8736    4.3964 H   0  0  0  0  0  0  0  0  0  0  0  0
  1  2  1  0
  1 47  1  0
  1 48  1  0
  1 49  1  0
  2 19  1  0
  2  3  1  0
  2  4  1  0
  3 50  1  0
  3 51  1  0
  3 52  1  0
  4  5  2  3
  4 53  1  0
  5  6  1  0
  5 54  1  0
  6  7  2  3
  6 55  1  0
  7  8  1  0
  7 56  1  0
  8 18  1  0
  8  9  1  0
  8 57  1  1
  9 10  1  0
  9 58  1  0
  9 59  1  0
 10 44  1  0
 10 11  1  0
 10 60  1  1
 11 15  1  0
 11 12  1  0
 11 61  1  1
 12 13  1  0
 12 62  1  0
 12 63  1  0
 13 14  1  0
 13 64  1  0
 13 65  1  0
 14 15  1  0
 14 66  1  0
 14 67  1  0
 15 16  1  0
 15 68  1  6
 16 17  2  3
 17 18  1  0
 17 21  1  0
 18 19  1  0
 19 20  2  0
 21 28  1  0
 21 43  1  6
 21 22  1  0
 22 23  1  0
 22 69  1  0
 22 70  1  0
 23 24  1  0
 23 71  1  0
 23 72  1  0
 24 46  1  0
 24 25  1  0
 24 73  1  1
 25 26  1  0
 25 74  1  0
 25 75  1  0
 26 27  1  0
 26 76  1  0
 26 77  1  0
 27 28  1  0
 27 44  1  0
 27 78  1  6
 28 29  1  6
 28 30  1  0
 29 79  1  0
 30 31  1  0
 30 80  1  0
 30 81  1  0
 31 32  1  0
 31 38  1  0
 31 82  1  6
 32 37  1  0
 32 33  2  0
 33 34  1  0
 33 83  1  0
 34 35  2  0
 34 84  1  0
 35 36  1  0
 35 85  1  0
 36 37  2  0
 36 86  1  0
 37 87  1  0
 38 43  2  0
 38 39  1  0
 39 40  2  0
 39 88  1  0
 40 41  1  0
 40 89  1  0
 41 42  2  0
 41 90  1  0
 42 43  1  0
 42 91  1  0
 44 45  1  6
 44 46  1  0
 45 92  1  0
 45 93  1  0
 45 94  1  0
 46 95  1  0
 46 96  1  0
M  CHG  1  44   1
M  END
>  <i_m_ct_stereo_status>  (135) 
1

>  <s_m_source_file>  (135) 
/var/tmp/pbs.5076255.sched01/tmpqm933_o1/456x1pmp19.sdf

>  <i_m_source_file_index>  (135) 
10

>  <i_lp_mmshare_version>  (135) 
48012

>  <i_f3d_flags>  (135) 
0

>  <s_epik_input>  (135) 
Tz1DMUMoW0NIM10pKFtDSDNdKS9bQ0hdPVtDSF1cW0NIXT1bQ0hdL1tDQEhdKE4xL0MyW0NAQF0zNDUpW0NIMl1bQ0hdKFtDQEhdNltDQEhdKC9OPTIpW0NIMl1bQ0gyXVtDSDJdNilbTkBAK103KFtDSDNdKVtDQEhdKFtDSDJdW0NIMl1bQ0BIXShbQ0gyXTcpW0NIMl1bQ0gyXTMpW0NAXTQoW09IXSlbQ0gyXVtDQEBIXShjOFtjSF1bY0hdW2NIXVtjSF1bY0hdOCljOWM1W2NIXVtjSF1bY0hdW2NIXTk=

>  <s_epik_cmdline>  (135) 
J2VwaWtfcHl0aG9uJywgJy1waHQnLCAnMi4wJywgJy1waCcsICc3LjAnLCAnLXRuJywgJzgnLCAnLW1hJywgJzIwMCcsICctaW1hZScsICc8aW5maWxlLm1hZT4nLCAnLW9tYWUnLCAnPG91dGZpbGUubWFlPic=

>  <r_lp_tautomer_probability>  (135) 
1

>  <r_epik_Ionization_Penalty>  (135) 
0.0248322

>  <r_epik_Ionization_Penalty_Charging>  (135) 
0

>  <r_epik_Ionization_Penalty_Neutral>  (135) 
0.0248322

>  <r_epik_State_Penalty>  (135) 
0.0199713

>  <r_epik_Charging_Adjusted_Penalty>  (135) 
0.0199713

>  <i_epik_Tot_Q>  (135) 
1

>  <i_epik_Tot_abs_Q>  (135) 
1

>  <s_epik_Chemistry_Notes>  (135) 
This compound has an imine and may undergo hydrolysis.

>  <s_lp_Force_Field>  (135) 
OPLS3e

>  <r_lp_Energy>  (135) 
311.292

>  <b_lp_Chiralities_Consistent>  (135) 
1

>  <s_lp_Variant>  (135) 
33:0-7

>  <s_i_glide_gridfile>  (135) 
pfpi4k_grid

>  <i_i_glide_lignum>  (135) 
10

>  <i_i_glide_rotatable_bonds>  (135) 
2

>  <r_i_docking_score>  (135) 
-2.44623

>  <r_i_glide_ligand_efficiency>  (135) 
-0.0531789

>  <r_i_glide_ligand_efficiency_sa>  (135) 
-0.190543

>  <r_i_glide_ligand_efficiency_ln>  (135) 
-0.506608

>  <r_i_glide_gscore>  (135) 
-2.44623

>  <r_i_glide_lipo>  (135) 
-1.04541

>  <r_i_glide_hbond>  (135) 
0

>  <r_i_glide_metal>  (135) 
-0

>  <r_i_glide_rewards>  (135) 
0

>  <r_i_glide_evdw>  (135) 
-32.6057

>  <r_i_glide_ecoul>  (135) 
1.19883

>  <r_i_glide_erotb>  (135) 
0.0554054

>  <r_i_glide_esite>  (135) 
-0.00576958

>  <r_i_glide_emodel>  (135) 
-36.5243

>  <r_i_glide_energy>  (135) 
-31.4069

>  <r_i_glide_einternal>  (135) 
0.255784

>  <r_i_glide_intrahb_reward>  (135) 
-0

>  <i_i_glide_confnum>  (135) 
4

>  <i_i_glide_posenum>  (135) 
24

>  <r_i_glide_eff_state_penalty>  (135) 
0

>  <ligand_id>  (135) 
33

>  <original_smiles>  (135) 
CC1(C)C=CC=CC2CC3C4CCCC4N=C(N2C1=O)C12CCC4CCC(C1(O)CC(c1ccccc1)c1ccccc12)[N+]3(C)C4

>  <smiles>  (135) 
[H]OC12C([H])([H])C([H])(c3c([H])c([H])c([H])c([H])c3[H])c3c([H])c([H])c([H])c([H])c3C13C1=NC4([H])C([H])([H])C([H])([H])C([H])([H])C4([H])C([H])(C([H])([H])C4([H])C([H])=C([H])C([H])=C([H])C(C([H])([H])[H])(C([H])([H])[H])C(=O)N14)[N+]1(C([H])([H])[H])C([H])([H])C([H])(C([H])([H])C3([H])[H])C([H])([H])C([H])([H])C21[H]

$$$$
33:7:0
     RDKit          3D

 96104  0  0  1  0  0  0  0  0999 V2000
    4.7658   -4.0308    6.1527 C   0  0  0  0  0  0  0  0  0  0  0  0
    5.8782   -4.5981    7.0616 C   0  0  0  0  0  0  0  0  0  0  0  0
    7.0101   -3.5390    7.0881 C   0  0  0  0  0  0  0  0  0  0  0  0
    5.3432   -4.8020    8.4766 C   0  0  0  0  0  0  0  0  0  0  0  0
    6.1517   -5.1123    9.5097 C   0  0  0  0  0  0  0  0  0  0  0  0
    6.1623   -6.5262    9.7931 C   0  0  0  0  0  0  0  0  0  0  0  0
    7.0412   -7.2164    9.0419 C   0  0  0  0  0  0  0  0  0  0  0  0
    6.6514   -8.0136    7.7901 C   0  0  1  0  0  0  0  0  0  0  0  0
    6.3697   -9.5422    8.1169 C   0  0  0  0  0  0  0  0  0  0  0  0
    4.9766  -10.0730    7.6948 C   0  0  2  0  0  0  0  0  0  0  0  0
    3.8659   -9.3196    8.5303 C   0  0  2  0  0  0  0  0  0  0  0  0
    2.9322   -9.9962    9.5360 C   0  0  0  0  0  0  0  0  0  0  0  0
    2.1104   -8.8194   10.1166 C   0  0  0  0  0  0  0  0  0  0  0  0
    2.3044   -7.6279    9.1592 C   0  0  0  0  0  0  0  0  0  0  0  0
    2.9474   -8.2482    7.9151 C   0  0  1  0  0  0  0  0  0  0  0  0
    3.5605   -7.2190    7.0617 N   0  0  0  0  0  0  0  0  0  0  0  0
    4.5630   -7.4893    6.2752 C   0  0  0  0  0  0  0  0  0  0  0  0
    5.8639   -7.1526    6.7792 N   0  0  0  0  0  0  0  0  0  0  0  0
    6.4322   -5.9477    6.4739 C   0  0  0  0  0  0  0  0  0  0  0  0
    7.5143   -5.9305    5.8812 O   0  0  0  0  0  0  0  0  0  0  0  0
    4.4970   -8.3672    4.8684 C   0  0  1  0  0  0  0  0  0  0  0  0
    5.9368   -8.9845    4.5396 C   0  0  0  0  0  0  0  0  0  0  0  0
    6.1372  -10.3095    3.7445 C   0  0  0  0  0  0  0  0  0  0  0  0
    5.8243  -11.6795    4.4267 C   0  0  2  0  0  0  0  0  0  0  0  0
    4.5850  -12.4509    3.9254 C   0  0  0  0  0  0  0  0  0  0  0  0
    3.4069  -12.2640    4.8830 C   0  0  0  0  0  0  0  0  0  0  0  0
    3.5709  -10.9913    5.7623 C   0  0  2  0  0  0  0  0  0  0  0  0
    3.4069   -9.5996    4.8641 C   0  0  1  0  0  0  0  0  0  0  0  0
    2.1709   -9.1341    5.3241 O   0  0  0  0  0  0  0  0  0  0  0  0
    2.8682   -9.8528    3.4016 C   0  0  0  0  0  0  0  0  0  0  0  0
    2.2685   -8.6639    2.6457 C   0  0  1  0  0  0  0  0  0  0  0  0
    0.7838   -8.3899    2.9389 C   0  0  0  0  0  0  0  0  0  0  0  0
    0.3813   -7.2459    3.6585 C   0  0  0  0  0  0  0  0  0  0  0  0
   -0.9764   -7.0124    3.9307 C   0  0  0  0  0  0  0  0  0  0  0  0
   -1.9484   -7.9059    3.4581 C   0  0  0  0  0  0  0  0  0  0  0  0
   -1.5654   -9.0528    2.7439 C   0  0  0  0  0  0  0  0  0  0  0  0
   -0.2051   -9.2948    2.4920 C   0  0  0  0  0  0  0  0  0  0  0  0
    3.1681   -7.4546    2.7332 C   0  0  0  0  0  0  0  0  0  0  0  0
    2.9373   -6.4521    1.7636 C   0  0  0  0  0  0  0  0  0  0  0  0
    3.7636   -5.3264    1.6715 C   0  0  0  0  0  0  0  0  0  0  0  0
    4.8665   -5.2355    2.5241 C   0  0  0  0  0  0  0  0  0  0  0  0
    5.0908   -6.2329    3.4863 C   0  0  0  0  0  0  0  0  0  0  0  0
    4.2259   -7.3424    3.6886 C   0  0  0  0  0  0  0  0  0  0  0  0
    4.7234  -11.2467    6.7639 N   0  0  2  0  0  0  0  0  0  0  0  0
    4.4035  -12.3746    7.7046 C   0  0  0  0  0  0  0  0  0  0  0  0
    5.9516  -11.6960    5.9722 C   0  0  0  0  0  0  0  0  0  0  0  0
    3.9137   -4.7033    6.0574 H   0  0  0  0  0  0  0  0  0  0  0  0
    5.1411   -3.8332    5.1473 H   0  0  0  0  0  0  0  0  0  0  0  0
    4.3860   -3.0852    6.5433 H   0  0  0  0  0  0  0  0  0  0  0  0
    7.9038   -3.8925    7.6058 H   0  0  0  0  0  0  0  0  0  0  0  0
    6.6843   -2.6223    7.5810 H   0  0  0  0  0  0  0  0  0  0  0  0
    7.3197   -3.2683    6.0781 H   0  0  0  0  0  0  0  0  0  0  0  0
    4.4178   -5.3497    8.4356 H   0  0  0  0  0  0  0  0  0  0  0  0
    7.1341   -4.6657    9.5274 H   0  0  0  0  0  0  0  0  0  0  0  0
    5.1807   -6.9402    9.9375 H   0  0  0  0  0  0  0  0  0  0  0  0
    7.9689   -6.6950    8.8433 H   0  0  0  0  0  0  0  0  0  0  0  0
    7.6213   -8.1035    7.2976 H   0  0  0  0  0  0  0  0  0  0  0  0
    7.2186  -10.1296    7.7845 H   0  0  0  0  0  0  0  0  0  0  0  0
    6.4587   -9.6913    9.1943 H   0  0  0  0  0  0  0  0  0  0  0  0
    5.1015   -9.6240    6.7892 H   0  0  0  0  0  0  0  0  0  0  0  0
    4.4771   -8.7481    9.2190 H   0  0  0  0  0  0  0  0  0  0  0  0
    2.2419  -10.6596    9.0204 H   0  0  0  0  0  0  0  0  0  0  0  0
    3.4574  -10.5569   10.3104 H   0  0  0  0  0  0  0  0  0  0  0  0
    1.0562   -9.0849   10.1871 H   0  0  0  0  0  0  0  0  0  0  0  0
    2.4484   -8.5523   11.1181 H   0  0  0  0  0  0  0  0  0  0  0  0
    1.3712   -7.1144    8.9256 H   0  0  0  0  0  0  0  0  0  0  0  0
    2.9654   -6.8896    9.6117 H   0  0  0  0  0  0  0  0  0  0  0  0
    2.0795   -8.7219    7.4844 H   0  0  0  0  0  0  0  0  0  0  0  0
    6.5421   -8.2459    4.0225 H   0  0  0  0  0  0  0  0  0  0  0  0
    6.5438   -9.1266    5.4224 H   0  0  0  0  0  0  0  0  0  0  0  0
    5.7534  -10.2548    2.7281 H   0  0  0  0  0  0  0  0  0  0  0  0
    7.2149  -10.3462    3.5627 H   0  0  0  0  0  0  0  0  0  0  0  0
    6.6401  -12.3079    4.0755 H   0  0  0  0  0  0  0  0  0  0  0  0
    4.3242  -12.1630    2.9071 H   0  0  0  0  0  0  0  0  0  0  0  0
    4.7988  -13.5221    3.8600 H   0  0  0  0  0  0  0  0  0  0  0  0
    2.4462  -12.3158    4.3817 H   0  0  0  0  0  0  0  0  0  0  0  0
    3.3662  -13.1560    5.4982 H   0  0  0  0  0  0  0  0  0  0  0  0
    2.7026  -11.0335    6.4197 H   0  0  0  0  0  0  0  0  0  0  0  0
    1.5406   -9.8418    5.3035 H   0  0  0  0  0  0  0  0  0  0  0  0
    3.6991  -10.1516    2.7788 H   0  0  0  0  0  0  0  0  0  0  0  0
    2.1357  -10.6521    3.3126 H   0  0  0  0  0  0  0  0  0  0  0  0
    2.2885   -8.9536    1.5926 H   0  0  0  0  0  0  0  0  0  0  0  0
    1.1097   -6.5405    4.0344 H   0  0  0  0  0  0  0  0  0  0  0  0
   -1.2653   -6.1513    4.5047 H   0  0  0  0  0  0  0  0  0  0  0  0
   -2.9871   -7.7255    3.6758 H   0  0  0  0  0  0  0  0  0  0  0  0
   -2.3159   -9.7511    2.4002 H   0  0  0  0  0  0  0  0  0  0  0  0
    0.0786  -10.1918    1.9586 H   0  0  0  0  0  0  0  0  0  0  0  0
    2.1141   -6.5483    1.0725 H   0  0  0  0  0  0  0  0  0  0  0  0
    3.5861   -4.5650    0.9253 H   0  0  0  0  0  0  0  0  0  0  0  0
    5.5514   -4.4067    2.4398 H   0  0  0  0  0  0  0  0  0  0  0  0
    5.9903   -6.1210    4.0456 H   0  0  0  0  0  0  0  0  0  0  0  0
    4.4230  -13.3644    7.2436 H   0  0  0  0  0  0  0  0  0  0  0  0
    3.4250  -12.2776    8.1707 H   0  0  0  0  0  0  0  0  0  0  0  0
    5.1422  -12.4201    8.5089 H   0  0  0  0  0  0  0  0  0  0  0  0
    6.2196  -12.7179    6.2444 H   0  0  0  0  0  0  0  0  0  0  0  0
    6.8657  -11.1621    6.1770 H   0  0  0  0  0  0  0  0  0  0  0  0
  1  2  1  0
  1 47  1  0
  1 48  1  0
  1 49  1  0
  2 19  1  0
  2  3  1  0
  2  4  1  0
  3 50  1  0
  3 51  1  0
  3 52  1  0
  4  5  2  3
  4 53  1  0
  5  6  1  0
  5 54  1  0
  6  7  2  3
  6 55  1  0
  7  8  1  0
  7 56  1  0
  8 18  1  0
  8  9  1  0
  8 57  1  6
  9 10  1  0
  9 58  1  0
  9 59  1  0
 10 44  1  0
 10 11  1  0
 10 60  1  6
 11 15  1  0
 11 12  1  0
 11 61  1  1
 12 13  1  0
 12 62  1  0
 12 63  1  0
 13 14  1  0
 13 64  1  0
 13 65  1  0
 14 15  1  0
 14 66  1  0
 14 67  1  0
 15 16  1  0
 15 68  1  6
 16 17  2  3
 17 18  1  0
 17 21  1  0
 18 19  1  0
 19 20  2  0
 21 28  1  0
 21 43  1  6
 21 22  1  0
 22 23  1  0
 22 69  1  0
 22 70  1  0
 23 24  1  0
 23 71  1  0
 23 72  1  0
 24 46  1  0
 24 25  1  0
 24 73  1  6
 25 26  1  0
 25 74  1  0
 25 75  1  0
 26 27  1  0
 26 76  1  0
 26 77  1  0
 27 28  1  0
 27 44  1  0
 27 78  1  1
 28 29  1  1
 28 30  1  0
 29 79  1  0
 30 31  1  0
 30 80  1  0
 30 81  1  0
 31 32  1  0
 31 38  1  0
 31 82  1  6
 32 37  1  0
 32 33  2  0
 33 34  1  0
 33 83  1  0
 34 35  2  0
 34 84  1  0
 35 36  1  0
 35 85  1  0
 36 37  2  0
 36 86  1  0
 37 87  1  0
 38 43  2  0
 38 39  1  0
 39 40  2  0
 39 88  1  0
 40 41  1  0
 40 89  1  0
 41 42  2  0
 41 90  1  0
 42 43  1  0
 42 91  1  0
 44 45  1  1
 44 46  1  0
 45 92  1  0
 45 93  1  0
 45 94  1  0
 46 95  1  0
 46 96  1  0
M  CHG  1  44   1
M  END
>  <i_m_ct_stereo_status>  (136) 
1

>  <s_m_source_file>  (136) 
/var/tmp/pbs.5076255.sched01/tmpqm933_o1/456x1pmp19.sdf

>  <i_m_source_file_index>  (136) 
11

>  <i_lp_mmshare_version>  (136) 
48012

>  <i_f3d_flags>  (136) 
0

>  <s_epik_input>  (136) 
Tz1DMUMoW0NIM10pKFtDSDNdKS9bQ0hdPVtDSF1cW0NIXT1bQ0hdL1tDQEhdKE4xL0MyW0NAQF0zNDUpW0NIMl1bQ0hdKFtDQEhdNltDQEhdKC9OPTIpW0NIMl1bQ0gyXVtDSDJdNilbTkBAK103KFtDSDNdKVtDQEhdKFtDSDJdW0NIMl1bQ0BIXShbQ0gyXTcpW0NIMl1bQ0gyXTMpW0NAXTQoW09IXSlbQ0gyXVtDQEBIXShjOFtjSF1bY0hdW2NIXVtjSF1bY0hdOCljOWM1W2NIXVtjSF1bY0hdW2NIXTk=

>  <s_epik_cmdline>  (136) 
J2VwaWtfcHl0aG9uJywgJy1waHQnLCAnMi4wJywgJy1waCcsICc3LjAnLCAnLXRuJywgJzgnLCAnLW1hJywgJzIwMCcsICctaW1hZScsICc8aW5maWxlLm1hZT4nLCAnLW9tYWUnLCAnPG91dGZpbGUubWFlPic=

>  <r_lp_tautomer_probability>  (136) 
1

>  <r_epik_Ionization_Penalty>  (136) 
0.0248322

>  <r_epik_Ionization_Penalty_Charging>  (136) 
0

>  <r_epik_Ionization_Penalty_Neutral>  (136) 
0.0248322

>  <r_epik_State_Penalty>  (136) 
0.0199713

>  <r_epik_Charging_Adjusted_Penalty>  (136) 
0.0199713

>  <i_epik_Tot_Q>  (136) 
1

>  <i_epik_Tot_abs_Q>  (136) 
1

>  <s_epik_Chemistry_Notes>  (136) 
This compound has an imine and may undergo hydrolysis.

>  <s_lp_Force_Field>  (136) 
OPLS3e

>  <r_lp_Energy>  (136) 
354.672

>  <b_lp_Chiralities_Consistent>  (136) 
1

>  <s_lp_Variant>  (136) 
33:0-8

>  <s_i_glide_gridfile>  (136) 
pfpi4k_grid

>  <i_i_glide_lignum>  (136) 
11

>  <i_i_glide_rotatable_bonds>  (136) 
2

>  <r_i_docking_score>  (136) 
-1.89494

>  <r_i_glide_ligand_efficiency>  (136) 
-0.0411943

>  <r_i_glide_ligand_efficiency_sa>  (136) 
-0.147601

>  <r_i_glide_ligand_efficiency_ln>  (136) 
-0.392438

>  <r_i_glide_gscore>  (136) 
-1.89494

>  <r_i_glide_lipo>  (136) 
-0.090894

>  <r_i_glide_hbond>  (136) 
0

>  <r_i_glide_metal>  (136) 
-0

>  <r_i_glide_rewards>  (136) 
0

>  <r_i_glide_evdw>  (136) 
-24.2444

>  <r_i_glide_ecoul>  (136) 
-4.04221

>  <r_i_glide_erotb>  (136) 
0.0554054

>  <r_i_glide_esite>  (136) 
-0.0408989

>  <r_i_glide_emodel>  (136) 
-32.1813

>  <r_i_glide_energy>  (136) 
-28.2866

>  <r_i_glide_einternal>  (136) 
0.540519

>  <r_i_glide_intrahb_reward>  (136) 
-0

>  <i_i_glide_confnum>  (136) 
3

>  <i_i_glide_posenum>  (136) 
37

>  <r_i_glide_eff_state_penalty>  (136) 
0

>  <ligand_id>  (136) 
33

>  <original_smiles>  (136) 
CC1(C)C=CC=CC2CC3C4CCCC4N=C(N2C1=O)C12CCC4CCC(C1(O)CC(c1ccccc1)c1ccccc12)[N+]3(C)C4

>  <smiles>  (136) 
[H]OC12C([H])([H])C([H])(c3c([H])c([H])c([H])c([H])c3[H])c3c([H])c([H])c([H])c([H])c3C13C1=NC4([H])C([H])([H])C([H])([H])C([H])([H])C4([H])C([H])(C([H])([H])C4([H])C([H])=C([H])C([H])=C([H])C(C([H])([H])[H])(C([H])([H])[H])C(=O)N14)[N+]1(C([H])([H])[H])C([H])([H])C([H])(C([H])([H])C3([H])[H])C([H])([H])C([H])([H])C21[H]

$$$$
33:7:1
     RDKit          3D

 96104  0  0  1  0  0  0  0  0999 V2000
    3.2005   -2.2008    0.7064 C   0  0  0  0  0  0  0  0  0  0  0  0
    3.7494   -1.1289    1.6728 C   0  0  0  0  0  0  0  0  0  0  0  0
    4.6639   -0.2017    0.8299 C   0  0  0  0  0  0  0  0  0  0  0  0
    2.5979   -0.3144    2.2644 C   0  0  0  0  0  0  0  0  0  0  0  0
    2.8113    0.7927    3.0035 C   0  0  0  0  0  0  0  0  0  0  0  0
    2.7731    0.5339    4.4211 C   0  0  0  0  0  0  0  0  0  0  0  0
    3.9489    0.1128    4.9246 C   0  0  0  0  0  0  0  0  0  0  0  0
    4.2736   -1.3612    5.2049 C   0  0  1  0  0  0  0  0  0  0  0  0
    3.9600   -1.7667    6.7094 C   0  0  0  0  0  0  0  0  0  0  0  0
    2.9905   -2.9585    6.8930 C   0  0  2  0  0  0  0  0  0  0  0  0
    1.5673   -2.5604    6.3316 C   0  0  2  0  0  0  0  0  0  0  0  0
    0.3021   -2.4388    7.1856 C   0  0  0  0  0  0  0  0  0  0  0  0
   -0.7669   -1.9523    6.1716 C   0  0  0  0  0  0  0  0  0  0  0  0
   -0.1952   -2.2049    4.7646 C   0  0  0  0  0  0  0  0  0  0  0  0
    1.0069   -3.1184    5.0106 C   0  0  1  0  0  0  0  0  0  0  0  0
    1.8944   -3.1625    3.8378 N   0  0  0  0  0  0  0  0  0  0  0  0
    3.1663   -3.3957    3.9547 C   0  0  0  0  0  0  0  0  0  0  0  0
    4.0292   -2.2477    3.9644 N   0  0  0  0  0  0  0  0  0  0  0  0
    4.5949   -1.8023    2.8055 C   0  0  0  0  0  0  0  0  0  0  0  0
    5.8139   -1.7558    2.7173 O   0  0  0  0  0  0  0  0  0  0  0  0
    3.8577   -4.8646    4.3024 C   0  0  1  0  0  0  0  0  0  0  0  0
    5.3080   -4.6591    4.9453 C   0  0  0  0  0  0  0  0  0  0  0  0
    5.9521   -5.6662    5.9458 C   0  0  0  0  0  0  0  0  0  0  0  0
    5.4302   -5.7462    7.4168 C   0  0  2  0  0  0  0  0  0  0  0  0
    4.6392   -7.0113    7.8194 C   0  0  0  0  0  0  0  0  0  0  0  0
    3.1303   -6.7459    7.8214 C   0  0  0  0  0  0  0  0  0  0  0  0
    2.7744   -5.5130    6.9394 C   0  0  2  0  0  0  0  0  0  0  0  0
    2.9899   -5.8241    5.3208 C   0  0  1  0  0  0  0  0  0  0  0  0
    1.6595   -5.8845    4.9024 O   0  0  0  0  0  0  0  0  0  0  0  0
    3.2523   -7.3436    4.9982 C   0  0  0  0  0  0  0  0  0  0  0  0
    3.0266   -7.8142    3.5569 C   0  0  1  0  0  0  0  0  0  0  0  0
    1.5910   -8.2323    3.2229 C   0  0  0  0  0  0  0  0  0  0  0  0
    1.1396   -9.5082    3.6225 C   0  0  0  0  0  0  0  0  0  0  0  0
   -0.1772   -9.9093    3.3471 C   0  0  0  0  0  0  0  0  0  0  0  0
   -1.0699   -9.0496    2.6849 C   0  0  0  0  0  0  0  0  0  0  0  0
   -0.6263   -7.7810    2.2757 C   0  0  0  0  0  0  0  0  0  0  0  0
    0.6978   -7.3772    2.5346 C   0  0  0  0  0  0  0  0  0  0  0  0
    3.6749   -6.8873    2.5693 C   0  0  0  0  0  0  0  0  0  0  0  0
    3.8942   -7.4359    1.2856 C   0  0  0  0  0  0  0  0  0  0  0  0
    4.5955   -6.7187    0.3113 C   0  0  0  0  0  0  0  0  0  0  0  0
    5.1423   -5.4806    0.6419 C   0  0  0  0  0  0  0  0  0  0  0  0
    4.9258   -4.9439    1.9208 C   0  0  0  0  0  0  0  0  0  0  0  0
    4.1305   -5.5802    2.9157 C   0  0  0  0  0  0  0  0  0  0  0  0
    3.3034   -4.2404    7.6499 N   0  0  2  0  0  0  0  0  0  0  0  0
    2.6278   -4.0339    8.9767 C   0  0  0  0  0  0  0  0  0  0  0  0
    4.7864   -4.4469    7.9588 C   0  0  0  0  0  0  0  0  0  0  0  0
    2.5449   -2.9189    1.1984 H   0  0  0  0  0  0  0  0  0  0  0  0
    4.0099   -2.7578    0.2331 H   0  0  0  0  0  0  0  0  0  0  0  0
    2.6220   -1.7410   -0.0954 H   0  0  0  0  0  0  0  0  0  0  0  0
    5.2018    0.5193    1.4430 H   0  0  0  0  0  0  0  0  0  0  0  0
    4.0938    0.3616    0.0949 H   0  0  0  0  0  0  0  0  0  0  0  0
    5.4176   -0.7657    0.2794 H   0  0  0  0  0  0  0  0  0  0  0  0
    1.8472   -0.9860    2.6484 H   0  0  0  0  0  0  0  0  0  0  0  0
    3.6298    1.4316    2.7122 H   0  0  0  0  0  0  0  0  0  0  0  0
    1.8750    0.0350    4.7359 H   0  0  0  0  0  0  0  0  0  0  0  0
    4.8205    0.5811    4.4833 H   0  0  0  0  0  0  0  0  0  0  0  0
    5.3651   -1.3251    5.2412 H   0  0  0  0  0  0  0  0  0  0  0  0
    4.8979   -1.8327    7.2511 H   0  0  0  0  0  0  0  0  0  0  0  0
    3.5190   -0.9081    7.2173 H   0  0  0  0  0  0  0  0  0  0  0  0
    3.5164   -3.4727    6.1882 H   0  0  0  0  0  0  0  0  0  0  0  0
    1.7240   -1.5135    6.1012 H   0  0  0  0  0  0  0  0  0  0  0  0
    0.0001   -3.4137    7.5652 H   0  0  0  0  0  0  0  0  0  0  0  0
    0.4156   -1.7518    8.0252 H   0  0  0  0  0  0  0  0  0  0  0  0
   -1.7027   -2.4955    6.3011 H   0  0  0  0  0  0  0  0  0  0  0  0
   -0.9787   -0.8897    6.2931 H   0  0  0  0  0  0  0  0  0  0  0  0
   -0.9180   -2.6547    4.0890 H   0  0  0  0  0  0  0  0  0  0  0  0
    0.1119   -1.2663    4.3048 H   0  0  0  0  0  0  0  0  0  0  0  0
    0.4866   -4.0433    5.1982 H   0  0  0  0  0  0  0  0  0  0  0  0
    6.0431   -4.5342    4.1567 H   0  0  0  0  0  0  0  0  0  0  0  0
    5.4130   -3.7058    5.4441 H   0  0  0  0  0  0  0  0  0  0  0  0
    6.1160   -6.6487    5.5061 H   0  0  0  0  0  0  0  0  0  0  0  0
    6.9813   -5.3091    6.0508 H   0  0  0  0  0  0  0  0  0  0  0  0
    6.3480   -5.8609    7.9870 H   0  0  0  0  0  0  0  0  0  0  0  0
    4.8965   -7.8543    7.1765 H   0  0  0  0  0  0  0  0  0  0  0  0
    4.9268   -7.3378    8.8235 H   0  0  0  0  0  0  0  0  0  0  0  0
    2.5574   -7.6324    7.5755 H   0  0  0  0  0  0  0  0  0  0  0  0
    2.8241   -6.5956    8.8547 H   0  0  0  0  0  0  0  0  0  0  0  0
    1.7001   -5.4105    7.0897 H   0  0  0  0  0  0  0  0  0  0  0  0
    1.2457   -6.6420    5.2880 H   0  0  0  0  0  0  0  0  0  0  0  0
    4.2990   -7.5539    5.1653 H   0  0  0  0  0  0  0  0  0  0  0  0
    2.7107   -8.0536    5.6195 H   0  0  0  0  0  0  0  0  0  0  0  0
    3.5999   -8.7397    3.4703 H   0  0  0  0  0  0  0  0  0  0  0  0
    1.7948  -10.1859    4.1525 H   0  0  0  0  0  0  0  0  0  0  0  0
   -0.5072  -10.8795    3.6806 H   0  0  0  0  0  0  0  0  0  0  0  0
   -2.0818   -9.3725    2.4998 H   0  0  0  0  0  0  0  0  0  0  0  0
   -1.3092   -7.1222    1.7665 H   0  0  0  0  0  0  0  0  0  0  0  0
    1.0298   -6.3981    2.2274 H   0  0  0  0  0  0  0  0  0  0  0  0
    3.5322   -8.4227    1.0423 H   0  0  0  0  0  0  0  0  0  0  0  0
    4.7347   -7.1341   -0.6754 H   0  0  0  0  0  0  0  0  0  0  0  0
    5.7276   -4.9361   -0.0827 H   0  0  0  0  0  0  0  0  0  0  0  0
    5.4311   -4.0272    2.1126 H   0  0  0  0  0  0  0  0  0  0  0  0
    2.9396   -4.7380    9.7493 H   0  0  0  0  0  0  0  0  0  0  0  0
    1.5448   -4.1056    8.9177 H   0  0  0  0  0  0  0  0  0  0  0  0
    2.8724   -3.0475    9.3753 H   0  0  0  0  0  0  0  0  0  0  0  0
    4.9461   -4.4546    9.0369 H   0  0  0  0  0  0  0  0  0  0  0  0
    5.4474   -3.6577    7.6394 H   0  0  0  0  0  0  0  0  0  0  0  0
  1  2  1  0
  1 47  1  0
  1 48  1  0
  1 49  1  0
  2 19  1  0
  2  3  1  0
  2  4  1  0
  3 50  1  0
  3 51  1  0
  3 52  1  0
  4  5  2  3
  4 53  1  0
  5  6  1  0
  5 54  1  0
  6  7  2  3
  6 55  1  0
  7  8  1  0
  7 56  1  0
  8 18  1  0
  8  9  1  0
  8 57  1  1
  9 10  1  0
  9 58  1  0
  9 59  1  0
 10 44  1  0
 10 11  1  0
 10 60  1  6
 11 15  1  0
 11 12  1  0
 11 61  1  6
 12 13  1  0
 12 62  1  0
 12 63  1  0
 13 14  1  0
 13 64  1  0
 13 65  1  0
 14 15  1  0
 14 66  1  0
 14 67  1  0
 15 16  1  0
 15 68  1  1
 16 17  2  3
 17 18  1  0
 17 21  1  0
 18 19  1  0
 19 20  2  0
 21 28  1  0
 21 43  1  6
 21 22  1  0
 22 23  1  0
 22 69  1  0
 22 70  1  0
 23 24  1  0
 23 71  1  0
 23 72  1  0
 24 46  1  0
 24 25  1  0
 24 73  1  1
 25 26  1  0
 25 74  1  0
 25 75  1  0
 26 27  1  0
 26 76  1  0
 26 77  1  0
 27 28  1  0
 27 44  1  0
 27 78  1  6
 28 29  1  6
 28 30  1  0
 29 79  1  0
 30 31  1  0
 30 80  1  0
 30 81  1  0
 31 32  1  0
 31 38  1  0
 31 82  1  1
 32 37  1  0
 32 33  2  0
 33 34  1  0
 33 83  1  0
 34 35  2  0
 34 84  1  0
 35 36  1  0
 35 85  1  0
 36 37  2  0
 36 86  1  0
 37 87  1  0
 38 43  2  0
 38 39  1  0
 39 40  2  0
 39 88  1  0
 40 41  1  0
 40 89  1  0
 41 42  2  0
 41 90  1  0
 42 43  1  0
 42 91  1  0
 44 45  1  1
 44 46  1  0
 45 92  1  0
 45 93  1  0
 45 94  1  0
 46 95  1  0
 46 96  1  0
M  CHG  1  44   1
M  END
>  <i_m_ct_stereo_status>  (137) 
1

>  <s_m_source_file>  (137) 
/var/tmp/pbs.5076255.sched01/tmpqm933_o1/456x1pmp19.sdf

>  <i_m_source_file_index>  (137) 
11

>  <i_lp_mmshare_version>  (137) 
48012

>  <i_f3d_flags>  (137) 
0

>  <s_epik_input>  (137) 
Tz1DMUMoW0NIM10pKFtDSDNdKS9bQ0hdPVtDSF1cW0NIXT1bQ0hdL1tDQEhdKE4xL0MyW0NAQF0zNDUpW0NIMl1bQ0hdKFtDQEhdNltDQEhdKC9OPTIpW0NIMl1bQ0gyXVtDSDJdNilbTkBAK103KFtDSDNdKVtDQEhdKFtDSDJdW0NIMl1bQ0BIXShbQ0gyXTcpW0NIMl1bQ0gyXTMpW0NAXTQoW09IXSlbQ0gyXVtDQEBIXShjOFtjSF1bY0hdW2NIXVtjSF1bY0hdOCljOWM1W2NIXVtjSF1bY0hdW2NIXTk=

>  <s_epik_cmdline>  (137) 
J2VwaWtfcHl0aG9uJywgJy1waHQnLCAnMi4wJywgJy1waCcsICc3LjAnLCAnLXRuJywgJzgnLCAnLW1hJywgJzIwMCcsICctaW1hZScsICc8aW5maWxlLm1hZT4nLCAnLW9tYWUnLCAnPG91dGZpbGUubWFlPic=

>  <r_lp_tautomer_probability>  (137) 
1

>  <r_epik_Ionization_Penalty>  (137) 
0.0248322

>  <r_epik_Ionization_Penalty_Charging>  (137) 
0

>  <r_epik_Ionization_Penalty_Neutral>  (137) 
0.0248322

>  <r_epik_State_Penalty>  (137) 
0.0199713

>  <r_epik_Charging_Adjusted_Penalty>  (137) 
0.0199713

>  <i_epik_Tot_Q>  (137) 
1

>  <i_epik_Tot_abs_Q>  (137) 
1

>  <s_epik_Chemistry_Notes>  (137) 
This compound has an imine and may undergo hydrolysis.

>  <s_lp_Force_Field>  (137) 
OPLS3e

>  <r_lp_Energy>  (137) 
354.672

>  <b_lp_Chiralities_Consistent>  (137) 
1

>  <s_lp_Variant>  (137) 
33:0-8

>  <s_i_glide_gridfile>  (137) 
pfpi4k_grid

>  <i_i_glide_lignum>  (137) 
11

>  <i_i_glide_rotatable_bonds>  (137) 
2

>  <r_i_docking_score>  (137) 
-1.78231

>  <r_i_glide_ligand_efficiency>  (137) 
-0.0387458

>  <r_i_glide_ligand_efficiency_sa>  (137) 
-0.138828

>  <r_i_glide_ligand_efficiency_ln>  (137) 
-0.369112

>  <r_i_glide_gscore>  (137) 
-1.78231

>  <r_i_glide_lipo>  (137) 
-0.505915

>  <r_i_glide_hbond>  (137) 
0

>  <r_i_glide_metal>  (137) 
-0

>  <r_i_glide_rewards>  (137) 
-0.0552825

>  <r_i_glide_evdw>  (137) 
-28.066

>  <r_i_glide_ecoul>  (137) 
0.845234

>  <r_i_glide_erotb>  (137) 
0.0554054

>  <r_i_glide_esite>  (137) 
0

>  <r_i_glide_emodel>  (137) 
-30.9634

>  <r_i_glide_energy>  (137) 
-27.2208

>  <r_i_glide_einternal>  (137) 
0.279194

>  <r_i_glide_intrahb_reward>  (137) 
-0

>  <i_i_glide_confnum>  (137) 
1

>  <i_i_glide_posenum>  (137) 
4

>  <r_i_glide_eff_state_penalty>  (137) 
0

>  <ligand_id>  (137) 
33

>  <original_smiles>  (137) 
CC1(C)C=CC=CC2CC3C4CCCC4N=C(N2C1=O)C12CCC4CCC(C1(O)CC(c1ccccc1)c1ccccc12)[N+]3(C)C4

>  <smiles>  (137) 
[H]OC12C([H])([H])C([H])(c3c([H])c([H])c([H])c([H])c3[H])c3c([H])c([H])c([H])c([H])c3C13C1=NC4([H])C([H])([H])C([H])([H])C([H])([H])C4([H])C([H])(C([H])([H])C4([H])C([H])=C([H])C([H])=C([H])C(C([H])([H])[H])(C([H])([H])[H])C(=O)N14)[N+]1(C([H])([H])[H])C([H])([H])C([H])(C([H])([H])C3([H])[H])C([H])([H])C([H])([H])C21[H]

$$$$
33:7:2
     RDKit          3D

 96104  0  0  1  0  0  0  0  0999 V2000
    2.0453   -4.7140    8.7958 C   0  0  0  0  0  0  0  0  0  0  0  0
    2.0315   -6.2472    8.9831 C   0  0  0  0  0  0  0  0  0  0  0  0
    2.2582   -6.5100   10.4948 C   0  0  0  0  0  0  0  0  0  0  0  0
    0.6733   -6.8122    8.5697 C   0  0  0  0  0  0  0  0  0  0  0  0
    0.3304   -8.0926    8.8015 C   0  0  0  0  0  0  0  0  0  0  0  0
    0.5285   -8.9331    7.6448 C   0  0  0  0  0  0  0  0  0  0  0  0
    1.7841   -9.4039    7.5360 C   0  0  0  0  0  0  0  0  0  0  0  0
    2.8498   -8.7984    6.6110 C   0  0  1  0  0  0  0  0  0  0  0  0
    2.9022   -9.5264    5.2009 C   0  0  0  0  0  0  0  0  0  0  0  0
    2.7112   -8.6110    3.9663 C   0  0  2  0  0  0  0  0  0  0  0  0
    1.2538   -8.0035    3.9974 C   0  0  2  0  0  0  0  0  0  0  0  0
    0.1740   -8.2873    2.9479 C   0  0  0  0  0  0  0  0  0  0  0  0
   -1.0624   -7.5244    3.4907 C   0  0  0  0  0  0  0  0  0  0  0  0
   -0.5409   -6.5384    4.5578 C   0  0  0  0  0  0  0  0  0  0  0  0
    0.9751   -6.5305    4.3519 C   0  0  1  0  0  0  0  0  0  0  0  0
    1.6724   -5.9414    5.5084 N   0  0  0  0  0  0  0  0  0  0  0  0
    2.8830   -6.2877    5.8204 C   0  0  0  0  0  0  0  0  0  0  0  0
    3.0159   -7.2843    6.8467 N   0  0  0  0  0  0  0  0  0  0  0  0
    3.1903   -6.9113    8.1500 C   0  0  0  0  0  0  0  0  0  0  0  0
    4.2117   -7.2689    8.7417 O   0  0  0  0  0  0  0  0  0  0  0  0
    4.2579   -5.8429    5.0075 C   0  0  1  0  0  0  0  0  0  0  0  0
    5.4295   -6.8942    5.2895 C   0  0  0  0  0  0  0  0  0  0  0  0
    6.5709   -7.1924    4.2717 C   0  0  0  0  0  0  0  0  0  0  0  0
    6.2709   -8.0332    2.9905 C   0  0  2  0  0  0  0  0  0  0  0  0
    6.2873   -7.2854    1.6403 C   0  0  0  0  0  0  0  0  0  0  0  0
    4.8629   -6.9732    1.1591 C   0  0  0  0  0  0  0  0  0  0  0  0
    3.8556   -6.9920    2.3464 C   0  0  2  0  0  0  0  0  0  0  0  0
    4.0933   -5.7078    3.3779 C   0  0  1  0  0  0  0  0  0  0  0  0
    2.9670   -4.9456    3.0660 O   0  0  0  0  0  0  0  0  0  0  0  0
    5.0802   -4.6108    2.8153 C   0  0  0  0  0  0  0  0  0  0  0  0
    5.0334   -3.2095    3.4366 C   0  0  1  0  0  0  0  0  0  0  0  0
    3.9858   -2.2610    2.8424 C   0  0  0  0  0  0  0  0  0  0  0  0
    2.7615   -2.0232    3.5092 C   0  0  0  0  0  0  0  0  0  0  0  0
    1.7928   -1.1786    2.9469 C   0  0  0  0  0  0  0  0  0  0  0  0
    2.0482   -0.5402    1.7220 C   0  0  0  0  0  0  0  0  0  0  0  0
    3.2639   -0.7602    1.0507 C   0  0  0  0  0  0  0  0  0  0  0  0
    4.2317   -1.6188    1.6083 C   0  0  0  0  0  0  0  0  0  0  0  0
    5.0335   -3.2816    4.9430 C   0  0  0  0  0  0  0  0  0  0  0  0
    5.4050   -2.0935    5.6094 C   0  0  0  0  0  0  0  0  0  0  0  0
    5.5701   -2.0593    6.9981 C   0  0  0  0  0  0  0  0  0  0  0  0
    5.4070   -3.2416    7.7197 C   0  0  0  0  0  0  0  0  0  0  0  0
    5.0335   -4.4215    7.0536 C   0  0  0  0  0  0  0  0  0  0  0  0
    4.7640   -4.4886    5.6609 C   0  0  0  0  0  0  0  0  0  0  0  0
    3.6944   -8.4603    2.8179 N   0  0  2  0  0  0  0  0  0  0  0  0
    3.1092   -9.3238    1.7361 C   0  0  0  0  0  0  0  0  0  0  0  0
    5.0855   -9.0244    3.1037 C   0  0  0  0  0  0  0  0  0  0  0  0
    1.9008   -4.4127    7.7588 H   0  0  0  0  0  0  0  0  0  0  0  0
    2.9907   -4.2845    9.1319 H   0  0  0  0  0  0  0  0  0  0  0  0
    1.2553   -4.2408    9.3810 H   0  0  0  0  0  0  0  0  0  0  0  0
    2.3857   -7.5697   10.7204 H   0  0  0  0  0  0  0  0  0  0  0  0
    1.4208   -6.1463   11.0906 H   0  0  0  0  0  0  0  0  0  0  0  0
    3.1543   -6.0048   10.8590 H   0  0  0  0  0  0  0  0  0  0  0  0
    0.4114   -6.4344    7.5957 H   0  0  0  0  0  0  0  0  0  0  0  0
    0.6777   -8.5455    9.7173 H   0  0  0  0  0  0  0  0  0  0  0  0
    0.0477   -8.5643    6.7567 H   0  0  0  0  0  0  0  0  0  0  0  0
    2.2538   -9.6686    8.4760 H   0  0  0  0  0  0  0  0  0  0  0  0
    3.7609   -9.1978    7.0633 H   0  0  0  0  0  0  0  0  0  0  0  0
    3.7724  -10.1714    5.1790 H   0  0  0  0  0  0  0  0  0  0  0  0
    2.1168  -10.2831    5.1715 H   0  0  0  0  0  0  0  0  0  0  0  0
    3.3750   -7.9541    4.3737 H   0  0  0  0  0  0  0  0  0  0  0  0
    0.8238   -8.5368    4.8378 H   0  0  0  0  0  0  0  0  0  0  0  0
    0.4500   -7.8612    1.9834 H   0  0  0  0  0  0  0  0  0  0  0  0
   -0.0291   -9.3512    2.8151 H   0  0  0  0  0  0  0  0  0  0  0  0
   -1.5773   -7.0027    2.6851 H   0  0  0  0  0  0  0  0  0  0  0  0
   -1.7826   -8.2086    3.9425 H   0  0  0  0  0  0  0  0  0  0  0  0
   -0.9616   -5.5402    4.4723 H   0  0  0  0  0  0  0  0  0  0  0  0
   -0.7957   -6.8922    5.5556 H   0  0  0  0  0  0  0  0  0  0  0  0
    1.0307   -5.9271    3.4593 H   0  0  0  0  0  0  0  0  0  0  0  0
    5.9333   -6.6453    6.2188 H   0  0  0  0  0  0  0  0  0  0  0  0
    5.0574   -7.8768    5.5430 H   0  0  0  0  0  0  0  0  0  0  0  0
    7.1920   -6.3220    4.0656 H   0  0  0  0  0  0  0  0  0  0  0  0
    7.2673   -7.8199    4.8343 H   0  0  0  0  0  0  0  0  0  0  0  0
    7.1561   -8.6629    2.9077 H   0  0  0  0  0  0  0  0  0  0  0  0
    6.9008   -6.3838    1.6922 H   0  0  0  0  0  0  0  0  0  0  0  0
    6.7800   -7.9075    0.8859 H   0  0  0  0  0  0  0  0  0  0  0  0
    4.8180   -6.0623    0.5682 H   0  0  0  0  0  0  0  0  0  0  0  0
    4.5992   -7.7080    0.4015 H   0  0  0  0  0  0  0  0  0  0  0  0
    2.8989   -6.8125    1.8545 H   0  0  0  0  0  0  0  0  0  0  0  0
    3.0513   -4.1025    3.4832 H   0  0  0  0  0  0  0  0  0  0  0  0
    6.0919   -4.9391    3.0063 H   0  0  0  0  0  0  0  0  0  0  0  0
    5.0216   -4.4487    1.7428 H   0  0  0  0  0  0  0  0  0  0  0  0
    5.9820   -2.7429    3.1685 H   0  0  0  0  0  0  0  0  0  0  0  0
    2.5464   -2.4985    4.4533 H   0  0  0  0  0  0  0  0  0  0  0  0
    0.8497   -1.0304    3.4490 H   0  0  0  0  0  0  0  0  0  0  0  0
    1.2914    0.0937    1.2816 H   0  0  0  0  0  0  0  0  0  0  0  0
    3.4384   -0.2868    0.0957 H   0  0  0  0  0  0  0  0  0  0  0  0
    5.1568   -1.7854    1.0750 H   0  0  0  0  0  0  0  0  0  0  0  0
    5.5864   -1.1899    5.0461 H   0  0  0  0  0  0  0  0  0  0  0  0
    5.8670   -1.1492    7.4996 H   0  0  0  0  0  0  0  0  0  0  0  0
    5.5769   -3.2568    8.7852 H   0  0  0  0  0  0  0  0  0  0  0  0
    5.0016   -5.2896    7.6703 H   0  0  0  0  0  0  0  0  0  0  0  0
    3.7962   -9.5438    0.9176 H   0  0  0  0  0  0  0  0  0  0  0  0
    2.2183   -8.8961    1.2814 H   0  0  0  0  0  0  0  0  0  0  0  0
    2.8353  -10.3010    2.1403 H   0  0  0  0  0  0  0  0  0  0  0  0
    5.3038   -9.8423    2.4172 H   0  0  0  0  0  0  0  0  0  0  0  0
    5.2164   -9.4940    4.0637 H   0  0  0  0  0  0  0  0  0  0  0  0
  1  2  1  0
  1 47  1  0
  1 48  1  0
  1 49  1  0
  2 19  1  0
  2  3  1  0
  2  4  1  0
  3 50  1  0
  3 51  1  0
  3 52  1  0
  4  5  2  3
  4 53  1  0
  5  6  1  0
  5 54  1  0
  6  7  2  3
  6 55  1  0
  7  8  1  0
  7 56  1  0
  8 18  1  0
  8  9  1  0
  8 57  1  1
  9 10  1  0
  9 58  1  0
  9 59  1  0
 10 44  1  0
 10 11  1  0
 10 60  1  1
 11 15  1  0
 11 12  1  0
 11 61  1  1
 12 13  1  0
 12 62  1  0
 12 63  1  0
 13 14  1  0
 13 64  1  0
 13 65  1  0
 14 15  1  0
 14 66  1  0
 14 67  1  0
 15 16  1  0
 15 68  1  6
 16 17  2  3
 17 18  1  0
 17 21  1  0
 18 19  1  0
 19 20  2  0
 21 28  1  0
 21 43  1  1
 21 22  1  0
 22 23  1  0
 22 69  1  0
 22 70  1  0
 23 24  1  0
 23 71  1  0
 23 72  1  0
 24 46  1  0
 24 25  1  0
 24 73  1  6
 25 26  1  0
 25 74  1  0
 25 75  1  0
 26 27  1  0
 26 76  1  0
 26 77  1  0
 27 28  1  0
 27 44  1  0
 27 78  1  6
 28 29  1  1
 28 30  1  0
 29 79  1  0
 30 31  1  0
 30 80  1  0
 30 81  1  0
 31 32  1  0
 31 38  1  0
 31 82  1  1
 32 37  1  0
 32 33  2  0
 33 34  1  0
 33 83  1  0
 34 35  2  0
 34 84  1  0
 35 36  1  0
 35 85  1  0
 36 37  2  0
 36 86  1  0
 37 87  1  0
 38 43  2  0
 38 39  1  0
 39 40  2  0
 39 88  1  0
 40 41  1  0
 40 89  1  0
 41 42  2  0
 41 90  1  0
 42 43  1  0
 42 91  1  0
 44 45  1  6
 44 46  1  0
 45 92  1  0
 45 93  1  0
 45 94  1  0
 46 95  1  0
 46 96  1  0
M  CHG  1  44   1
M  END
>  <i_m_ct_stereo_status>  (138) 
1

>  <s_m_source_file>  (138) 
/var/tmp/pbs.5076255.sched01/tmpqm933_o1/456x1pmp19.sdf

>  <i_m_source_file_index>  (138) 
11

>  <i_lp_mmshare_version>  (138) 
48012

>  <i_f3d_flags>  (138) 
0

>  <s_epik_input>  (138) 
Tz1DMUMoW0NIM10pKFtDSDNdKS9bQ0hdPVtDSF1cW0NIXT1bQ0hdL1tDQEhdKE4xL0MyW0NAQF0zNDUpW0NIMl1bQ0hdKFtDQEhdNltDQEhdKC9OPTIpW0NIMl1bQ0gyXVtDSDJdNilbTkBAK103KFtDSDNdKVtDQEhdKFtDSDJdW0NIMl1bQ0BIXShbQ0gyXTcpW0NIMl1bQ0gyXTMpW0NAXTQoW09IXSlbQ0gyXVtDQEBIXShjOFtjSF1bY0hdW2NIXVtjSF1bY0hdOCljOWM1W2NIXVtjSF1bY0hdW2NIXTk=

>  <s_epik_cmdline>  (138) 
J2VwaWtfcHl0aG9uJywgJy1waHQnLCAnMi4wJywgJy1waCcsICc3LjAnLCAnLXRuJywgJzgnLCAnLW1hJywgJzIwMCcsICctaW1hZScsICc8aW5maWxlLm1hZT4nLCAnLW9tYWUnLCAnPG91dGZpbGUubWFlPic=

>  <r_lp_tautomer_probability>  (138) 
1

>  <r_epik_Ionization_Penalty>  (138) 
0.0248322

>  <r_epik_Ionization_Penalty_Charging>  (138) 
0

>  <r_epik_Ionization_Penalty_Neutral>  (138) 
0.0248322

>  <r_epik_State_Penalty>  (138) 
0.0199713

>  <r_epik_Charging_Adjusted_Penalty>  (138) 
0.0199713

>  <i_epik_Tot_Q>  (138) 
1

>  <i_epik_Tot_abs_Q>  (138) 
1

>  <s_epik_Chemistry_Notes>  (138) 
This compound has an imine and may undergo hydrolysis.

>  <s_lp_Force_Field>  (138) 
OPLS3e

>  <r_lp_Energy>  (138) 
354.672

>  <b_lp_Chiralities_Consistent>  (138) 
1

>  <s_lp_Variant>  (138) 
33:0-8

>  <s_i_glide_gridfile>  (138) 
pfpi4k_grid

>  <i_i_glide_lignum>  (138) 
11

>  <i_i_glide_rotatable_bonds>  (138) 
2

>  <r_i_docking_score>  (138) 
-1.7519

>  <r_i_glide_ligand_efficiency>  (138) 
-0.0380848

>  <r_i_glide_ligand_efficiency_sa>  (138) 
-0.13646

>  <r_i_glide_ligand_efficiency_ln>  (138) 
-0.362814

>  <r_i_glide_gscore>  (138) 
-1.7519

>  <r_i_glide_lipo>  (138) 
-0.304697

>  <r_i_glide_hbond>  (138) 
0

>  <r_i_glide_metal>  (138) 
-0

>  <r_i_glide_rewards>  (138) 
0

>  <r_i_glide_evdw>  (138) 
-24.8951

>  <r_i_glide_ecoul>  (138) 
-1.68329

>  <r_i_glide_erotb>  (138) 
0.0554054

>  <r_i_glide_esite>  (138) 
-0.00536262

>  <r_i_glide_emodel>  (138) 
-30.1545

>  <r_i_glide_energy>  (138) 
-26.5784

>  <r_i_glide_einternal>  (138) 
0.554639

>  <r_i_glide_intrahb_reward>  (138) 
-0

>  <i_i_glide_confnum>  (138) 
6

>  <i_i_glide_posenum>  (138) 
29

>  <r_i_glide_eff_state_penalty>  (138) 
0

>  <ligand_id>  (138) 
33

>  <original_smiles>  (138) 
CC1(C)C=CC=CC2CC3C4CCCC4N=C(N2C1=O)C12CCC4CCC(C1(O)CC(c1ccccc1)c1ccccc12)[N+]3(C)C4

>  <smiles>  (138) 
[H]OC12C([H])([H])C([H])(c3c([H])c([H])c([H])c([H])c3[H])c3c([H])c([H])c([H])c([H])c3C13C1=NC4([H])C([H])([H])C([H])([H])C([H])([H])C4([H])C([H])(C([H])([H])C4([H])C([H])=C([H])C([H])=C([H])C(C([H])([H])[H])(C([H])([H])[H])C(=O)N14)[N+]1(C([H])([H])[H])C([H])([H])C([H])(C([H])([H])C3([H])[H])C([H])([H])C([H])([H])C21[H]

$$$$
33:8:0
     RDKit          3D

 97105  0  0  1  0  0  0  0  0999 V2000
    6.8766   -5.0889    5.7660 C   0  0  0  0  0  0  0  0  0  0  0  0
    6.5121   -5.4252    7.2323 C   0  0  0  0  0  0  0  0  0  0  0  0
    7.9011   -5.6166    7.9078 C   0  0  0  0  0  0  0  0  0  0  0  0
    5.8357   -4.2843    7.9953 C   0  0  0  0  0  0  0  0  0  0  0  0
    4.8668   -3.4561    7.5693 C   0  0  0  0  0  0  0  0  0  0  0  0
    4.2442   -3.5555    6.2736 C   0  0  0  0  0  0  0  0  0  0  0  0
    3.6736   -4.6804    5.8108 C   0  0  0  0  0  0  0  0  0  0  0  0
    3.4035   -5.9700    6.5949 C   0  0  1  0  0  0  0  0  0  0  0  0
    1.9574   -6.4424    6.2095 C   0  0  0  0  0  0  0  0  0  0  0  0
    1.3516   -7.8474    6.5286 C   0  0  2  0  0  0  0  0  0  0  0  0
    1.6043   -8.4614    7.9687 C   0  0  2  0  0  0  0  0  0  0  0  0
    0.9661   -7.8812    9.2435 C   0  0  0  0  0  0  0  0  0  0  0  0
    1.7759   -8.5496   10.3931 C   0  0  0  0  0  0  0  0  0  0  0  0
    3.0132   -9.1987    9.7415 C   0  0  0  0  0  0  0  0  0  0  0  0
    3.0490   -8.4756    8.4072 C   0  0  1  0  0  0  0  0  0  0  0  0
    3.8010   -9.0577    7.3199 N   0  0  0  0  0  0  0  0  0  0  0  0
    4.1966   -8.3055    6.2560 C   0  0  0  0  0  0  0  0  0  0  0  0
    4.5197   -6.9767    6.4455 N   0  0  0  0  0  0  0  0  0  0  0  0
    5.6980   -6.7458    7.3027 C   0  0  0  0  0  0  0  0  0  0  0  0
    6.0806   -7.6468    8.0497 O   0  0  0  0  0  0  0  0  0  0  0  0
    4.4221   -8.9964    4.8920 C   0  0  1  0  0  0  0  0  0  0  0  0
    4.2691  -10.5809    5.0124 C   0  0  0  0  0  0  0  0  0  0  0  0
    3.2058  -11.4089    4.2441 C   0  0  0  0  0  0  0  0  0  0  0  0
    1.6966  -11.2419    4.5451 C   0  0  2  0  0  0  0  0  0  0  0  0
    0.9197  -10.9449    3.2758 C   0  0  0  0  0  0  0  0  0  0  0  0
    1.1933   -9.5059    2.8407 C   0  0  0  0  0  0  0  0  0  0  0  0
    1.8083   -8.5717    3.9672 C   0  0  2  0  0  0  0  0  0  0  0  0
    3.4182   -8.3704    3.8230 C   0  0  1  0  0  0  0  0  0  0  0  0
    3.5434   -6.9703    3.8300 O   0  0  0  0  0  0  0  0  0  0  0  0
    3.9739   -8.5971    2.3743 C   0  0  0  0  0  0  0  0  0  0  0  0
    5.4064   -8.0962    2.0796 C   0  0  1  0  0  0  0  0  0  0  0  0
    5.4321   -6.6557    1.5382 C   0  0  0  0  0  0  0  0  0  0  0  0
    4.7255   -6.3534    0.3500 C   0  0  0  0  0  0  0  0  0  0  0  0
    4.7197   -5.0508   -0.1842 C   0  0  0  0  0  0  0  0  0  0  0  0
    5.4258   -4.0237    0.4609 C   0  0  0  0  0  0  0  0  0  0  0  0
    6.1430   -4.3100    1.6343 C   0  0  0  0  0  0  0  0  0  0  0  0
    6.1465   -5.6128    2.1719 C   0  0  0  0  0  0  0  0  0  0  0  0
    6.3648   -8.3896    3.2256 C   0  0  0  0  0  0  0  0  0  0  0  0
    7.7528   -8.2774    2.9784 C   0  0  0  0  0  0  0  0  0  0  0  0
    8.6886   -8.5523    3.9907 C   0  0  0  0  0  0  0  0  0  0  0  0
    8.2463   -8.9736    5.2549 C   0  0  0  0  0  0  0  0  0  0  0  0
    6.8685   -9.1173    5.4962 C   0  0  0  0  0  0  0  0  0  0  0  0
    5.9095   -8.8077    4.5045 C   0  0  0  0  0  0  0  0  0  0  0  0
    1.1097   -8.8277    5.3300 N   0  0  2  0  0  0  0  0  0  0  0  0
   -0.3755   -8.6811    5.0828 C   0  0  0  0  0  0  0  0  0  0  0  0
    1.3236  -10.2768    5.6922 C   0  0  0  0  0  0  0  0  0  0  0  0
    6.0418   -5.1140    5.0748 H   0  0  0  0  0  0  0  0  0  0  0  0
    7.6035   -5.7981    5.3658 H   0  0  0  0  0  0  0  0  0  0  0  0
    7.3310   -4.1006    5.7050 H   0  0  0  0  0  0  0  0  0  0  0  0
    7.8272   -5.8460    8.9739 H   0  0  0  0  0  0  0  0  0  0  0  0
    8.5115   -4.7124    7.8216 H   0  0  0  0  0  0  0  0  0  0  0  0
    8.4784   -6.4219    7.4461 H   0  0  0  0  0  0  0  0  0  0  0  0
    6.1860   -4.1417    9.0082 H   0  0  0  0  0  0  0  0  0  0  0  0
    4.4913   -2.7163    8.2594 H   0  0  0  0  0  0  0  0  0  0  0  0
    4.3382   -2.7161    5.6001 H   0  0  0  0  0  0  0  0  0  0  0  0
    3.3219   -4.6560    4.7903 H   0  0  0  0  0  0  0  0  0  0  0  0
    3.3602   -5.6661    7.6420 H   0  0  0  0  0  0  0  0  0  0  0  0
    1.3437   -5.7519    6.7910 H   0  0  0  0  0  0  0  0  0  0  0  0
    1.6835   -6.1293    5.2039 H   0  0  0  0  0  0  0  0  0  0  0  0
    0.3592   -7.4847    6.7815 H   0  0  0  0  0  0  0  0  0  0  0  0
    1.2063   -9.4731    8.0137 H   0  0  0  0  0  0  0  0  0  0  0  0
    1.0748   -6.7950    9.2897 H   0  0  0  0  0  0  0  0  0  0  0  0
   -0.0972   -8.1178    9.3166 H   0  0  0  0  0  0  0  0  0  0  0  0
    2.0729   -7.8042   11.1306 H   0  0  0  0  0  0  0  0  0  0  0  0
    1.1950   -9.3048   10.9186 H   0  0  0  0  0  0  0  0  0  0  0  0
    3.9192   -9.0290   10.3226 H   0  0  0  0  0  0  0  0  0  0  0  0
    2.8876  -10.2730    9.6024 H   0  0  0  0  0  0  0  0  0  0  0  0
    3.4060   -7.4776    8.6410 H   0  0  0  0  0  0  0  0  0  0  0  0
    5.1811  -11.0148    4.6037 H   0  0  0  0  0  0  0  0  0  0  0  0
    4.3232  -10.9642    6.0275 H   0  0  0  0  0  0  0  0  0  0  0  0
    3.3826  -11.3800    3.1702 H   0  0  0  0  0  0  0  0  0  0  0  0
    3.4300  -12.4536    4.4708 H   0  0  0  0  0  0  0  0  0  0  0  0
    1.3613  -12.2255    4.8761 H   0  0  0  0  0  0  0  0  0  0  0  0
    1.1715  -11.6555    2.4900 H   0  0  0  0  0  0  0  0  0  0  0  0
   -0.1410  -11.0878    3.4551 H   0  0  0  0  0  0  0  0  0  0  0  0
    1.7793   -9.5664    1.9343 H   0  0  0  0  0  0  0  0  0  0  0  0
    0.2621   -9.0798    2.4587 H   0  0  0  0  0  0  0  0  0  0  0  0
    1.3885   -7.6209    3.6432 H   0  0  0  0  0  0  0  0  0  0  0  0
    3.1866   -6.6234    3.0240 H   0  0  0  0  0  0  0  0  0  0  0  0
    4.0155   -9.6672    2.1942 H   0  0  0  0  0  0  0  0  0  0  0  0
    3.3016   -8.2040    1.6086 H   0  0  0  0  0  0  0  0  0  0  0  0
    5.7736   -8.7026    1.2504 H   0  0  0  0  0  0  0  0  0  0  0  0
    4.2029   -7.1322   -0.1824 H   0  0  0  0  0  0  0  0  0  0  0  0
    4.1870   -4.8428   -1.1015 H   0  0  0  0  0  0  0  0  0  0  0  0
    5.4306   -3.0226    0.0532 H   0  0  0  0  0  0  0  0  0  0  0  0
    6.6951   -3.5134    2.1035 H   0  0  0  0  0  0  0  0  0  0  0  0
    6.7214   -5.8036    3.0649 H   0  0  0  0  0  0  0  0  0  0  0  0
    8.1142   -7.9729    2.0051 H   0  0  0  0  0  0  0  0  0  0  0  0
    9.7479   -8.4567    3.7877 H   0  0  0  0  0  0  0  0  0  0  0  0
    8.9557   -9.1935    6.0394 H   0  0  0  0  0  0  0  0  0  0  0  0
    6.5464   -9.4640    6.4672 H   0  0  0  0  0  0  0  0  0  0  0  0
   -0.8101   -9.3329    4.3404 H   0  0  0  0  0  0  0  0  0  0  0  0
   -0.6387   -7.6694    4.7764 H   0  0  0  0  0  0  0  0  0  0  0  0
   -0.9603   -8.9246    5.9704 H   0  0  0  0  0  0  0  0  0  0  0  0
    0.4176  -10.6570    6.1637 H   0  0  0  0  0  0  0  0  0  0  0  0
    2.0875  -10.4525    6.4306 H   0  0  0  0  0  0  0  0  0  0  0  0
    3.7404  -10.0641    7.2301 H   0  0  0  0  0  0  0  0  0  0  0  0
  1  2  1  0
  1 47  1  0
  1 48  1  0
  1 49  1  0
  2 19  1  0
  2  3  1  0
  2  4  1  0
  3 50  1  0
  3 51  1  0
  3 52  1  0
  4  5  2  3
  4 53  1  0
  5  6  1  0
  5 54  1  0
  6  7  2  3
  6 55  1  0
  7  8  1  0
  7 56  1  0
  8 18  1  0
  8  9  1  0
  8 57  1  1
  9 10  1  0
  9 58  1  0
  9 59  1  0
 10 44  1  0
 10 11  1  0
 10 60  1  1
 11 15  1  0
 11 12  1  0
 11 61  1  6
 12 13  1  0
 12 62  1  0
 12 63  1  0
 13 14  1  0
 13 64  1  0
 13 65  1  0
 14 15  1  0
 14 66  1  0
 14 67  1  0
 15 16  1  0
 15 68  1  1
 16 17  2  3
 16 97  1  0
 17 18  1  0
 17 21  1  0
 18 19  1  0
 19 20  2  0
 21 28  1  0
 21 43  1  6
 21 22  1  0
 22 23  1  0
 22 69  1  0
 22 70  1  0
 23 24  1  0
 23 71  1  0
 23 72  1  0
 24 46  1  0
 24 25  1  0
 24 73  1  1
 25 26  1  0
 25 74  1  0
 25 75  1  0
 26 27  1  0
 26 76  1  0
 26 77  1  0
 27 28  1  0
 27 44  1  0
 27 78  1  6
 28 29  1  1
 28 30  1  0
 29 79  1  0
 30 31  1  0
 30 80  1  0
 30 81  1  0
 31 32  1  0
 31 38  1  0
 31 82  1  6
 32 37  1  0
 32 33  2  0
 33 34  1  0
 33 83  1  0
 34 35  2  0
 34 84  1  0
 35 36  1  0
 35 85  1  0
 36 37  2  0
 36 86  1  0
 37 87  1  0
 38 43  2  0
 38 39  1  0
 39 40  2  0
 39 88  1  0
 40 41  1  0
 40 89  1  0
 41 42  2  0
 41 90  1  0
 42 43  1  0
 42 91  1  0
 44 45  1  6
 44 46  1  0
 45 92  1  0
 45 93  1  0
 45 94  1  0
 46 95  1  0
 46 96  1  0
M  CHG  2  16   1  44   1
M  END
>  <i_m_ct_stereo_status>  (139) 
1

>  <s_m_source_file>  (139) 
/var/tmp/pbs.5076255.sched01/tmpqm933_o1/456x1pmp19.sdf

>  <i_m_source_file_index>  (139) 
12

>  <i_lp_mmshare_version>  (139) 
48012

>  <i_f3d_flags>  (139) 
0

>  <s_epik_input>  (139) 
Tz1DMUMoW0NIM10pKFtDSDNdKS9bQ0hdPVtDSF1cW0NIXT1bQ0hdL1tDQEhdKE4xL0MyW0NAQF0zNDUpW0NIMl1bQ0hdKFtDQEhdNltDQEhdKC9OPTIpW0NIMl1bQ0gyXVtDSDJdNilbTkBAK103KFtDSDNdKVtDQEhdKFtDSDJdW0NIMl1bQ0BIXShbQ0gyXTcpW0NIMl1bQ0gyXTMpW0NAXTQoW09IXSlbQ0gyXVtDQEBIXShjOFtjSF1bY0hdW2NIXVtjSF1bY0hdOCljOWM1W2NIXVtjSF1bY0hdW2NIXTk=

>  <s_epik_cmdline>  (139) 
J2VwaWtfcHl0aG9uJywgJy1waHQnLCAnMi4wJywgJy1waCcsICc3LjAnLCAnLXRuJywgJzgnLCAnLW1hJywgJzIwMCcsICctaW1hZScsICc8aW5maWxlLm1hZT4nLCAnLW9tYWUnLCAnPG91dGZpbGUubWFlPic=

>  <r_epik_Ionization_Penalty>  (139) 
1.89798

>  <r_epik_Ionization_Penalty_Charging>  (139) 
1.89749

>  <r_epik_Ionization_Penalty_Neutral>  (139) 
0.000490901

>  <r_epik_State_Penalty>  (139) 
2.0185

>  <r_epik_Charging_Adjusted_Penalty>  (139) 
3.91599

>  <i_epik_Tot_Q>  (139) 
2

>  <i_epik_Tot_abs_Q>  (139) 
2

>  <s_epik_Chemistry_Notes>  (139) 
This compound has an imine and may undergo hydrolysis.

>  <s_lp_Force_Field>  (139) 
OPLS3e

>  <r_lp_Energy>  (139) 
242.182

>  <b_lp_Chiralities_Consistent>  (139) 
1

>  <s_lp_Variant>  (139) 
33:0-9

>  <s_i_glide_gridfile>  (139) 
pfpi4k_grid

>  <i_i_glide_lignum>  (139) 
12

>  <i_i_glide_rotatable_bonds>  (139) 
2

>  <r_i_docking_score>  (139) 
-2.61942

>  <r_i_glide_ligand_efficiency>  (139) 
-0.056944

>  <r_i_glide_ligand_efficiency_sa>  (139) 
-0.204033

>  <r_i_glide_ligand_efficiency_ln>  (139) 
-0.542476

>  <r_i_glide_gscore>  (139) 
-2.61942

>  <r_i_glide_lipo>  (139) 
-0.661105

>  <r_i_glide_hbond>  (139) 
0

>  <r_i_glide_metal>  (139) 
-0

>  <r_i_glide_rewards>  (139) 
0

>  <r_i_glide_evdw>  (139) 
-24.7678

>  <r_i_glide_ecoul>  (139) 
-4.8874

>  <r_i_glide_erotb>  (139) 
0.0552374

>  <r_i_glide_esite>  (139) 
-0.0420541

>  <r_i_glide_emodel>  (139) 
-36.0777

>  <r_i_glide_energy>  (139) 
-29.6552

>  <r_i_glide_einternal>  (139) 
0.4845

>  <r_i_glide_intrahb_reward>  (139) 
-0

>  <i_i_glide_confnum>  (139) 
3

>  <i_i_glide_posenum>  (139) 
32

>  <r_i_glide_eff_state_penalty>  (139) 
0

>  <ligand_id>  (139) 
33

>  <original_smiles>  (139) 
CC1(C)C=CC=CC2CC3C4CCCC4N=C(N2C1=O)C12CCC4CCC(C1(O)CC(c1ccccc1)c1ccccc12)[N+]3(C)C4

>  <smiles>  (139) 
[H]OC12C([H])([H])C([H])(c3c([H])c([H])c([H])c([H])c3[H])c3c([H])c([H])c([H])c([H])c3C13C1=[N+]([H])C4([H])C([H])([H])C([H])([H])C([H])([H])C4([H])C([H])(C([H])([H])C4([H])C([H])=C([H])C([H])=C([H])C(C([H])([H])[H])(C([H])([H])[H])C(=O)N14)[N+]1(C([H])([H])[H])C([H])([H])C([H])(C([H])([H])C3([H])[H])C([H])([H])C([H])([H])C21[H]

$$$$
33:8:1
     RDKit          3D

 97105  0  0  1  0  0  0  0  0999 V2000
    6.6595   -5.1794    5.5961 C   0  0  0  0  0  0  0  0  0  0  0  0
    6.6031   -5.9773    6.9165 C   0  0  0  0  0  0  0  0  0  0  0  0
    8.0947   -6.3207    7.1816 C   0  0  0  0  0  0  0  0  0  0  0  0
    6.1326   -5.1568    8.1167 C   0  0  0  0  0  0  0  0  0  0  0  0
    5.1201   -4.2724    8.1794 C   0  0  0  0  0  0  0  0  0  0  0  0
    4.2297   -3.9849    7.0811 C   0  0  0  0  0  0  0  0  0  0  0  0
    3.5373   -4.9293    6.4220 C   0  0  0  0  0  0  0  0  0  0  0  0
    3.4025   -6.4082    6.8021 C   0  0  1  0  0  0  0  0  0  0  0  0
    1.8966   -6.7894    6.5978 C   0  0  0  0  0  0  0  0  0  0  0  0
    1.3353   -8.2497    6.5823 C   0  0  2  0  0  0  0  0  0  0  0  0
    1.8664   -9.2677    7.6752 C   0  0  2  0  0  0  0  0  0  0  0  0
    1.5295   -9.1353    9.1662 C   0  0  0  0  0  0  0  0  0  0  0  0
    2.5414  -10.1029    9.8495 C   0  0  0  0  0  0  0  0  0  0  0  0
    3.5934  -10.4689    8.7847 C   0  0  0  0  0  0  0  0  0  0  0  0
    3.3660   -9.3663    7.7689 C   0  0  1  0  0  0  0  0  0  0  0  0
    3.8515   -9.5562    6.4224 N   0  0  0  0  0  0  0  0  0  0  0  0
    4.0367   -8.4924    5.5896 C   0  0  0  0  0  0  0  0  0  0  0  0
    4.4326   -7.2781    6.1155 N   0  0  0  0  0  0  0  0  0  0  0  0
    5.7776   -7.2839    6.7332 C   0  0  0  0  0  0  0  0  0  0  0  0
    6.2838   -8.3608    7.0470 O   0  0  0  0  0  0  0  0  0  0  0  0
    3.9428   -8.7162    4.0617 C   0  0  1  0  0  0  0  0  0  0  0  0
    3.7720  -10.2632    3.7103 C   0  0  0  0  0  0  0  0  0  0  0  0
    2.5442  -10.8466    2.9673 C   0  0  0  0  0  0  0  0  0  0  0  0
    1.1417  -10.8455    3.6166 C   0  0  2  0  0  0  0  0  0  0  0  0
    0.1264  -10.1869    2.6940 C   0  0  0  0  0  0  0  0  0  0  0  0
    0.3474   -8.6690    2.6811 C   0  0  0  0  0  0  0  0  0  0  0  0
    1.2157   -8.1198    3.8883 C   0  0  2  0  0  0  0  0  0  0  0  0
    2.7610   -7.8260    3.4728 C   0  0  1  0  0  0  0  0  0  0  0  0
    2.9306   -6.5054    3.9010 O   0  0  0  0  0  0  0  0  0  0  0  0
    2.9807   -7.5506    1.9470 C   0  0  0  0  0  0  0  0  0  0  0  0
    4.3306   -6.9426    1.5190 C   0  0  1  0  0  0  0  0  0  0  0  0
    4.2944   -5.4069    1.4458 C   0  0  0  0  0  0  0  0  0  0  0  0
    3.5580   -4.7757    0.4168 C   0  0  0  0  0  0  0  0  0  0  0  0
    3.4970   -3.3696    0.3319 C   0  0  0  0  0  0  0  0  0  0  0  0
    4.1544   -2.5732    1.2892 C   0  0  0  0  0  0  0  0  0  0  0  0
    4.8924   -3.1909    2.3184 C   0  0  0  0  0  0  0  0  0  0  0  0
    4.9721   -4.5952    2.3786 C   0  0  0  0  0  0  0  0  0  0  0  0
    5.4975   -7.5361    2.2951 C   0  0  0  0  0  0  0  0  0  0  0  0
    6.8011   -7.2940    1.8115 C   0  0  0  0  0  0  0  0  0  0  0  0
    7.9173   -7.8334    2.4705 C   0  0  0  0  0  0  0  0  0  0  0  0
    7.7478   -8.6524    3.5945 C   0  0  0  0  0  0  0  0  0  0  0  0
    6.4515   -8.9211    4.0620 C   0  0  0  0  0  0  0  0  0  0  0  0
    5.3125   -8.3528    3.4444 C   0  0  0  0  0  0  0  0  0  0  0  0
    0.8149   -8.8191    5.2141 N   0  0  2  0  0  0  0  0  0  0  0  0
   -0.6781   -8.6492    5.3365 C   0  0  0  0  0  0  0  0  0  0  0  0
    1.0487  -10.3030    5.0606 C   0  0  0  0  0  0  0  0  0  0  0  0
    5.6782   -5.0129    5.1836 H   0  0  0  0  0  0  0  0  0  0  0  0
    7.2312   -5.7083    4.8304 H   0  0  0  0  0  0  0  0  0  0  0  0
    7.1239   -4.2021    5.7284 H   0  0  0  0  0  0  0  0  0  0  0  0
    8.2386   -6.8708    8.1136 H   0  0  0  0  0  0  0  0  0  0  0  0
    8.6948   -5.4099    7.2477 H   0  0  0  0  0  0  0  0  0  0  0  0
    8.5256   -6.9192    6.3747 H   0  0  0  0  0  0  0  0  0  0  0  0
    6.6973   -5.3158    9.0246 H   0  0  0  0  0  0  0  0  0  0  0  0
    4.9237   -3.7956    9.1268 H   0  0  0  0  0  0  0  0  0  0  0  0
    4.2090   -2.9740    6.6971 H   0  0  0  0  0  0  0  0  0  0  0  0
    2.9738   -4.6017    5.5589 H   0  0  0  0  0  0  0  0  0  0  0  0
    3.5905   -6.4496    7.8742 H   0  0  0  0  0  0  0  0  0  0  0  0
    1.4430   -6.3444    7.4792 H   0  0  0  0  0  0  0  0  0  0  0  0
    1.4267   -6.1898    5.8210 H   0  0  0  0  0  0  0  0  0  0  0  0
    0.4272   -8.0189    7.1387 H   0  0  0  0  0  0  0  0  0  0  0  0
    1.4510  -10.2528    7.4780 H   0  0  0  0  0  0  0  0  0  0  0  0
    1.6802   -8.1155    9.5276 H   0  0  0  0  0  0  0  0  0  0  0  0
    0.4984   -9.4215    9.3866 H   0  0  0  0  0  0  0  0  0  0  0  0
    3.0095   -9.6166   10.7069 H   0  0  0  0  0  0  0  0  0  0  0  0
    2.0565  -11.0073   10.2154 H   0  0  0  0  0  0  0  0  0  0  0  0
    4.6066  -10.4549    9.1859 H   0  0  0  0  0  0  0  0  0  0  0  0
    3.4145  -11.4541    8.3488 H   0  0  0  0  0  0  0  0  0  0  0  0
    3.7952   -8.4778    8.2197 H   0  0  0  0  0  0  0  0  0  0  0  0
    4.5572  -10.5127    2.9962 H   0  0  0  0  0  0  0  0  0  0  0  0
    4.0322  -10.9422    4.5168 H   0  0  0  0  0  0  0  0  0  0  0  0
    2.4962  -10.4659    1.9456 H   0  0  0  0  0  0  0  0  0  0  0  0
    2.7808  -11.9000    2.7968 H   0  0  0  0  0  0  0  0  0  0  0  0
    0.8475  -11.8890    3.6764 H   0  0  0  0  0  0  0  0  0  0  0  0
    0.1802  -10.6186    1.6942 H   0  0  0  0  0  0  0  0  0  0  0  0
   -0.8886  -10.4016    3.0341 H   0  0  0  0  0  0  0  0  0  0  0  0
    0.7250   -8.4204    1.7051 H   0  0  0  0  0  0  0  0  0  0  0  0
   -0.6312   -8.1868    2.6706 H   0  0  0  0  0  0  0  0  0  0  0  0
    0.7709   -7.1258    3.9776 H   0  0  0  0  0  0  0  0  0  0  0  0
    3.7799   -6.2103    3.6162 H   0  0  0  0  0  0  0  0  0  0  0  0
    2.9375   -8.5090    1.4350 H   0  0  0  0  0  0  0  0  0  0  0  0
    2.1857   -6.9447    1.5099 H   0  0  0  0  0  0  0  0  0  0  0  0
    4.4952   -7.2655    0.4888 H   0  0  0  0  0  0  0  0  0  0  0  0
    3.0505   -5.3813   -0.3194 H   0  0  0  0  0  0  0  0  0  0  0  0
    2.9438   -2.8983   -0.4690 H   0  0  0  0  0  0  0  0  0  0  0  0
    4.1055   -1.4938    1.2242 H   0  0  0  0  0  0  0  0  0  0  0  0
    5.4068   -2.5852    3.0487 H   0  0  0  0  0  0  0  0  0  0  0  0
    5.5772   -5.0628    3.1304 H   0  0  0  0  0  0  0  0  0  0  0  0
    6.9499   -6.6900    0.9306 H   0  0  0  0  0  0  0  0  0  0  0  0
    8.9121   -7.6444    2.0963 H   0  0  0  0  0  0  0  0  0  0  0  0
    8.6028   -9.0818    4.0940 H   0  0  0  0  0  0  0  0  0  0  0  0
    6.3327   -9.5719    4.9146 H   0  0  0  0  0  0  0  0  0  0  0  0
   -1.2935   -9.0537    4.5410 H   0  0  0  0  0  0  0  0  0  0  0  0
   -0.9546   -7.5957    5.4133 H   0  0  0  0  0  0  0  0  0  0  0  0
   -1.0592   -9.1681    6.2182 H   0  0  0  0  0  0  0  0  0  0  0  0
    0.2512  -10.8509    5.5683 H   0  0  0  0  0  0  0  0  0  0  0  0
    1.9470  -10.6783    5.5293 H   0  0  0  0  0  0  0  0  0  0  0  0
    3.7397  -10.4844    6.0387 H   0  0  0  0  0  0  0  0  0  0  0  0
  1  2  1  0
  1 47  1  0
  1 48  1  0
  1 49  1  0
  2 19  1  0
  2  3  1  0
  2  4  1  0
  3 50  1  0
  3 51  1  0
  3 52  1  0
  4  5  2  3
  4 53  1  0
  5  6  1  0
  5 54  1  0
  6  7  2  3
  6 55  1  0
  7  8  1  0
  7 56  1  0
  8 18  1  0
  8  9  1  0
  8 57  1  1
  9 10  1  0
  9 58  1  0
  9 59  1  0
 10 44  1  0
 10 11  1  0
 10 60  1  1
 11 15  1  0
 11 12  1  0
 11 61  1  6
 12 13  1  0
 12 62  1  0
 12 63  1  0
 13 14  1  0
 13 64  1  0
 13 65  1  0
 14 15  1  0
 14 66  1  0
 14 67  1  0
 15 16  1  0
 15 68  1  1
 16 17  2  3
 16 97  1  0
 17 18  1  0
 17 21  1  0
 18 19  1  0
 19 20  2  0
 21 28  1  0
 21 43  1  6
 21 22  1  0
 22 23  1  0
 22 69  1  0
 22 70  1  0
 23 24  1  0
 23 71  1  0
 23 72  1  0
 24 46  1  0
 24 25  1  0
 24 73  1  1
 25 26  1  0
 25 74  1  0
 25 75  1  0
 26 27  1  0
 26 76  1  0
 26 77  1  0
 27 28  1  0
 27 44  1  0
 27 78  1  1
 28 29  1  1
 28 30  1  0
 29 79  1  0
 30 31  1  0
 30 80  1  0
 30 81  1  0
 31 32  1  0
 31 38  1  0
 31 82  1  6
 32 37  1  0
 32 33  2  0
 33 34  1  0
 33 83  1  0
 34 35  2  0
 34 84  1  0
 35 36  1  0
 35 85  1  0
 36 37  2  0
 36 86  1  0
 37 87  1  0
 38 43  2  0
 38 39  1  0
 39 40  2  0
 39 88  1  0
 40 41  1  0
 40 89  1  0
 41 42  2  0
 41 90  1  0
 42 43  1  0
 42 91  1  0
 44 45  1  1
 44 46  1  0
 45 92  1  0
 45 93  1  0
 45 94  1  0
 46 95  1  0
 46 96  1  0
M  CHG  2  16   1  44   1
M  END
>  <i_m_ct_stereo_status>  (140) 
1

>  <s_m_source_file>  (140) 
/var/tmp/pbs.5076255.sched01/tmpqm933_o1/456x1pmp19.sdf

>  <i_m_source_file_index>  (140) 
12

>  <i_lp_mmshare_version>  (140) 
48012

>  <i_f3d_flags>  (140) 
0

>  <s_epik_input>  (140) 
Tz1DMUMoW0NIM10pKFtDSDNdKS9bQ0hdPVtDSF1cW0NIXT1bQ0hdL1tDQEhdKE4xL0MyW0NAQF0zNDUpW0NIMl1bQ0hdKFtDQEhdNltDQEhdKC9OPTIpW0NIMl1bQ0gyXVtDSDJdNilbTkBAK103KFtDSDNdKVtDQEhdKFtDSDJdW0NIMl1bQ0BIXShbQ0gyXTcpW0NIMl1bQ0gyXTMpW0NAXTQoW09IXSlbQ0gyXVtDQEBIXShjOFtjSF1bY0hdW2NIXVtjSF1bY0hdOCljOWM1W2NIXVtjSF1bY0hdW2NIXTk=

>  <s_epik_cmdline>  (140) 
J2VwaWtfcHl0aG9uJywgJy1waHQnLCAnMi4wJywgJy1waCcsICc3LjAnLCAnLXRuJywgJzgnLCAnLW1hJywgJzIwMCcsICctaW1hZScsICc8aW5maWxlLm1hZT4nLCAnLW9tYWUnLCAnPG91dGZpbGUubWFlPic=

>  <r_epik_Ionization_Penalty>  (140) 
1.89798

>  <r_epik_Ionization_Penalty_Charging>  (140) 
1.89749

>  <r_epik_Ionization_Penalty_Neutral>  (140) 
0.000490901

>  <r_epik_State_Penalty>  (140) 
2.0185

>  <r_epik_Charging_Adjusted_Penalty>  (140) 
3.91599

>  <i_epik_Tot_Q>  (140) 
2

>  <i_epik_Tot_abs_Q>  (140) 
2

>  <s_epik_Chemistry_Notes>  (140) 
This compound has an imine and may undergo hydrolysis.

>  <s_lp_Force_Field>  (140) 
OPLS3e

>  <r_lp_Energy>  (140) 
242.182

>  <b_lp_Chiralities_Consistent>  (140) 
1

>  <s_lp_Variant>  (140) 
33:0-9

>  <s_i_glide_gridfile>  (140) 
pfpi4k_grid

>  <i_i_glide_lignum>  (140) 
12

>  <i_i_glide_rotatable_bonds>  (140) 
2

>  <r_i_docking_score>  (140) 
-2.58596

>  <r_i_glide_ligand_efficiency>  (140) 
-0.0562166

>  <r_i_glide_ligand_efficiency_sa>  (140) 
-0.201427

>  <r_i_glide_ligand_efficiency_ln>  (140) 
-0.535547

>  <r_i_glide_gscore>  (140) 
-2.58596

>  <r_i_glide_lipo>  (140) 
-0.530051

>  <r_i_glide_hbond>  (140) 
0

>  <r_i_glide_metal>  (140) 
-0

>  <r_i_glide_rewards>  (140) 
0

>  <r_i_glide_evdw>  (140) 
-25.5454

>  <r_i_glide_ecoul>  (140) 
-5.19403

>  <r_i_glide_erotb>  (140) 
0.0552374

>  <r_i_glide_esite>  (140) 
-0.0547727

>  <r_i_glide_emodel>  (140) 
-37.1998

>  <r_i_glide_energy>  (140) 
-30.7395

>  <r_i_glide_einternal>  (140) 
0.0297545

>  <r_i_glide_intrahb_reward>  (140) 
-0

>  <i_i_glide_confnum>  (140) 
1

>  <i_i_glide_posenum>  (140) 
6

>  <r_i_glide_eff_state_penalty>  (140) 
0

>  <ligand_id>  (140) 
33

>  <original_smiles>  (140) 
CC1(C)C=CC=CC2CC3C4CCCC4N=C(N2C1=O)C12CCC4CCC(C1(O)CC(c1ccccc1)c1ccccc12)[N+]3(C)C4

>  <smiles>  (140) 
[H]OC12C([H])([H])C([H])(c3c([H])c([H])c([H])c([H])c3[H])c3c([H])c([H])c([H])c([H])c3C13C1=[N+]([H])C4([H])C([H])([H])C([H])([H])C([H])([H])C4([H])C([H])(C([H])([H])C4([H])C([H])=C([H])C([H])=C([H])C(C([H])([H])[H])(C([H])([H])[H])C(=O)N14)[N+]1(C([H])([H])[H])C([H])([H])C([H])(C([H])([H])C3([H])[H])C([H])([H])C([H])([H])C21[H]

$$$$
33:8:2
     RDKit          3D

 97105  0  0  1  0  0  0  0  0999 V2000
    6.6424   -5.2974    5.7296 C   0  0  0  0  0  0  0  0  0  0  0  0
    6.4934   -6.0279    7.0827 C   0  0  0  0  0  0  0  0  0  0  0  0
    7.9598   -6.3925    7.4470 C   0  0  0  0  0  0  0  0  0  0  0  0
    5.9805   -5.1366    8.2139 C   0  0  0  0  0  0  0  0  0  0  0  0
    4.9885   -4.2278    8.1773 C   0  0  0  0  0  0  0  0  0  0  0  0
    4.1666   -3.9749    7.0189 C   0  0  0  0  0  0  0  0  0  0  0  0
    3.4858   -4.9339    6.3690 C   0  0  0  0  0  0  0  0  0  0  0  0
    3.2941   -6.3890    6.8132 C   0  0  1  0  0  0  0  0  0  0  0  0
    1.7884   -6.7452    6.5465 C   0  0  0  0  0  0  0  0  0  0  0  0
    1.1839   -8.1902    6.5767 C   0  0  2  0  0  0  0  0  0  0  0  0
    1.6323   -9.1611    7.7473 C   0  0  2  0  0  0  0  0  0  0  0  0
    1.2237   -8.9434    9.2118 C   0  0  0  0  0  0  0  0  0  0  0  0
    2.1720   -9.8981    9.9962 C   0  0  0  0  0  0  0  0  0  0  0  0
    3.2702  -10.3412    9.0114 C   0  0  0  0  0  0  0  0  0  0  0  0
    3.1250   -9.2896    7.9283 C   0  0  1  0  0  0  0  0  0  0  0  0
    3.6769   -9.5596    6.6210 N   0  0  0  0  0  0  0  0  0  0  0  0
    3.9332   -8.5472    5.7447 C   0  0  0  0  0  0  0  0  0  0  0  0
    4.3373   -7.3171    6.2285 N   0  0  0  0  0  0  0  0  0  0  0  0
    5.6453   -7.3213    6.9191 C   0  0  0  0  0  0  0  0  0  0  0  0
    6.1037   -8.3915    7.3212 O   0  0  0  0  0  0  0  0  0  0  0  0
    3.9109   -8.8464    4.2254 C   0  0  1  0  0  0  0  0  0  0  0  0
    3.7200  -10.4075    3.9452 C   0  0  0  0  0  0  0  0  0  0  0  0
    2.5197  -10.9987    3.1616 C   0  0  0  0  0  0  0  0  0  0  0  0
    1.0848  -10.9293    3.7351 C   0  0  2  0  0  0  0  0  0  0  0  0
    0.1385  -10.2895    2.7264 C   0  0  0  0  0  0  0  0  0  0  0  0
    0.3949   -8.7818    2.6551 C   0  0  0  0  0  0  0  0  0  0  0  0
    1.2088   -8.1965    3.8789 C   0  0  2  0  0  0  0  0  0  0  0  0
    2.7832   -7.9576    3.5299 C   0  0  1  0  0  0  0  0  0  0  0  0
    2.9534   -6.6082    3.8766 O   0  0  0  0  0  0  0  0  0  0  0  0
    3.0921   -7.7749    2.0023 C   0  0  0  0  0  0  0  0  0  0  0  0
    4.4779   -7.2168    1.6202 C   0  0  1  0  0  0  0  0  0  0  0  0
    4.4946   -5.6816    1.5037 C   0  0  0  0  0  0  0  0  0  0  0  0
    5.1581   -4.8868    2.4577 C   0  0  0  0  0  0  0  0  0  0  0  0
    5.1508   -3.4840    2.3817 C   0  0  0  0  0  0  0  0  0  0  0  0
    4.4978   -2.8462    1.3120 C   0  0  0  0  0  0  0  0  0  0  0  0
    3.8413   -3.6231    0.3364 C   0  0  0  0  0  0  0  0  0  0  0  0
    3.8313   -5.0324    0.4373 C   0  0  0  0  0  0  0  0  0  0  0  0
    5.5881   -7.8130    2.4813 C   0  0  0  0  0  0  0  0  0  0  0  0
    6.9252   -7.6259    2.0644 C   0  0  0  0  0  0  0  0  0  0  0  0
    7.9948   -8.1449    2.8139 C   0  0  0  0  0  0  0  0  0  0  0  0
    7.7377   -8.8988    3.9674 C   0  0  0  0  0  0  0  0  0  0  0  0
    6.4105   -9.1125    4.3741 C   0  0  0  0  0  0  0  0  0  0  0  0
    5.3212   -8.5566    3.6625 C   0  0  0  0  0  0  0  0  0  0  0  0
    0.7216   -8.8213    5.2136 N   0  0  2  0  0  0  0  0  0  0  0  0
   -0.7725   -8.6116    5.2516 C   0  0  0  0  0  0  0  0  0  0  0  0
    0.9355  -10.3138    5.1448 C   0  0  0  0  0  0  0  0  0  0  0  0
    5.6885   -5.1239    5.2602 H   0  0  0  0  0  0  0  0  0  0  0  0
    7.2320   -5.8831    5.0204 H   0  0  0  0  0  0  0  0  0  0  0  0
    7.1307   -4.3271    5.8337 H   0  0  0  0  0  0  0  0  0  0  0  0
    8.0384   -6.8983    8.4124 H   0  0  0  0  0  0  0  0  0  0  0  0
    8.5810   -5.4938    7.5008 H   0  0  0  0  0  0  0  0  0  0  0  0
    8.4167   -7.0430    6.6954 H   0  0  0  0  0  0  0  0  0  0  0  0
    6.4894   -5.2627    9.1595 H   0  0  0  0  0  0  0  0  0  0  0  0
    4.7544   -3.6970    9.0871 H   0  0  0  0  0  0  0  0  0  0  0  0
    4.1928   -2.9851    6.5843 H   0  0  0  0  0  0  0  0  0  0  0  0
    2.9827   -4.6293    5.4616 H   0  0  0  0  0  0  0  0  0  0  0  0
    3.4232   -6.3812    7.8955 H   0  0  0  0  0  0  0  0  0  0  0  0
    1.3042   -6.2436    7.3846 H   0  0  0  0  0  0  0  0  0  0  0  0
    1.3664   -6.1695    5.7248 H   0  0  0  0  0  0  0  0  0  0  0  0
    0.2558   -7.9081    7.0720 H   0  0  0  0  0  0  0  0  0  0  0  0
    1.1966  -10.1425    7.5790 H   0  0  0  0  0  0  0  0  0  0  0  0
    1.3829   -7.9098    9.5266 H   0  0  0  0  0  0  0  0  0  0  0  0
    0.1751   -9.1900    9.3892 H   0  0  0  0  0  0  0  0  0  0  0  0
    2.6048   -9.3804   10.8524 H   0  0  0  0  0  0  0  0  0  0  0  0
    1.6450  -10.7712   10.3779 H   0  0  0  0  0  0  0  0  0  0  0  0
    4.2616  -10.3288    9.4648 H   0  0  0  0  0  0  0  0  0  0  0  0
    3.0842  -11.3416    8.6191 H   0  0  0  0  0  0  0  0  0  0  0  0
    3.5529   -8.3878    8.3553 H   0  0  0  0  0  0  0  0  0  0  0  0
    4.5365  -10.7138    3.2900 H   0  0  0  0  0  0  0  0  0  0  0  0
    3.9187  -11.0490    4.7999 H   0  0  0  0  0  0  0  0  0  0  0  0
    2.5363  -10.6673    2.1225 H   0  0  0  0  0  0  0  0  0  0  0  0
    2.7371  -12.0652    3.0583 H   0  0  0  0  0  0  0  0  0  0  0  0
    0.7591  -11.9625    3.8311 H   0  0  0  0  0  0  0  0  0  0  0  0
    0.2183  -10.7520    1.7382 H   0  0  0  0  0  0  0  0  0  0  0  0
   -0.8934  -10.4711    3.0193 H   0  0  0  0  0  0  0  0  0  0  0  0
    0.8341   -8.5942    1.6878 H   0  0  0  0  0  0  0  0  0  0  0  0
   -0.5702   -8.2805    2.5643 H   0  0  0  0  0  0  0  0  0  0  0  0
    0.7792   -7.1924    3.8934 H   0  0  0  0  0  0  0  0  0  0  0  0
    2.8868   -6.5178    4.8103 H   0  0  0  0  0  0  0  0  0  0  0  0
    3.0504   -8.7571    1.5363 H   0  0  0  0  0  0  0  0  0  0  0  0
    2.3375   -7.1713    1.4967 H   0  0  0  0  0  0  0  0  0  0  0  0
    4.6786   -7.5753    0.6099 H   0  0  0  0  0  0  0  0  0  0  0  0
    5.6886   -5.3757    3.2480 H   0  0  0  0  0  0  0  0  0  0  0  0
    5.6566   -2.8992    3.1332 H   0  0  0  0  0  0  0  0  0  0  0  0
    4.5064   -1.7663    1.2339 H   0  0  0  0  0  0  0  0  0  0  0  0
    3.3462   -3.1358   -0.4924 H   0  0  0  0  0  0  0  0  0  0  0  0
    3.3237   -5.6225   -0.3139 H   0  0  0  0  0  0  0  0  0  0  0  0
    7.1374   -7.0653    1.1692 H   0  0  0  0  0  0  0  0  0  0  0  0
    9.0105   -7.9970    2.4867 H   0  0  0  0  0  0  0  0  0  0  0  0
    8.5507   -9.3207    4.5368 H   0  0  0  0  0  0  0  0  0  0  0  0
    6.2299   -9.7119    5.2538 H   0  0  0  0  0  0  0  0  0  0  0  0
   -1.3505   -9.0452    4.4443 H   0  0  0  0  0  0  0  0  0  0  0  0
   -1.0266   -7.5490    5.2685 H   0  0  0  0  0  0  0  0  0  0  0  0
   -1.2167   -9.0741    6.1318 H   0  0  0  0  0  0  0  0  0  0  0  0
    0.1099  -10.8203    5.6479 H   0  0  0  0  0  0  0  0  0  0  0  0
    1.8001  -10.6806    5.6795 H   0  0  0  0  0  0  0  0  0  0  0  0
    3.5604  -10.5050    6.2801 H   0  0  0  0  0  0  0  0  0  0  0  0
  1  2  1  0
  1 47  1  0
  1 48  1  0
  1 49  1  0
  2 19  1  0
  2  3  1  0
  2  4  1  0
  3 50  1  0
  3 51  1  0
  3 52  1  0
  4  5  2  3
  4 53  1  0
  5  6  1  0
  5 54  1  0
  6  7  2  3
  6 55  1  0
  7  8  1  0
  7 56  1  0
  8 18  1  0
  8  9  1  0
  8 57  1  1
  9 10  1  0
  9 58  1  0
  9 59  1  0
 10 44  1  0
 10 11  1  0
 10 60  1  1
 11 15  1  0
 11 12  1  0
 11 61  1  6
 12 13  1  0
 12 62  1  0
 12 63  1  0
 13 14  1  0
 13 64  1  0
 13 65  1  0
 14 15  1  0
 14 66  1  0
 14 67  1  0
 15 16  1  0
 15 68  1  1
 16 17  2  3
 16 97  1  0
 17 18  1  0
 17 21  1  0
 18 19  1  0
 19 20  2  0
 21 28  1  0
 21 43  1  6
 21 22  1  0
 22 23  1  0
 22 69  1  0
 22 70  1  0
 23 24  1  0
 23 71  1  0
 23 72  1  0
 24 46  1  0
 24 25  1  0
 24 73  1  1
 25 26  1  0
 25 74  1  0
 25 75  1  0
 26 27  1  0
 26 76  1  0
 26 77  1  0
 27 28  1  0
 27 44  1  0
 27 78  1  1
 28 29  1  1
 28 30  1  0
 29 79  1  0
 30 31  1  0
 30 80  1  0
 30 81  1  0
 31 32  1  0
 31 38  1  0
 31 82  1  6
 32 37  1  0
 32 33  2  0
 33 34  1  0
 33 83  1  0
 34 35  2  0
 34 84  1  0
 35 36  1  0
 35 85  1  0
 36 37  2  0
 36 86  1  0
 37 87  1  0
 38 43  2  0
 38 39  1  0
 39 40  2  0
 39 88  1  0
 40 41  1  0
 40 89  1  0
 41 42  2  0
 41 90  1  0
 42 43  1  0
 42 91  1  0
 44 45  1  6
 44 46  1  0
 45 92  1  0
 45 93  1  0
 45 94  1  0
 46 95  1  0
 46 96  1  0
M  CHG  2  16   1  44   1
M  END
>  <i_m_ct_stereo_status>  (141) 
1

>  <s_m_source_file>  (141) 
/var/tmp/pbs.5076255.sched01/tmpqm933_o1/456x1pmp19.sdf

>  <i_m_source_file_index>  (141) 
12

>  <i_lp_mmshare_version>  (141) 
48012

>  <i_f3d_flags>  (141) 
0

>  <s_epik_input>  (141) 
Tz1DMUMoW0NIM10pKFtDSDNdKS9bQ0hdPVtDSF1cW0NIXT1bQ0hdL1tDQEhdKE4xL0MyW0NAQF0zNDUpW0NIMl1bQ0hdKFtDQEhdNltDQEhdKC9OPTIpW0NIMl1bQ0gyXVtDSDJdNilbTkBAK103KFtDSDNdKVtDQEhdKFtDSDJdW0NIMl1bQ0BIXShbQ0gyXTcpW0NIMl1bQ0gyXTMpW0NAXTQoW09IXSlbQ0gyXVtDQEBIXShjOFtjSF1bY0hdW2NIXVtjSF1bY0hdOCljOWM1W2NIXVtjSF1bY0hdW2NIXTk=

>  <s_epik_cmdline>  (141) 
J2VwaWtfcHl0aG9uJywgJy1waHQnLCAnMi4wJywgJy1waCcsICc3LjAnLCAnLXRuJywgJzgnLCAnLW1hJywgJzIwMCcsICctaW1hZScsICc8aW5maWxlLm1hZT4nLCAnLW9tYWUnLCAnPG91dGZpbGUubWFlPic=

>  <r_epik_Ionization_Penalty>  (141) 
1.89798

>  <r_epik_Ionization_Penalty_Charging>  (141) 
1.89749

>  <r_epik_Ionization_Penalty_Neutral>  (141) 
0.000490901

>  <r_epik_State_Penalty>  (141) 
2.0185

>  <r_epik_Charging_Adjusted_Penalty>  (141) 
3.91599

>  <i_epik_Tot_Q>  (141) 
2

>  <i_epik_Tot_abs_Q>  (141) 
2

>  <s_epik_Chemistry_Notes>  (141) 
This compound has an imine and may undergo hydrolysis.

>  <s_lp_Force_Field>  (141) 
OPLS3e

>  <r_lp_Energy>  (141) 
242.182

>  <b_lp_Chiralities_Consistent>  (141) 
1

>  <s_lp_Variant>  (141) 
33:0-9

>  <s_i_glide_gridfile>  (141) 
pfpi4k_grid

>  <i_i_glide_lignum>  (141) 
12

>  <i_i_glide_rotatable_bonds>  (141) 
2

>  <r_i_docking_score>  (141) 
-2.57575

>  <r_i_glide_ligand_efficiency>  (141) 
-0.0559945

>  <r_i_glide_ligand_efficiency_sa>  (141) 
-0.200631

>  <r_i_glide_ligand_efficiency_ln>  (141) 
-0.533431

>  <r_i_glide_gscore>  (141) 
-2.57575

>  <r_i_glide_lipo>  (141) 
-0.554577

>  <r_i_glide_hbond>  (141) 
0

>  <r_i_glide_metal>  (141) 
-0

>  <r_i_glide_rewards>  (141) 
0

>  <r_i_glide_evdw>  (141) 
-25.0692

>  <r_i_glide_ecoul>  (141) 
-5.05307

>  <r_i_glide_erotb>  (141) 
0.0552374

>  <r_i_glide_esite>  (141) 
-0.0649876

>  <r_i_glide_emodel>  (141) 
-36.3558

>  <r_i_glide_energy>  (141) 
-30.1223

>  <r_i_glide_einternal>  (141) 
0.358084

>  <r_i_glide_intrahb_reward>  (141) 
-0

>  <i_i_glide_confnum>  (141) 
2

>  <i_i_glide_posenum>  (141) 
24

>  <r_i_glide_eff_state_penalty>  (141) 
0

>  <ligand_id>  (141) 
33

>  <original_smiles>  (141) 
CC1(C)C=CC=CC2CC3C4CCCC4N=C(N2C1=O)C12CCC4CCC(C1(O)CC(c1ccccc1)c1ccccc12)[N+]3(C)C4

>  <smiles>  (141) 
[H]OC12C([H])([H])C([H])(c3c([H])c([H])c([H])c([H])c3[H])c3c([H])c([H])c([H])c([H])c3C13C1=[N+]([H])C4([H])C([H])([H])C([H])([H])C([H])([H])C4([H])C([H])(C([H])([H])C4([H])C([H])=C([H])C([H])=C([H])C(C([H])([H])[H])(C([H])([H])[H])C(=O)N14)[N+]1(C([H])([H])[H])C([H])([H])C([H])(C([H])([H])C3([H])[H])C([H])([H])C([H])([H])C21[H]

$$$$
33:9:0
     RDKit          3D

 97105  0  0  1  0  0  0  0  0999 V2000
    7.1507   -5.1371    8.0429 C   0  0  0  0  0  0  0  0  0  0  0  0
    5.6465   -5.2570    7.6773 C   0  0  0  0  0  0  0  0  0  0  0  0
    4.8579   -5.0050    8.9899 C   0  0  0  0  0  0  0  0  0  0  0  0
    5.3897   -4.2487    6.6009 C   0  0  0  0  0  0  0  0  0  0  0  0
    4.2925   -3.4903    6.5435 C   0  0  0  0  0  0  0  0  0  0  0  0
    3.5684   -3.6776    5.3287 C   0  0  0  0  0  0  0  0  0  0  0  0
    3.1004   -4.9118    5.0596 C   0  0  0  0  0  0  0  0  0  0  0  0
    2.9844   -6.1246    6.0377 C   0  0  1  0  0  0  0  0  0  0  0  0
    1.5979   -6.8213    5.7250 C   0  0  0  0  0  0  0  0  0  0  0  0
    1.2078   -8.3331    5.9287 C   0  0  2  0  0  0  0  0  0  0  0  0
    1.5051   -9.0260    7.3336 C   0  0  2  0  0  0  0  0  0  0  0  0
    0.5630   -8.7882    8.5316 C   0  0  0  0  0  0  0  0  0  0  0  0
    1.3810   -9.2204    9.7749 C   0  0  0  0  0  0  0  0  0  0  0  0
    2.8220   -9.4379    9.2940 C   0  0  0  0  0  0  0  0  0  0  0  0
    2.8334   -8.7018    7.9648 C   0  0  1  0  0  0  0  0  0  0  0  0
    3.7921   -9.1617    6.9928 N   0  0  0  0  0  0  0  0  0  0  0  0
    4.0752   -8.3693    5.9379 C   0  0  0  0  0  0  0  0  0  0  0  0
    4.2250   -7.0106    6.1578 N   0  0  0  0  0  0  0  0  0  0  0  0
    5.3053   -6.6897    7.1581 C   0  0  0  0  0  0  0  0  0  0  0  0
    5.9853   -7.6091    7.6104 O   0  0  0  0  0  0  0  0  0  0  0  0
    4.4019   -9.0929    4.6149 C   0  0  1  0  0  0  0  0  0  0  0  0
    4.3358  -10.6748    4.7533 C   0  0  0  0  0  0  0  0  0  0  0  0
    3.1279  -11.5110    5.2748 C   0  0  0  0  0  0  0  0  0  0  0  0
    1.8171  -11.5914    4.4775 C   0  0  2  0  0  0  0  0  0  0  0  0
    1.9973  -11.5992    2.9549 C   0  0  0  0  0  0  0  0  0  0  0  0
    1.6042  -10.2389    2.3941 C   0  0  0  0  0  0  0  0  0  0  0  0
    1.8674   -9.0628    3.3992 C   0  0  2  0  0  0  0  0  0  0  0  0
    3.4231   -8.6268    3.4481 C   0  0  1  0  0  0  0  0  0  0  0  0
    3.3318   -7.2379    3.4334 O   0  0  0  0  0  0  0  0  0  0  0  0
    4.1179   -8.8336    2.0585 C   0  0  0  0  0  0  0  0  0  0  0  0
    5.4770   -8.1330    1.8631 C   0  0  1  0  0  0  0  0  0  0  0  0
    5.3538   -6.6529    1.4605 C   0  0  0  0  0  0  0  0  0  0  0  0
    4.6641   -6.3186    0.2735 C   0  0  0  0  0  0  0  0  0  0  0  0
    4.5173   -4.9758   -0.1211 C   0  0  0  0  0  0  0  0  0  0  0  0
    5.0543   -3.9471    0.6679 C   0  0  0  0  0  0  0  0  0  0  0  0
    5.7445   -4.2623    1.8509 C   0  0  0  0  0  0  0  0  0  0  0  0
    5.8908   -5.6063    2.2463 C   0  0  0  0  0  0  0  0  0  0  0  0
    6.3957   -8.3992    3.0390 C   0  0  0  0  0  0  0  0  0  0  0  0
    7.7824   -8.2002    2.8516 C   0  0  0  0  0  0  0  0  0  0  0  0
    8.6919   -8.4405    3.8929 C   0  0  0  0  0  0  0  0  0  0  0  0
    8.2231   -8.9206    5.1214 C   0  0  0  0  0  0  0  0  0  0  0  0
    6.8476   -9.1357    5.3046 C   0  0  0  0  0  0  0  0  0  0  0  0
    5.9023   -8.8558    4.2887 C   0  0  0  0  0  0  0  0  0  0  0  0
    0.9266   -9.1695    4.6330 N   0  0  2  0  0  0  0  0  0  0  0  0
   -0.4248   -8.6713    4.1449 C   0  0  0  0  0  0  0  0  0  0  0  0
    0.6828  -10.6317    4.9116 C   0  0  0  0  0  0  0  0  0  0  0  0
    7.8009   -5.3656    7.1967 H   0  0  0  0  0  0  0  0  0  0  0  0
    7.4328   -5.8033    8.8617 H   0  0  0  0  0  0  0  0  0  0  0  0
    7.3960   -4.1247    8.3717 H   0  0  0  0  0  0  0  0  0  0  0  0
    3.7787   -5.0999    8.8756 H   0  0  0  0  0  0  0  0  0  0  0  0
    5.0583   -4.0100    9.3955 H   0  0  0  0  0  0  0  0  0  0  0  0
    5.1491   -5.7238    9.7606 H   0  0  0  0  0  0  0  0  0  0  0  0
    5.8502   -4.5379    5.6663 H   0  0  0  0  0  0  0  0  0  0  0  0
    3.7102   -3.2824    7.4260 H   0  0  0  0  0  0  0  0  0  0  0  0
    3.5265   -2.8976    4.5828 H   0  0  0  0  0  0  0  0  0  0  0  0
    2.6424   -5.0185    4.0891 H   0  0  0  0  0  0  0  0  0  0  0  0
    2.8466   -5.6855    7.0213 H   0  0  0  0  0  0  0  0  0  0  0  0
    0.9054   -6.2702    6.3633 H   0  0  0  0  0  0  0  0  0  0  0  0
    1.2604   -6.5205    4.7351 H   0  0  0  0  0  0  0  0  0  0  0  0
    0.1783   -8.1475    6.2272 H   0  0  0  0  0  0  0  0  0  0  0  0
    1.5093  -10.1011    7.2379 H   0  0  0  0  0  0  0  0  0  0  0  0
    0.2822   -7.7378    8.6183 H   0  0  0  0  0  0  0  0  0  0  0  0
   -0.3523   -9.3719    8.4335 H   0  0  0  0  0  0  0  0  0  0  0  0
    1.3431   -8.4472   10.5420 H   0  0  0  0  0  0  0  0  0  0  0  0
    0.9988  -10.1365   10.2230 H   0  0  0  0  0  0  0  0  0  0  0  0
    3.5501   -9.0260    9.9937 H   0  0  0  0  0  0  0  0  0  0  0  0
    3.0410  -10.4975    9.1581 H   0  0  0  0  0  0  0  0  0  0  0  0
    2.9132   -7.6376    8.1774 H   0  0  0  0  0  0  0  0  0  0  0  0
    4.6585  -11.1075    3.8084 H   0  0  0  0  0  0  0  0  0  0  0  0
    5.1220  -10.9883    5.4360 H   0  0  0  0  0  0  0  0  0  0  0  0
    3.4966  -12.5392    5.2940 H   0  0  0  0  0  0  0  0  0  0  0  0
    2.9215  -11.3549    6.3236 H   0  0  0  0  0  0  0  0  0  0  0  0
    1.4255  -12.5798    4.7142 H   0  0  0  0  0  0  0  0  0  0  0  0
    3.0128  -11.8681    2.6547 H   0  0  0  0  0  0  0  0  0  0  0  0
    1.3518  -12.3630    2.5078 H   0  0  0  0  0  0  0  0  0  0  0  0
    2.0504  -10.0970    1.4153 H   0  0  0  0  0  0  0  0  0  0  0  0
    0.5475  -10.3051    2.1381 H   0  0  0  0  0  0  0  0  0  0  0  0
    1.4244   -8.2555    2.8148 H   0  0  0  0  0  0  0  0  0  0  0  0
    2.9858   -6.9585    2.5950 H   0  0  0  0  0  0  0  0  0  0  0  0
    4.2995   -9.9033    1.9338 H   0  0  0  0  0  0  0  0  0  0  0  0
    3.4658   -8.5618    1.2272 H   0  0  0  0  0  0  0  0  0  0  0  0
    5.9517   -8.6193    1.0105 H   0  0  0  0  0  0  0  0  0  0  0  0
    4.2520   -7.0947   -0.3536 H   0  0  0  0  0  0  0  0  0  0  0  0
    3.9906   -4.7383   -1.0348 H   0  0  0  0  0  0  0  0  0  0  0  0
    4.9376   -2.9171    0.3615 H   0  0  0  0  0  0  0  0  0  0  0  0
    6.1633   -3.4732    2.4555 H   0  0  0  0  0  0  0  0  0  0  0  0
    6.4238   -5.8131    3.1616 H   0  0  0  0  0  0  0  0  0  0  0  0
    8.1597   -7.8459    1.9043 H   0  0  0  0  0  0  0  0  0  0  0  0
    9.7497   -8.2745    3.7381 H   0  0  0  0  0  0  0  0  0  0  0  0
    8.9105   -9.1237    5.9299 H   0  0  0  0  0  0  0  0  0  0  0  0
    6.5179   -9.5232    6.2555 H   0  0  0  0  0  0  0  0  0  0  0  0
   -0.7569   -9.1282    3.2145 H   0  0  0  0  0  0  0  0  0  0  0  0
   -0.4430   -7.5967    3.9620 H   0  0  0  0  0  0  0  0  0  0  0  0
   -1.2271   -8.8921    4.8531 H   0  0  0  0  0  0  0  0  0  0  0  0
   -0.1496  -10.9749    4.2929 H   0  0  0  0  0  0  0  0  0  0  0  0
    0.2789  -10.8586    5.8935 H   0  0  0  0  0  0  0  0  0  0  0  0
    3.8908  -10.1621    6.8904 H   0  0  0  0  0  0  0  0  0  0  0  0
  1  2  1  0
  1 47  1  0
  1 48  1  0
  1 49  1  0
  2 19  1  0
  2  3  1  0
  2  4  1  0
  3 50  1  0
  3 51  1  0
  3 52  1  0
  4  5  2  3
  4 53  1  0
  5  6  1  0
  5 54  1  0
  6  7  2  3
  6 55  1  0
  7  8  1  0
  7 56  1  0
  8 18  1  0
  8  9  1  0
  8 57  1  1
  9 10  1  0
  9 58  1  0
  9 59  1  0
 10 44  1  0
 10 11  1  0
 10 60  1  1
 11 15  1  0
 11 12  1  0
 11 61  1  6
 12 13  1  0
 12 62  1  0
 12 63  1  0
 13 14  1  0
 13 64  1  0
 13 65  1  0
 14 15  1  0
 14 66  1  0
 14 67  1  0
 15 16  1  0
 15 68  1  1
 16 17  2  3
 16 97  1  0
 17 18  1  0
 17 21  1  0
 18 19  1  0
 19 20  2  0
 21 28  1  0
 21 43  1  6
 21 22  1  0
 22 23  1  0
 22 69  1  0
 22 70  1  0
 23 24  1  0
 23 71  1  0
 23 72  1  0
 24 46  1  0
 24 25  1  0
 24 73  1  1
 25 26  1  0
 25 74  1  0
 25 75  1  0
 26 27  1  0
 26 76  1  0
 26 77  1  0
 27 28  1  0
 27 44  1  0
 27 78  1  6
 28 29  1  1
 28 30  1  0
 29 79  1  0
 30 31  1  0
 30 80  1  0
 30 81  1  0
 31 32  1  0
 31 38  1  0
 31 82  1  6
 32 37  1  0
 32 33  2  0
 33 34  1  0
 33 83  1  0
 34 35  2  0
 34 84  1  0
 35 36  1  0
 35 85  1  0
 36 37  2  0
 36 86  1  0
 37 87  1  0
 38 43  2  0
 38 39  1  0
 39 40  2  0
 39 88  1  0
 40 41  1  0
 40 89  1  0
 41 42  2  0
 41 90  1  0
 42 43  1  0
 42 91  1  0
 44 45  1  6
 44 46  1  0
 45 92  1  0
 45 93  1  0
 45 94  1  0
 46 95  1  0
 46 96  1  0
M  CHG  2  16   1  44   1
M  END
>  <i_m_ct_stereo_status>  (142) 
1

>  <s_m_source_file>  (142) 
/var/tmp/pbs.5076255.sched01/tmpqm933_o1/456x1pmp19.sdf

>  <i_m_source_file_index>  (142) 
13

>  <i_lp_mmshare_version>  (142) 
48012

>  <i_f3d_flags>  (142) 
0

>  <s_epik_input>  (142) 
Tz1DMUMoW0NIM10pKFtDSDNdKS9bQ0hdPVtDSF1cW0NIXT1bQ0hdL1tDQEhdKE4xL0MyW0NAQF0zNDUpW0NIMl1bQ0hdKFtDQEhdNltDQEhdKC9OPTIpW0NIMl1bQ0gyXVtDSDJdNilbTkBAK103KFtDSDNdKVtDQEhdKFtDSDJdW0NIMl1bQ0BIXShbQ0gyXTcpW0NIMl1bQ0gyXTMpW0NAXTQoW09IXSlbQ0gyXVtDQEBIXShjOFtjSF1bY0hdW2NIXVtjSF1bY0hdOCljOWM1W2NIXVtjSF1bY0hdW2NIXTk=

>  <s_epik_cmdline>  (142) 
J2VwaWtfcHl0aG9uJywgJy1waHQnLCAnMi4wJywgJy1waCcsICc3LjAnLCAnLXRuJywgJzgnLCAnLW1hJywgJzIwMCcsICctaW1hZScsICc8aW5maWxlLm1hZT4nLCAnLW9tYWUnLCAnPG91dGZpbGUubWFlPic=

>  <r_epik_Ionization_Penalty>  (142) 
1.89798

>  <r_epik_Ionization_Penalty_Charging>  (142) 
1.89749

>  <r_epik_Ionization_Penalty_Neutral>  (142) 
0.000490901

>  <r_epik_State_Penalty>  (142) 
2.0185

>  <r_epik_Charging_Adjusted_Penalty>  (142) 
3.91599

>  <i_epik_Tot_Q>  (142) 
2

>  <i_epik_Tot_abs_Q>  (142) 
2

>  <s_epik_Chemistry_Notes>  (142) 
This compound has an imine and may undergo hydrolysis.

>  <s_lp_Force_Field>  (142) 
OPLS3e

>  <r_lp_Energy>  (142) 
266.823

>  <b_lp_Chiralities_Consistent>  (142) 
1

>  <s_lp_Variant>  (142) 
33:0-10

>  <s_i_glide_gridfile>  (142) 
pfpi4k_grid

>  <i_i_glide_lignum>  (142) 
13

>  <i_i_glide_rotatable_bonds>  (142) 
2

>  <r_i_docking_score>  (142) 
-2.68125

>  <r_i_glide_ligand_efficiency>  (142) 
-0.0582881

>  <r_i_glide_ligand_efficiency_sa>  (142) 
-0.208849

>  <r_i_glide_ligand_efficiency_ln>  (142) 
-0.555281

>  <r_i_glide_gscore>  (142) 
-2.68125

>  <r_i_glide_lipo>  (142) 
-0.572333

>  <r_i_glide_hbond>  (142) 
0

>  <r_i_glide_metal>  (142) 
-0

>  <r_i_glide_rewards>  (142) 
0

>  <r_i_glide_evdw>  (142) 
-25.5395

>  <r_i_glide_ecoul>  (142) 
-5.6006

>  <r_i_glide_erotb>  (142) 
0.0552374

>  <r_i_glide_esite>  (142) 
-0.0470909

>  <r_i_glide_emodel>  (142) 
-37.9816

>  <r_i_glide_energy>  (142) 
-31.1401

>  <r_i_glide_einternal>  (142) 
0.288975

>  <r_i_glide_intrahb_reward>  (142) 
-0

>  <i_i_glide_confnum>  (142) 
4

>  <i_i_glide_posenum>  (142) 
23

>  <r_i_glide_eff_state_penalty>  (142) 
0

>  <ligand_id>  (142) 
33

>  <original_smiles>  (142) 
CC1(C)C=CC=CC2CC3C4CCCC4N=C(N2C1=O)C12CCC4CCC(C1(O)CC(c1ccccc1)c1ccccc12)[N+]3(C)C4

>  <smiles>  (142) 
[H]OC12C([H])([H])C([H])(c3c([H])c([H])c([H])c([H])c3[H])c3c([H])c([H])c([H])c([H])c3C13C1=[N+]([H])C4([H])C([H])([H])C([H])([H])C([H])([H])C4([H])C([H])(C([H])([H])C4([H])C([H])=C([H])C([H])=C([H])C(C([H])([H])[H])(C([H])([H])[H])C(=O)N14)[N+]1(C([H])([H])[H])C([H])([H])C([H])(C([H])([H])C3([H])[H])C([H])([H])C([H])([H])C21[H]

$$$$
33:9:1
     RDKit          3D

 97105  0  0  1  0  0  0  0  0999 V2000
    7.2286   -5.0828    7.8991 C   0  0  0  0  0  0  0  0  0  0  0  0
    5.7109   -5.2236    7.6037 C   0  0  0  0  0  0  0  0  0  0  0  0
    4.9802   -4.9889    8.9523 C   0  0  0  0  0  0  0  0  0  0  0  0
    5.3894   -4.2146    6.5455 C   0  0  0  0  0  0  0  0  0  0  0  0
    4.2799   -3.4729    6.5424 C   0  0  0  0  0  0  0  0  0  0  0  0
    3.5037   -3.6654    5.3606 C   0  0  0  0  0  0  0  0  0  0  0  0
    3.0423   -4.9053    5.1070 C   0  0  0  0  0  0  0  0  0  0  0  0
    2.9892   -6.1227    6.0850 C   0  0  1  0  0  0  0  0  0  0  0  0
    1.6012   -6.8381    5.8303 C   0  0  0  0  0  0  0  0  0  0  0  0
    1.2448   -8.3562    6.0433 C   0  0  2  0  0  0  0  0  0  0  0  0
    1.6155   -9.0534    7.4290 C   0  0  2  0  0  0  0  0  0  0  0  0
    0.7253   -8.8356    8.6694 C   0  0  0  0  0  0  0  0  0  0  0  0
    1.6055   -9.2613    9.8717 C   0  0  0  0  0  0  0  0  0  0  0  0
    3.0262   -9.4549    9.3249 C   0  0  0  0  0  0  0  0  0  0  0  0
    2.9659   -8.7123    8.0007 C   0  0  1  0  0  0  0  0  0  0  0  0
    3.8864   -9.1543    6.9841 N   0  0  0  0  0  0  0  0  0  0  0  0
    4.1098   -8.3518    5.9205 C   0  0  0  0  0  0  0  0  0  0  0  0
    4.2471   -6.9926    6.1439 N   0  0  0  0  0  0  0  0  0  0  0  0
    5.3675   -6.6585    7.0944 C   0  0  0  0  0  0  0  0  0  0  0  0
    6.0828   -7.5699    7.5077 O   0  0  0  0  0  0  0  0  0  0  0  0
    4.3849   -9.0676    4.5781 C   0  0  1  0  0  0  0  0  0  0  0  0
    4.3496  -10.6487    4.7135 C   0  0  0  0  0  0  0  0  0  0  0  0
    3.1784  -11.5038    5.2849 C   0  0  0  0  0  0  0  0  0  0  0  0
    1.8339  -11.5978    4.5483 C   0  0  2  0  0  0  0  0  0  0  0  0
    1.9437  -11.5927    3.0187 C   0  0  0  0  0  0  0  0  0  0  0  0
    1.5047  -10.2368    2.4818 C   0  0  0  0  0  0  0  0  0  0  0  0
    1.7979   -9.0621    3.4807 C   0  0  2  0  0  0  0  0  0  0  0  0
    3.3495   -8.6121    3.4600 C   0  0  1  0  0  0  0  0  0  0  0  0
    3.2446   -7.2285    3.4657 O   0  0  0  0  0  0  0  0  0  0  0  0
    3.9749   -8.7885    2.0320 C   0  0  0  0  0  0  0  0  0  0  0  0
    5.3180   -8.0810    1.7741 C   0  0  1  0  0  0  0  0  0  0  0  0
    5.1761   -6.5891    1.4228 C   0  0  0  0  0  0  0  0  0  0  0  0
    5.5696   -5.5769    2.3305 C   0  0  0  0  0  0  0  0  0  0  0  0
    5.4387   -4.2176    1.9988 C   0  0  0  0  0  0  0  0  0  0  0  0
    4.9116   -3.8465    0.7516 C   0  0  0  0  0  0  0  0  0  0  0  0
    4.5088   -4.8383   -0.1586 C   0  0  0  0  0  0  0  0  0  0  0  0
    4.6323   -6.2031    0.1774 C   0  0  0  0  0  0  0  0  0  0  0  0
    6.2909   -8.3457    2.9070 C   0  0  0  0  0  0  0  0  0  0  0  0
    7.6621   -8.1129    2.6634 C   0  0  0  0  0  0  0  0  0  0  0  0
    8.6186   -8.3383    3.6649 C   0  0  0  0  0  0  0  0  0  0  0  0
    8.2164   -8.8330    4.9098 C   0  0  0  0  0  0  0  0  0  0  0  0
    6.8559   -9.0728    5.1520 C   0  0  0  0  0  0  0  0  0  0  0  0
    5.8620   -8.8082    4.1796 C   0  0  0  0  0  0  0  0  0  0  0  0
    0.9167   -9.1886    4.7558 N   0  0  2  0  0  0  0  0  0  0  0  0
   -0.4628   -8.7082    4.3336 C   0  0  0  0  0  0  0  0  0  0  0  0
    0.7090  -10.6544    5.0383 C   0  0  0  0  0  0  0  0  0  0  0  0
    7.8419   -5.2973    7.0222 H   0  0  0  0  0  0  0  0  0  0  0  0
    7.5579   -5.7488    8.7004 H   0  0  0  0  0  0  0  0  0  0  0  0
    7.4733   -4.0683    8.2217 H   0  0  0  0  0  0  0  0  0  0  0  0
    3.8984   -5.0995    8.8874 H   0  0  0  0  0  0  0  0  0  0  0  0
    5.1851   -3.9929    9.3529 H   0  0  0  0  0  0  0  0  0  0  0  0
    5.3179   -5.7075    9.7045 H   0  0  0  0  0  0  0  0  0  0  0  0
    5.8122   -4.4903    5.5896 H   0  0  0  0  0  0  0  0  0  0  0  0
    3.7357   -3.2780    7.4517 H   0  0  0  0  0  0  0  0  0  0  0  0
    3.4155   -2.8818    4.6224 H   0  0  0  0  0  0  0  0  0  0  0  0
    2.5390   -5.0153    4.1586 H   0  0  0  0  0  0  0  0  0  0  0  0
    2.8874   -5.6892    7.0753 H   0  0  0  0  0  0  0  0  0  0  0  0
    0.9293   -6.3023    6.5020 H   0  0  0  0  0  0  0  0  0  0  0  0
    1.2160   -6.5394    4.8569 H   0  0  0  0  0  0  0  0  0  0  0  0
    0.2272   -8.1880    6.3895 H   0  0  0  0  0  0  0  0  0  0  0  0
    1.6320  -10.1281    7.3266 H   0  0  0  0  0  0  0  0  0  0  0  0
    0.4342   -7.7897    8.7753 H   0  0  0  0  0  0  0  0  0  0  0  0
   -0.1861   -9.4319    8.6089 H   0  0  0  0  0  0  0  0  0  0  0  0
    1.5916   -8.4922   10.6438 H   0  0  0  0  0  0  0  0  0  0  0  0
    1.2556  -10.1845   10.3315 H   0  0  0  0  0  0  0  0  0  0  0  0
    3.7796   -9.0344    9.9921 H   0  0  0  0  0  0  0  0  0  0  0  0
    3.2549  -10.5102    9.1733 H   0  0  0  0  0  0  0  0  0  0  0  0
    3.0390   -7.6478    8.2151 H   0  0  0  0  0  0  0  0  0  0  0  0
    4.6336  -11.0700    3.7508 H   0  0  0  0  0  0  0  0  0  0  0  0
    5.1720  -10.9536    5.3573 H   0  0  0  0  0  0  0  0  0  0  0  0
    3.5616  -12.5261    5.2752 H   0  0  0  0  0  0  0  0  0  0  0  0
    3.0207  -11.3634    6.3459 H   0  0  0  0  0  0  0  0  0  0  0  0
    1.4661  -12.5924    4.7985 H   0  0  0  0  0  0  0  0  0  0  0  0
    2.9477  -11.8465    2.6699 H   0  0  0  0  0  0  0  0  0  0  0  0
    1.2881  -12.3610    2.5970 H   0  0  0  0  0  0  0  0  0  0  0  0
    1.9038  -10.0811    1.4861 H   0  0  0  0  0  0  0  0  0  0  0  0
    0.4380  -10.3182    2.2781 H   0  0  0  0  0  0  0  0  0  0  0  0
    1.3236   -8.2522    2.9251 H   0  0  0  0  0  0  0  0  0  0  0  0
    4.1050   -6.8679    3.2995 H   0  0  0  0  0  0  0  0  0  0  0  0
    4.1571   -9.8562    1.8895 H   0  0  0  0  0  0  0  0  0  0  0  0
    3.2828   -8.5045    1.2368 H   0  0  0  0  0  0  0  0  0  0  0  0
    5.7497   -8.5554    0.8905 H   0  0  0  0  0  0  0  0  0  0  0  0
    5.9828   -5.8203    3.2955 H   0  0  0  0  0  0  0  0  0  0  0  0
    5.7519   -3.4635    2.7037 H   0  0  0  0  0  0  0  0  0  0  0  0
    4.8190   -2.8007    0.4908 H   0  0  0  0  0  0  0  0  0  0  0  0
    4.1021   -4.5551   -1.1194 H   0  0  0  0  0  0  0  0  0  0  0  0
    4.3180   -6.9499   -0.5384 H   0  0  0  0  0  0  0  0  0  0  0  0
    7.9917   -7.7441    1.7039 H   0  0  0  0  0  0  0  0  0  0  0  0
    9.6649   -8.1552    3.4638 H   0  0  0  0  0  0  0  0  0  0  0  0
    8.9442   -9.0300    5.6832 H   0  0  0  0  0  0  0  0  0  0  0  0
    6.5769   -9.4673    6.1157 H   0  0  0  0  0  0  0  0  0  0  0  0
   -0.8319   -9.1681    3.4185 H   0  0  0  0  0  0  0  0  0  0  0  0
   -0.5072   -7.6329    4.1571 H   0  0  0  0  0  0  0  0  0  0  0  0
   -1.2267   -8.9460    5.0778 H   0  0  0  0  0  0  0  0  0  0  0  0
   -0.1426  -11.0072    4.4535 H   0  0  0  0  0  0  0  0  0  0  0  0
    0.3494  -10.8901    6.0356 H   0  0  0  0  0  0  0  0  0  0  0  0
    3.9942  -10.1521    6.8721 H   0  0  0  0  0  0  0  0  0  0  0  0
  1  2  1  0
  1 47  1  0
  1 48  1  0
  1 49  1  0
  2 19  1  0
  2  3  1  0
  2  4  1  0
  3 50  1  0
  3 51  1  0
  3 52  1  0
  4  5  2  3
  4 53  1  0
  5  6  1  0
  5 54  1  0
  6  7  2  3
  6 55  1  0
  7  8  1  0
  7 56  1  0
  8 18  1  0
  8  9  1  0
  8 57  1  1
  9 10  1  0
  9 58  1  0
  9 59  1  0
 10 44  1  0
 10 11  1  0
 10 60  1  1
 11 15  1  0
 11 12  1  0
 11 61  1  6
 12 13  1  0
 12 62  1  0
 12 63  1  0
 13 14  1  0
 13 64  1  0
 13 65  1  0
 14 15  1  0
 14 66  1  0
 14 67  1  0
 15 16  1  0
 15 68  1  1
 16 17  2  3
 16 97  1  0
 17 18  1  0
 17 21  1  0
 18 19  1  0
 19 20  2  0
 21 28  1  0
 21 43  1  6
 21 22  1  0
 22 23  1  0
 22 69  1  0
 22 70  1  0
 23 24  1  0
 23 71  1  0
 23 72  1  0
 24 46  1  0
 24 25  1  0
 24 73  1  1
 25 26  1  0
 25 74  1  0
 25 75  1  0
 26 27  1  0
 26 76  1  0
 26 77  1  0
 27 28  1  0
 27 44  1  0
 27 78  1  6
 28 29  1  1
 28 30  1  0
 29 79  1  0
 30 31  1  0
 30 80  1  0
 30 81  1  0
 31 32  1  0
 31 38  1  0
 31 82  1  6
 32 37  1  0
 32 33  2  0
 33 34  1  0
 33 83  1  0
 34 35  2  0
 34 84  1  0
 35 36  1  0
 35 85  1  0
 36 37  2  0
 36 86  1  0
 37 87  1  0
 38 43  2  0
 38 39  1  0
 39 40  2  0
 39 88  1  0
 40 41  1  0
 40 89  1  0
 41 42  2  0
 41 90  1  0
 42 43  1  0
 42 91  1  0
 44 45  1  6
 44 46  1  0
 45 92  1  0
 45 93  1  0
 45 94  1  0
 46 95  1  0
 46 96  1  0
M  CHG  2  16   1  44   1
M  END
>  <i_m_ct_stereo_status>  (143) 
1

>  <s_m_source_file>  (143) 
/var/tmp/pbs.5076255.sched01/tmpqm933_o1/456x1pmp19.sdf

>  <i_m_source_file_index>  (143) 
13

>  <i_lp_mmshare_version>  (143) 
48012

>  <i_f3d_flags>  (143) 
0

>  <s_epik_input>  (143) 
Tz1DMUMoW0NIM10pKFtDSDNdKS9bQ0hdPVtDSF1cW0NIXT1bQ0hdL1tDQEhdKE4xL0MyW0NAQF0zNDUpW0NIMl1bQ0hdKFtDQEhdNltDQEhdKC9OPTIpW0NIMl1bQ0gyXVtDSDJdNilbTkBAK103KFtDSDNdKVtDQEhdKFtDSDJdW0NIMl1bQ0BIXShbQ0gyXTcpW0NIMl1bQ0gyXTMpW0NAXTQoW09IXSlbQ0gyXVtDQEBIXShjOFtjSF1bY0hdW2NIXVtjSF1bY0hdOCljOWM1W2NIXVtjSF1bY0hdW2NIXTk=

>  <s_epik_cmdline>  (143) 
J2VwaWtfcHl0aG9uJywgJy1waHQnLCAnMi4wJywgJy1waCcsICc3LjAnLCAnLXRuJywgJzgnLCAnLW1hJywgJzIwMCcsICctaW1hZScsICc8aW5maWxlLm1hZT4nLCAnLW9tYWUnLCAnPG91dGZpbGUubWFlPic=

>  <r_epik_Ionization_Penalty>  (143) 
1.89798

>  <r_epik_Ionization_Penalty_Charging>  (143) 
1.89749

>  <r_epik_Ionization_Penalty_Neutral>  (143) 
0.000490901

>  <r_epik_State_Penalty>  (143) 
2.0185

>  <r_epik_Charging_Adjusted_Penalty>  (143) 
3.91599

>  <i_epik_Tot_Q>  (143) 
2

>  <i_epik_Tot_abs_Q>  (143) 
2

>  <s_epik_Chemistry_Notes>  (143) 
This compound has an imine and may undergo hydrolysis.

>  <s_lp_Force_Field>  (143) 
OPLS3e

>  <r_lp_Energy>  (143) 
266.823

>  <b_lp_Chiralities_Consistent>  (143) 
1

>  <s_lp_Variant>  (143) 
33:0-10

>  <s_i_glide_gridfile>  (143) 
pfpi4k_grid

>  <i_i_glide_lignum>  (143) 
13

>  <i_i_glide_rotatable_bonds>  (143) 
2

>  <r_i_docking_score>  (143) 
-2.64599

>  <r_i_glide_ligand_efficiency>  (143) 
-0.0575216

>  <r_i_glide_ligand_efficiency_sa>  (143) 
-0.206103

>  <r_i_glide_ligand_efficiency_ln>  (143) 
-0.547979

>  <r_i_glide_gscore>  (143) 
-2.64599

>  <r_i_glide_lipo>  (143) 
-0.527728

>  <r_i_glide_hbond>  (143) 
0

>  <r_i_glide_metal>  (143) 
-0

>  <r_i_glide_rewards>  (143) 
0

>  <r_i_glide_evdw>  (143) 
-25.7932

>  <r_i_glide_ecoul>  (143) 
-5.57987

>  <r_i_glide_erotb>  (143) 
0.0552374

>  <r_i_glide_esite>  (143) 
-0.0468629

>  <r_i_glide_emodel>  (143) 
-38.0162

>  <r_i_glide_energy>  (143) 
-31.373

>  <r_i_glide_einternal>  (143) 
0.591129

>  <r_i_glide_intrahb_reward>  (143) 
-0

>  <i_i_glide_confnum>  (143) 
5

>  <i_i_glide_posenum>  (143) 
30

>  <r_i_glide_eff_state_penalty>  (143) 
0

>  <ligand_id>  (143) 
33

>  <original_smiles>  (143) 
CC1(C)C=CC=CC2CC3C4CCCC4N=C(N2C1=O)C12CCC4CCC(C1(O)CC(c1ccccc1)c1ccccc12)[N+]3(C)C4

>  <smiles>  (143) 
[H]OC12C([H])([H])C([H])(c3c([H])c([H])c([H])c([H])c3[H])c3c([H])c([H])c([H])c([H])c3C13C1=[N+]([H])C4([H])C([H])([H])C([H])([H])C([H])([H])C4([H])C([H])(C([H])([H])C4([H])C([H])=C([H])C([H])=C([H])C(C([H])([H])[H])(C([H])([H])[H])C(=O)N14)[N+]1(C([H])([H])[H])C([H])([H])C([H])(C([H])([H])C3([H])[H])C([H])([H])C([H])([H])C21[H]

$$$$
33:9:2
     RDKit          3D

 97105  0  0  1  0  0  0  0  0999 V2000
    5.1375   -8.6814   10.3748 C   0  0  0  0  0  0  0  0  0  0  0  0
    4.1147   -9.3066    9.3878 C   0  0  0  0  0  0  0  0  0  0  0  0
    4.3229  -10.8428    9.4547 C   0  0  0  0  0  0  0  0  0  0  0  0
    2.7617   -8.8465    9.8335 C   0  0  0  0  0  0  0  0  0  0  0  0
    1.6782   -9.6249    9.8417 C   0  0  0  0  0  0  0  0  0  0  0  0
    0.6275   -9.0942    9.0357 C   0  0  0  0  0  0  0  0  0  0  0  0
    0.8617   -8.9370    7.7187 C   0  0  0  0  0  0  0  0  0  0  0  0
    2.0521   -9.5132    6.8864 C   0  0  1  0  0  0  0  0  0  0  0  0
    1.4415   -9.9906    5.5043 C   0  0  0  0  0  0  0  0  0  0  0  0
    2.1640  -10.0880    4.1102 C   0  0  2  0  0  0  0  0  0  0  0  0
    3.5751  -10.8289    4.0145 C   0  0  2  0  0  0  0  0  0  0  0  0
    3.6431  -12.3667    3.9612 C   0  0  0  0  0  0  0  0  0  0  0  0
    5.1046  -12.7234    4.3247 C   0  0  0  0  0  0  0  0  0  0  0  0
    5.7552  -11.4262    4.8211 C   0  0  0  0  0  0  0  0  0  0  0  0
    4.5453  -10.5606    5.1353 C   0  0  1  0  0  0  0  0  0  0  0  0
    4.7535   -9.1365    5.0646 N   0  0  0  0  0  0  0  0  0  0  0  0
    3.8433   -8.3183    5.6291 C   0  0  0  0  0  0  0  0  0  0  0  0
    3.3244   -8.6678    6.8633 N   0  0  0  0  0  0  0  0  0  0  0  0
    4.3820   -8.8329    7.9246 C   0  0  0  0  0  0  0  0  0  0  0  0
    5.5487   -8.5652    7.6418 O   0  0  0  0  0  0  0  0  0  0  0  0
    3.6197   -6.9642    4.9250 C   0  0  1  0  0  0  0  0  0  0  0  0
    4.5288   -6.7929    3.6320 C   0  0  0  0  0  0  0  0  0  0  0  0
    4.6042   -7.7627    2.4119 C   0  0  0  0  0  0  0  0  0  0  0  0
    3.4044   -7.9386    1.4671 C   0  0  2  0  0  0  0  0  0  0  0  0
    2.5851   -6.6592    1.2309 C   0  0  0  0  0  0  0  0  0  0  0  0
    1.2724   -6.7599    1.9951 C   0  0  0  0  0  0  0  0  0  0  0  0
    1.3983   -7.6048    3.3177 C   0  0  2  0  0  0  0  0  0  0  0  0
    2.0917   -6.7732    4.5180 C   0  0  1  0  0  0  0  0  0  0  0  0
    1.2627   -7.0772    5.5937 O   0  0  0  0  0  0  0  0  0  0  0  0
    1.7554   -5.2453    4.4214 C   0  0  0  0  0  0  0  0  0  0  0  0
    2.0347   -4.4014    5.6838 C   0  0  1  0  0  0  0  0  0  0  0  0
    0.9134   -4.4597    6.7349 C   0  0  0  0  0  0  0  0  0  0  0  0
   -0.3913   -4.0619    6.3690 C   0  0  0  0  0  0  0  0  0  0  0  0
   -1.4559   -4.1460    7.2831 C   0  0  0  0  0  0  0  0  0  0  0  0
   -1.2226   -4.6002    8.5937 C   0  0  0  0  0  0  0  0  0  0  0  0
    0.0735   -4.9845    8.9791 C   0  0  0  0  0  0  0  0  0  0  0  0
    1.1331   -4.9234    8.0550 C   0  0  0  0  0  0  0  0  0  0  0  0
    3.4261   -4.6750    6.2168 C   0  0  0  0  0  0  0  0  0  0  0  0
    4.0008   -3.7154    7.0804 C   0  0  0  0  0  0  0  0  0  0  0  0
    5.2911   -3.8981    7.6025 C   0  0  0  0  0  0  0  0  0  0  0  0
    6.0322   -5.0272    7.2300 C   0  0  0  0  0  0  0  0  0  0  0  0
    5.4699   -5.9714    6.3566 C   0  0  0  0  0  0  0  0  0  0  0  0
    4.1543   -5.8389    5.8531 C   0  0  0  0  0  0  0  0  0  0  0  0
    1.6657   -9.1048    2.9975 N   0  0  2  0  0  0  0  0  0  0  0  0
    0.3183   -9.6653    2.5710 C   0  0  0  0  0  0  0  0  0  0  0  0
    2.4984   -9.1685    1.7404 C   0  0  0  0  0  0  0  0  0  0  0  0
    5.1185   -7.5904   10.3533 H   0  0  0  0  0  0  0  0  0  0  0  0
    6.1628   -8.9947   10.1645 H   0  0  0  0  0  0  0  0  0  0  0  0
    4.9280   -8.9843   11.4034 H   0  0  0  0  0  0  0  0  0  0  0  0
    3.6816  -11.4007    8.7719 H   0  0  0  0  0  0  0  0  0  0  0  0
    4.1428  -11.2310   10.4604 H   0  0  0  0  0  0  0  0  0  0  0  0
    5.3514  -11.1055    9.1938 H   0  0  0  0  0  0  0  0  0  0  0  0
    2.6169   -7.7919    9.6454 H   0  0  0  0  0  0  0  0  0  0  0  0
    1.7641  -10.7003    9.8785 H   0  0  0  0  0  0  0  0  0  0  0  0
   -0.2789   -8.7201    9.4852 H   0  0  0  0  0  0  0  0  0  0  0  0
    0.0537   -8.4742    7.1741 H   0  0  0  0  0  0  0  0  0  0  0  0
    2.3508  -10.4264    7.3871 H   0  0  0  0  0  0  0  0  0  0  0  0
    1.1355  -11.0192    5.7097 H   0  0  0  0  0  0  0  0  0  0  0  0
    0.4699   -9.5227    5.3520 H   0  0  0  0  0  0  0  0  0  0  0  0
    1.6541  -10.9895    3.7738 H   0  0  0  0  0  0  0  0  0  0  0  0
    4.1068  -10.5429    3.1194 H   0  0  0  0  0  0  0  0  0  0  0  0
    2.9648  -12.8171    4.6880 H   0  0  0  0  0  0  0  0  0  0  0  0
    3.3858  -12.7440    2.9695 H   0  0  0  0  0  0  0  0  0  0  0  0
    5.1218  -13.4871    5.1019 H   0  0  0  0  0  0  0  0  0  0  0  0
    5.6515  -13.1207    3.4708 H   0  0  0  0  0  0  0  0  0  0  0  0
    6.3750  -11.5951    5.7019 H   0  0  0  0  0  0  0  0  0  0  0  0
    6.3766  -10.9715    4.0497 H   0  0  0  0  0  0  0  0  0  0  0  0
    4.1386  -10.8937    6.0887 H   0  0  0  0  0  0  0  0  0  0  0  0
    4.3737   -5.7866    3.2491 H   0  0  0  0  0  0  0  0  0  0  0  0
    5.5686   -6.7611    3.9496 H   0  0  0  0  0  0  0  0  0  0  0  0
    5.3892   -7.3352    1.7842 H   0  0  0  0  0  0  0  0  0  0  0  0
    5.0338   -8.7278    2.6463 H   0  0  0  0  0  0  0  0  0  0  0  0
    3.8622   -8.1535    0.5023 H   0  0  0  0  0  0  0  0  0  0  0  0
    3.1369   -5.7594    1.5046 H   0  0  0  0  0  0  0  0  0  0  0  0
    2.3601   -6.5230    0.1697 H   0  0  0  0  0  0  0  0  0  0  0  0
    0.8532   -5.7690    2.1321 H   0  0  0  0  0  0  0  0  0  0  0  0
    0.5514   -7.2109    1.3147 H   0  0  0  0  0  0  0  0  0  0  0  0
    0.3483   -7.5948    3.6138 H   0  0  0  0  0  0  0  0  0  0  0  0
    1.3384   -7.9981    5.7909 H   0  0  0  0  0  0  0  0  0  0  0  0
    2.3666   -4.8186    3.6243 H   0  0  0  0  0  0  0  0  0  0  0  0
    0.7230   -5.0757    4.1137 H   0  0  0  0  0  0  0  0  0  0  0  0
    2.0494   -3.3609    5.3589 H   0  0  0  0  0  0  0  0  0  0  0  0
   -0.5842   -3.7058    5.3679 H   0  0  0  0  0  0  0  0  0  0  0  0
   -2.4532   -3.8642    6.9774 H   0  0  0  0  0  0  0  0  0  0  0  0
   -2.0388   -4.6575    9.3004 H   0  0  0  0  0  0  0  0  0  0  0  0
    0.2594   -5.3300    9.9860 H   0  0  0  0  0  0  0  0  0  0  0  0
    2.1131   -5.2379    8.3789 H   0  0  0  0  0  0  0  0  0  0  0  0
    3.4393   -2.8383    7.3644 H   0  0  0  0  0  0  0  0  0  0  0  0
    5.7190   -3.1693    8.2765 H   0  0  0  0  0  0  0  0  0  0  0  0
    7.0304   -5.1788    7.6141 H   0  0  0  0  0  0  0  0  0  0  0  0
    6.0726   -6.8204    6.0748 H   0  0  0  0  0  0  0  0  0  0  0  0
   -0.1978   -9.0580    1.8305 H   0  0  0  0  0  0  0  0  0  0  0  0
   -0.3891   -9.7624    3.3949 H   0  0  0  0  0  0  0  0  0  0  0  0
    0.4062  -10.6508    2.1066 H   0  0  0  0  0  0  0  0  0  0  0  0
    1.8241   -9.1520    0.8845 H   0  0  0  0  0  0  0  0  0  0  0  0
    2.9902  -10.1177    1.5536 H   0  0  0  0  0  0  0  0  0  0  0  0
    5.3018   -8.7919    4.2906 H   0  0  0  0  0  0  0  0  0  0  0  0
  1  2  1  0
  1 47  1  0
  1 48  1  0
  1 49  1  0
  2 19  1  0
  2  3  1  0
  2  4  1  0
  3 50  1  0
  3 51  1  0
  3 52  1  0
  4  5  2  3
  4 53  1  0
  5  6  1  0
  5 54  1  0
  6  7  2  3
  6 55  1  0
  7  8  1  0
  7 56  1  0
  8 18  1  0
  8  9  1  0
  8 57  1  1
  9 10  1  0
  9 58  1  0
  9 59  1  0
 10 44  1  0
 10 11  1  0
 10 60  1  6
 11 15  1  0
 11 12  1  0
 11 61  1  6
 12 13  1  0
 12 62  1  0
 12 63  1  0
 13 14  1  0
 13 64  1  0
 13 65  1  0
 14 15  1  0
 14 66  1  0
 14 67  1  0
 15 16  1  0
 15 68  1  1
 16 17  2  3
 16 97  1  0
 17 18  1  0
 17 21  1  0
 18 19  1  0
 19 20  2  0
 21 28  1  0
 21 43  1  1
 21 22  1  0
 22 23  1  0
 22 69  1  0
 22 70  1  0
 23 24  1  0
 23 71  1  0
 23 72  1  0
 24 46  1  0
 24 25  1  0
 24 73  1  6
 25 26  1  0
 25 74  1  0
 25 75  1  0
 26 27  1  0
 26 76  1  0
 26 77  1  0
 27 28  1  0
 27 44  1  0
 27 78  1  1
 28 29  1  1
 28 30  1  0
 29 79  1  0
 30 31  1  0
 30 80  1  0
 30 81  1  0
 31 32  1  0
 31 38  1  0
 31 82  1  6
 32 37  1  0
 32 33  2  0
 33 34  1  0
 33 83  1  0
 34 35  2  0
 34 84  1  0
 35 36  1  0
 35 85  1  0
 36 37  2  0
 36 86  1  0
 37 87  1  0
 38 43  2  0
 38 39  1  0
 39 40  2  0
 39 88  1  0
 40 41  1  0
 40 89  1  0
 41 42  2  0
 41 90  1  0
 42 43  1  0
 42 91  1  0
 44 45  1  6
 44 46  1  0
 45 92  1  0
 45 93  1  0
 45 94  1  0
 46 95  1  0
 46 96  1  0
M  CHG  2  16   1  44   1
M  END
>  <i_m_ct_stereo_status>  (144) 
1

>  <s_m_source_file>  (144) 
/var/tmp/pbs.5076255.sched01/tmpqm933_o1/456x1pmp19.sdf

>  <i_m_source_file_index>  (144) 
13

>  <i_lp_mmshare_version>  (144) 
48012

>  <i_f3d_flags>  (144) 
0

>  <s_epik_input>  (144) 
Tz1DMUMoW0NIM10pKFtDSDNdKS9bQ0hdPVtDSF1cW0NIXT1bQ0hdL1tDQEhdKE4xL0MyW0NAQF0zNDUpW0NIMl1bQ0hdKFtDQEhdNltDQEhdKC9OPTIpW0NIMl1bQ0gyXVtDSDJdNilbTkBAK103KFtDSDNdKVtDQEhdKFtDSDJdW0NIMl1bQ0BIXShbQ0gyXTcpW0NIMl1bQ0gyXTMpW0NAXTQoW09IXSlbQ0gyXVtDQEBIXShjOFtjSF1bY0hdW2NIXVtjSF1bY0hdOCljOWM1W2NIXVtjSF1bY0hdW2NIXTk=

>  <s_epik_cmdline>  (144) 
J2VwaWtfcHl0aG9uJywgJy1waHQnLCAnMi4wJywgJy1waCcsICc3LjAnLCAnLXRuJywgJzgnLCAnLW1hJywgJzIwMCcsICctaW1hZScsICc8aW5maWxlLm1hZT4nLCAnLW9tYWUnLCAnPG91dGZpbGUubWFlPic=

>  <r_epik_Ionization_Penalty>  (144) 
1.89798

>  <r_epik_Ionization_Penalty_Charging>  (144) 
1.89749

>  <r_epik_Ionization_Penalty_Neutral>  (144) 
0.000490901

>  <r_epik_State_Penalty>  (144) 
2.0185

>  <r_epik_Charging_Adjusted_Penalty>  (144) 
3.91599

>  <i_epik_Tot_Q>  (144) 
2

>  <i_epik_Tot_abs_Q>  (144) 
2

>  <s_epik_Chemistry_Notes>  (144) 
This compound has an imine and may undergo hydrolysis.

>  <s_lp_Force_Field>  (144) 
OPLS3e

>  <r_lp_Energy>  (144) 
266.823

>  <b_lp_Chiralities_Consistent>  (144) 
1

>  <s_lp_Variant>  (144) 
33:0-10

>  <s_i_glide_gridfile>  (144) 
pfpi4k_grid

>  <i_i_glide_lignum>  (144) 
13

>  <i_i_glide_rotatable_bonds>  (144) 
2

>  <r_i_docking_score>  (144) 
-2.21435

>  <r_i_glide_ligand_efficiency>  (144) 
-0.048138

>  <r_i_glide_ligand_efficiency_sa>  (144) 
-0.172481

>  <r_i_glide_ligand_efficiency_ln>  (144) 
-0.458586

>  <r_i_glide_gscore>  (144) 
-2.21435

>  <r_i_glide_lipo>  (144) 
-0.00361453

>  <r_i_glide_hbond>  (144) 
0

>  <r_i_glide_metal>  (144) 
-0

>  <r_i_glide_rewards>  (144) 
0

>  <r_i_glide_evdw>  (144) 
-24.803

>  <r_i_glide_ecoul>  (144) 
-6.71772

>  <r_i_glide_erotb>  (144) 
0.0552374

>  <r_i_glide_esite>  (144) 
-0.01816

>  <r_i_glide_emodel>  (144) 
-37.0554

>  <r_i_glide_energy>  (144) 
-31.5208

>  <r_i_glide_einternal>  (144) 
0.311367

>  <r_i_glide_intrahb_reward>  (144) 
-0

>  <i_i_glide_confnum>  (144) 
4

>  <i_i_glide_posenum>  (144) 
2

>  <r_i_glide_eff_state_penalty>  (144) 
0

>  <ligand_id>  (144) 
33

>  <original_smiles>  (144) 
CC1(C)C=CC=CC2CC3C4CCCC4N=C(N2C1=O)C12CCC4CCC(C1(O)CC(c1ccccc1)c1ccccc12)[N+]3(C)C4

>  <smiles>  (144) 
[H]OC12C([H])([H])C([H])(c3c([H])c([H])c([H])c([H])c3[H])c3c([H])c([H])c([H])c([H])c3C13C1=[N+]([H])C4([H])C([H])([H])C([H])([H])C([H])([H])C4([H])C([H])(C([H])([H])C4([H])C([H])=C([H])C([H])=C([H])C(C([H])([H])[H])(C([H])([H])[H])C(=O)N14)[N+]1(C([H])([H])[H])C([H])([H])C([H])(C([H])([H])C3([H])[H])C([H])([H])C([H])([H])C21[H]

$$$$
33:10:0
     RDKit          3D

 97105  0  0  1  0  0  0  0  0999 V2000
    7.1931   -5.3916    7.3793 C   0  0  0  0  0  0  0  0  0  0  0  0
    5.6542   -5.1991    7.2619 C   0  0  0  0  0  0  0  0  0  0  0  0
    5.0952   -5.7562    8.6012 C   0  0  0  0  0  0  0  0  0  0  0  0
    5.3958   -3.6804    7.1493 C   0  0  0  0  0  0  0  0  0  0  0  0
    4.2040   -3.0473    7.0364 C   0  0  0  0  0  0  0  0  0  0  0  0
    2.9632   -3.7870    7.0017 C   0  0  0  0  0  0  0  0  0  0  0  0
    2.7652   -4.6524    5.9944 C   0  0  0  0  0  0  0  0  0  0  0  0
    2.6167   -6.1298    6.3382 C   0  0  1  0  0  0  0  0  0  0  0  0
    1.4500   -6.8006    5.5814 C   0  0  0  0  0  0  0  0  0  0  0  0
    1.1684   -8.3229    5.8217 C   0  0  2  0  0  0  0  0  0  0  0  0
    1.4653   -8.9639    7.2647 C   0  0  2  0  0  0  0  0  0  0  0  0
    0.4417   -8.8209    8.3981 C   0  0  0  0  0  0  0  0  0  0  0  0
    1.1839   -9.3351    9.6620 C   0  0  0  0  0  0  0  0  0  0  0  0
    2.6616   -9.4858    9.2739 C   0  0  0  0  0  0  0  0  0  0  0  0
    2.7448   -8.6305    8.0194 C   0  0  1  0  0  0  0  0  0  0  0  0
    3.8008   -8.9487    7.1117 N   0  0  0  0  0  0  0  0  0  0  0  0
    4.0320   -8.1895    6.0110 C   0  0  0  0  0  0  0  0  0  0  0  0
    3.9495   -6.8217    6.1256 N   0  0  0  0  0  0  0  0  0  0  0  0
    5.1689   -6.0065    6.0132 C   0  0  0  0  0  0  0  0  0  0  0  0
    5.7395   -5.9050    4.9273 O   0  0  0  0  0  0  0  0  0  0  0  0
    4.5407   -8.9612    4.7886 C   0  0  1  0  0  0  0  0  0  0  0  0
    4.5236  -10.5341    4.9960 C   0  0  0  0  0  0  0  0  0  0  0  0
    3.3094  -11.4003    5.4491 C   0  0  0  0  0  0  0  0  0  0  0  0
    2.0685  -11.5712    4.5541 C   0  0  2  0  0  0  0  0  0  0  0  0
    2.3687  -11.6262    3.0517 C   0  0  0  0  0  0  0  0  0  0  0  0
    1.9595  -10.3033    2.4132 C   0  0  0  0  0  0  0  0  0  0  0  0
    2.1039   -9.0865    3.3934 C   0  0  2  0  0  0  0  0  0  0  0  0
    3.6416   -8.5846    3.5290 C   0  0  1  0  0  0  0  0  0  0  0  0
    3.5309   -7.1852    3.4461 O   0  0  0  0  0  0  0  0  0  0  0  0
    4.4420   -8.9045    2.2181 C   0  0  0  0  0  0  0  0  0  0  0  0
    5.8277   -8.2372    2.0535 C   0  0  1  0  0  0  0  0  0  0  0  0
    5.7939   -6.7977    1.4614 C   0  0  0  0  0  0  0  0  0  0  0  0
    6.9629   -5.9841    1.4304 C   0  0  0  0  0  0  0  0  0  0  0  0
    6.9568   -4.7018    0.8549 C   0  0  0  0  0  0  0  0  0  0  0  0
    5.7878   -4.1841    0.2756 C   0  0  0  0  0  0  0  0  0  0  0  0
    4.6149   -4.9652    0.2850 C   0  0  0  0  0  0  0  0  0  0  0  0
    4.6224   -6.2558    0.8541 C   0  0  0  0  0  0  0  0  0  0  0  0
    6.6525   -8.4158    3.3254 C   0  0  0  0  0  0  0  0  0  0  0  0
    8.0626   -8.3272    3.2606 C   0  0  0  0  0  0  0  0  0  0  0  0
    8.8580   -8.3626    4.4174 C   0  0  0  0  0  0  0  0  0  0  0  0
    8.2564   -8.5892    5.6685 C   0  0  0  0  0  0  0  0  0  0  0  0
    6.8662   -8.7776    5.7401 C   0  0  0  0  0  0  0  0  0  0  0  0
    6.0471   -8.7092    4.5847 C   0  0  0  0  0  0  0  0  0  0  0  0
    1.0501   -9.1985    4.5355 N   0  0  2  0  0  0  0  0  0  0  0  0
   -0.2577   -8.7722    3.9227 C   0  0  0  0  0  0  0  0  0  0  0  0
    0.8553  -10.6565    4.8430 C   0  0  0  0  0  0  0  0  0  0  0  0
    7.7294   -5.0264    6.5018 H   0  0  0  0  0  0  0  0  0  0  0  0
    7.4609   -6.4405    7.5131 H   0  0  0  0  0  0  0  0  0  0  0  0
    7.6011   -4.8629    8.2454 H   0  0  0  0  0  0  0  0  0  0  0  0
    4.0252   -5.6164    8.7253 H   0  0  0  0  0  0  0  0  0  0  0  0
    5.5576   -5.2642    9.4592 H   0  0  0  0  0  0  0  0  0  0  0  0
    5.2996   -6.8240    8.7123 H   0  0  0  0  0  0  0  0  0  0  0  0
    6.2806   -3.0580    7.1750 H   0  0  0  0  0  0  0  0  0  0  0  0
    4.1818   -1.9721    6.9579 H   0  0  0  0  0  0  0  0  0  0  0  0
    2.5770   -4.0454    7.9759 H   0  0  0  0  0  0  0  0  0  0  0  0
    3.2391   -4.4693    5.0369 H   0  0  0  0  0  0  0  0  0  0  0  0
    2.3120   -6.1092    7.3757 H   0  0  0  0  0  0  0  0  0  0  0  0
    0.5599   -6.2631    5.9091 H   0  0  0  0  0  0  0  0  0  0  0  0
    1.4740   -6.5494    4.5215 H   0  0  0  0  0  0  0  0  0  0  0  0
    0.1129   -8.2253    6.0653 H   0  0  0  0  0  0  0  0  0  0  0  0
    1.5166  -10.0350    7.1625 H   0  0  0  0  0  0  0  0  0  0  0  0
    0.1489   -7.7775    8.5349 H   0  0  0  0  0  0  0  0  0  0  0  0
   -0.4587   -9.4020    8.1939 H   0  0  0  0  0  0  0  0  0  0  0  0
    1.0690   -8.6295   10.4838 H   0  0  0  0  0  0  0  0  0  0  0  0
    0.8011  -10.2947   10.0032 H   0  0  0  0  0  0  0  0  0  0  0  0
    3.3258   -9.1234   10.0588 H   0  0  0  0  0  0  0  0  0  0  0  0
    2.9190  -10.5243    9.0623 H   0  0  0  0  0  0  0  0  0  0  0  0
    2.8270   -7.6226    8.4080 H   0  0  0  0  0  0  0  0  0  0  0  0
    4.9402  -10.9995    4.1062 H   0  0  0  0  0  0  0  0  0  0  0  0
    5.2663  -10.7751    5.7540 H   0  0  0  0  0  0  0  0  0  0  0  0
    3.7195  -12.4114    5.5265 H   0  0  0  0  0  0  0  0  0  0  0  0
    3.0174  -11.2332    6.4766 H   0  0  0  0  0  0  0  0  0  0  0  0
    1.7076  -12.5650    4.8014 H   0  0  0  0  0  0  0  0  0  0  0  0
    3.4198  -11.8510    2.8468 H   0  0  0  0  0  0  0  0  0  0  0  0
    1.8076  -12.4335    2.5703 H   0  0  0  0  0  0  0  0  0  0  0  0
    2.4375  -10.1968    1.4532 H   0  0  0  0  0  0  0  0  0  0  0  0
    0.9234  -10.4268    2.1016 H   0  0  0  0  0  0  0  0  0  0  0  0
    1.6924   -8.3066    2.7494 H   0  0  0  0  0  0  0  0  0  0  0  0
    4.4030   -6.8188    3.3666 H   0  0  0  0  0  0  0  0  0  0  0  0
    4.6271   -9.9789    2.2074 H   0  0  0  0  0  0  0  0  0  0  0  0
    3.8665   -8.7540    1.3039 H   0  0  0  0  0  0  0  0  0  0  0  0
    6.3406   -8.8345    1.2974 H   0  0  0  0  0  0  0  0  0  0  0  0
    7.9121   -6.2850    1.8234 H   0  0  0  0  0  0  0  0  0  0  0  0
    7.8732   -4.1348    0.8522 H   0  0  0  0  0  0  0  0  0  0  0  0
    5.7889   -3.2009   -0.1647 H   0  0  0  0  0  0  0  0  0  0  0  0
    3.7052   -4.5813   -0.1523 H   0  0  0  0  0  0  0  0  0  0  0  0
    3.6845   -6.7836    0.8092 H   0  0  0  0  0  0  0  0  0  0  0  0
    8.5730   -8.2084    2.3172 H   0  0  0  0  0  0  0  0  0  0  0  0
    9.9238   -8.2230    4.3366 H   0  0  0  0  0  0  0  0  0  0  0  0
    8.8619   -8.6359    6.5594 H   0  0  0  0  0  0  0  0  0  0  0  0
    6.4251   -8.9721    6.7064 H   0  0  0  0  0  0  0  0  0  0  0  0
   -0.4983   -9.2535    2.9773 H   0  0  0  0  0  0  0  0  0  0  0  0
   -0.3051   -7.7032    3.7158 H   0  0  0  0  0  0  0  0  0  0  0  0
   -1.1158   -9.0126    4.5547 H   0  0  0  0  0  0  0  0  0  0  0  0
    0.0916  -11.0632    4.1767 H   0  0  0  0  0  0  0  0  0  0  0  0
    0.3748  -10.8719    5.7947 H   0  0  0  0  0  0  0  0  0  0  0  0
    4.0919   -9.9125    7.0854 H   0  0  0  0  0  0  0  0  0  0  0  0
  1  2  1  0
  1 47  1  0
  1 48  1  0
  1 49  1  0
  2 19  1  0
  2  3  1  0
  2  4  1  0
  3 50  1  0
  3 51  1  0
  3 52  1  0
  4  5  2  3
  4 53  1  0
  5  6  1  0
  5 54  1  0
  6  7  2  3
  6 55  1  0
  7  8  1  0
  7 56  1  0
  8 18  1  0
  8  9  1  0
  8 57  1  1
  9 10  1  0
  9 58  1  0
  9 59  1  0
 10 44  1  0
 10 11  1  0
 10 60  1  1
 11 15  1  0
 11 12  1  0
 11 61  1  6
 12 13  1  0
 12 62  1  0
 12 63  1  0
 13 14  1  0
 13 64  1  0
 13 65  1  0
 14 15  1  0
 14 66  1  0
 14 67  1  0
 15 16  1  0
 15 68  1  1
 16 17  2  3
 16 97  1  0
 17 18  1  0
 17 21  1  0
 18 19  1  0
 19 20  2  0
 21 28  1  0
 21 43  1  6
 21 22  1  0
 22 23  1  0
 22 69  1  0
 22 70  1  0
 23 24  1  0
 23 71  1  0
 23 72  1  0
 24 46  1  0
 24 25  1  0
 24 73  1  1
 25 26  1  0
 25 74  1  0
 25 75  1  0
 26 27  1  0
 26 76  1  0
 26 77  1  0
 27 28  1  0
 27 44  1  0
 27 78  1  6
 28 29  1  1
 28 30  1  0
 29 79  1  0
 30 31  1  0
 30 80  1  0
 30 81  1  0
 31 32  1  0
 31 38  1  0
 31 82  1  6
 32 37  1  0
 32 33  2  0
 33 34  1  0
 33 83  1  0
 34 35  2  0
 34 84  1  0
 35 36  1  0
 35 85  1  0
 36 37  2  0
 36 86  1  0
 37 87  1  0
 38 43  2  0
 38 39  1  0
 39 40  2  0
 39 88  1  0
 40 41  1  0
 40 89  1  0
 41 42  2  0
 41 90  1  0
 42 43  1  0
 42 91  1  0
 44 45  1  6
 44 46  1  0
 45 92  1  0
 45 93  1  0
 45 94  1  0
 46 95  1  0
 46 96  1  0
M  CHG  2  16   1  44   1
M  END
>  <i_m_ct_stereo_status>  (145) 
1

>  <s_m_source_file>  (145) 
/var/tmp/pbs.5076255.sched01/tmpqm933_o1/456x1pmp19.sdf

>  <i_m_source_file_index>  (145) 
14

>  <i_lp_mmshare_version>  (145) 
48012

>  <i_f3d_flags>  (145) 
0

>  <s_epik_input>  (145) 
Tz1DMUMoW0NIM10pKFtDSDNdKS9bQ0hdPVtDSF1cW0NIXT1bQ0hdL1tDQEhdKE4xL0MyW0NAQF0zNDUpW0NIMl1bQ0hdKFtDQEhdNltDQEhdKC9OPTIpW0NIMl1bQ0gyXVtDSDJdNilbTkBAK103KFtDSDNdKVtDQEhdKFtDSDJdW0NIMl1bQ0BIXShbQ0gyXTcpW0NIMl1bQ0gyXTMpW0NAXTQoW09IXSlbQ0gyXVtDQEBIXShjOFtjSF1bY0hdW2NIXVtjSF1bY0hdOCljOWM1W2NIXVtjSF1bY0hdW2NIXTk=

>  <s_epik_cmdline>  (145) 
J2VwaWtfcHl0aG9uJywgJy1waHQnLCAnMi4wJywgJy1waCcsICc3LjAnLCAnLXRuJywgJzgnLCAnLW1hJywgJzIwMCcsICctaW1hZScsICc8aW5maWxlLm1hZT4nLCAnLW9tYWUnLCAnPG91dGZpbGUubWFlPic=

>  <r_epik_Ionization_Penalty>  (145) 
1.89798

>  <r_epik_Ionization_Penalty_Charging>  (145) 
1.89749

>  <r_epik_Ionization_Penalty_Neutral>  (145) 
0.000490901

>  <r_epik_State_Penalty>  (145) 
2.0185

>  <r_epik_Charging_Adjusted_Penalty>  (145) 
3.91599

>  <i_epik_Tot_Q>  (145) 
2

>  <i_epik_Tot_abs_Q>  (145) 
2

>  <s_epik_Chemistry_Notes>  (145) 
This compound has an imine and may undergo hydrolysis.

>  <s_lp_Force_Field>  (145) 
OPLS3e

>  <r_lp_Energy>  (145) 
264.313

>  <b_lp_Chiralities_Consistent>  (145) 
1

>  <s_lp_Variant>  (145) 
33:0-11

>  <s_i_glide_gridfile>  (145) 
pfpi4k_grid

>  <i_i_glide_lignum>  (145) 
14

>  <i_i_glide_rotatable_bonds>  (145) 
2

>  <r_i_docking_score>  (145) 
-3.27688

>  <r_i_glide_ligand_efficiency>  (145) 
-0.0712365

>  <r_i_glide_ligand_efficiency_sa>  (145) 
-0.255244

>  <r_i_glide_ligand_efficiency_ln>  (145) 
-0.678634

>  <r_i_glide_gscore>  (145) 
-3.27688

>  <r_i_glide_lipo>  (145) 
-0.704028

>  <r_i_glide_hbond>  (145) 
0

>  <r_i_glide_metal>  (145) 
-0

>  <r_i_glide_rewards>  (145) 
-0.5

>  <r_i_glide_evdw>  (145) 
-26.9432

>  <r_i_glide_ecoul>  (145) 
-4.94915

>  <r_i_glide_erotb>  (145) 
0.0552374

>  <r_i_glide_esite>  (145) 
-0.0385593

>  <r_i_glide_emodel>  (145) 
-43.6727

>  <r_i_glide_energy>  (145) 
-31.8923

>  <r_i_glide_einternal>  (145) 
3.32678

>  <r_i_glide_intrahb_reward>  (145) 
-0.5

>  <i_i_glide_confnum>  (145) 
2

>  <i_i_glide_posenum>  (145) 
1

>  <r_i_glide_eff_state_penalty>  (145) 
0

>  <ligand_id>  (145) 
33

>  <original_smiles>  (145) 
CC1(C)C=CC=CC2CC3C4CCCC4N=C(N2C1=O)C12CCC4CCC(C1(O)CC(c1ccccc1)c1ccccc12)[N+]3(C)C4

>  <smiles>  (145) 
[H]OC12C([H])([H])C([H])(c3c([H])c([H])c([H])c([H])c3[H])c3c([H])c([H])c([H])c([H])c3C13C1=[N+]([H])C4([H])C([H])([H])C([H])([H])C([H])([H])C4([H])C([H])(C([H])([H])C4([H])C([H])=C([H])C([H])=C([H])C(C([H])([H])[H])(C([H])([H])[H])C(=O)N14)[N+]1(C([H])([H])[H])C([H])([H])C([H])(C([H])([H])C3([H])[H])C([H])([H])C([H])([H])C21[H]

$$$$
33:10:1
     RDKit          3D

 97105  0  0  1  0  0  0  0  0999 V2000
    7.3839   -5.6468    7.2008 C   0  0  0  0  0  0  0  0  0  0  0  0
    5.8489   -5.4350    7.3158 C   0  0  0  0  0  0  0  0  0  0  0  0
    5.4429   -6.0834    8.6594 C   0  0  0  0  0  0  0  0  0  0  0  0
    5.6132   -3.9045    7.3291 C   0  0  0  0  0  0  0  0  0  0  0  0
    4.4357   -3.2477    7.3726 C   0  0  0  0  0  0  0  0  0  0  0  0
    3.1843   -3.9685    7.4139 C   0  0  0  0  0  0  0  0  0  0  0  0
    2.8553   -4.7544    6.3735 C   0  0  0  0  0  0  0  0  0  0  0  0
    2.6988   -6.2474    6.6331 C   0  0  1  0  0  0  0  0  0  0  0  0
    1.4576   -6.8443    5.9375 C   0  0  0  0  0  0  0  0  0  0  0  0
    1.1863   -8.3749    6.0950 C   0  0  2  0  0  0  0  0  0  0  0  0
    1.6274   -9.1361    7.4354 C   0  0  2  0  0  0  0  0  0  0  0  0
    0.7414   -9.0534    8.6833 C   0  0  0  0  0  0  0  0  0  0  0  0
    1.5998   -9.6889    9.8117 C   0  0  0  0  0  0  0  0  0  0  0  0
    3.0232   -9.8325    9.2530 C   0  0  0  0  0  0  0  0  0  0  0  0
    2.9869   -8.8868    8.0696 C   0  0  1  0  0  0  0  0  0  0  0  0
    3.9240   -9.1529    7.0218 N   0  0  0  0  0  0  0  0  0  0  0  0
    4.0239   -8.3002    5.9792 C   0  0  0  0  0  0  0  0  0  0  0  0
    3.9809   -6.9565    6.2485 N   0  0  0  0  0  0  0  0  0  0  0  0
    5.2009   -6.1547    6.0984 C   0  0  0  0  0  0  0  0  0  0  0  0
    5.6546   -5.9818    4.9689 O   0  0  0  0  0  0  0  0  0  0  0  0
    4.3882   -8.9628    4.6305 C   0  0  1  0  0  0  0  0  0  0  0  0
    4.3713  -10.5462    4.7195 C   0  0  0  0  0  0  0  0  0  0  0  0
    3.2054  -11.4356    5.2468 C   0  0  0  0  0  0  0  0  0  0  0  0
    1.8667  -11.5065    4.4917 C   0  0  2  0  0  0  0  0  0  0  0  0
    1.9709  -11.4808    2.9672 C   0  0  0  0  0  0  0  0  0  0  0  0
    1.5351  -10.1065    2.4829 C   0  0  0  0  0  0  0  0  0  0  0  0
    1.8214   -8.9627    3.5236 C   0  0  2  0  0  0  0  0  0  0  0  0
    3.3666   -8.4694    3.5186 C   0  0  1  0  0  0  0  0  0  0  0  0
    3.2833   -7.0631    3.5409 O   0  0  0  0  0  0  0  0  0  0  0  0
    3.9899   -8.6720    2.0860 C   0  0  0  0  0  0  0  0  0  0  0  0
    5.3746   -8.0618    1.8090 C   0  0  1  0  0  0  0  0  0  0  0  0
    5.2984   -6.5935    1.3221 C   0  0  0  0  0  0  0  0  0  0  0  0
    5.9381   -5.5428    2.0211 C   0  0  0  0  0  0  0  0  0  0  0  0
    5.7837   -4.1984    1.6547 C   0  0  0  0  0  0  0  0  0  0  0  0
    5.1353   -3.8723    0.4531 C   0  0  0  0  0  0  0  0  0  0  0  0
    4.5877   -4.9124   -0.3251 C   0  0  0  0  0  0  0  0  0  0  0  0
    4.6307   -6.2558    0.1212 C   0  0  0  0  0  0  0  0  0  0  0  0
    6.3280   -8.3225    2.9732 C   0  0  0  0  0  0  0  0  0  0  0  0
    7.7126   -8.1650    2.7475 C   0  0  0  0  0  0  0  0  0  0  0  0
    8.6380   -8.3542    3.7922 C   0  0  0  0  0  0  0  0  0  0  0  0
    8.1907   -8.7089    5.0728 C   0  0  0  0  0  0  0  0  0  0  0  0
    6.8163   -8.8888    5.3040 C   0  0  0  0  0  0  0  0  0  0  0  0
    5.8683   -8.7136    4.2653 C   0  0  0  0  0  0  0  0  0  0  0  0
    0.9060   -9.1429    4.7725 N   0  0  2  0  0  0  0  0  0  0  0  0
   -0.4691   -8.6519    4.3452 C   0  0  0  0  0  0  0  0  0  0  0  0
    0.7072  -10.6177    4.9868 C   0  0  0  0  0  0  0  0  0  0  0  0
    7.8012   -5.2191    6.2874 H   0  0  0  0  0  0  0  0  0  0  0  0
    7.6485   -6.7044    7.2002 H   0  0  0  0  0  0  0  0  0  0  0  0
    7.9238   -5.1931    8.0361 H   0  0  0  0  0  0  0  0  0  0  0  0
    4.3895   -5.9439    8.8951 H   0  0  0  0  0  0  0  0  0  0  0  0
    6.0228   -5.6633    9.4885 H   0  0  0  0  0  0  0  0  0  0  0  0
    5.6385   -7.1579    8.6303 H   0  0  0  0  0  0  0  0  0  0  0  0
    6.5116   -3.3026    7.2688 H   0  0  0  0  0  0  0  0  0  0  0  0
    4.4266   -2.1657    7.3446 H   0  0  0  0  0  0  0  0  0  0  0  0
    2.9055   -4.3010    8.4021 H   0  0  0  0  0  0  0  0  0  0  0  0
    3.2327   -4.5081    5.3838 H   0  0  0  0  0  0  0  0  0  0  0  0
    2.4880   -6.2956    7.6984 H   0  0  0  0  0  0  0  0  0  0  0  0
    0.6140   -6.3367    6.4052 H   0  0  0  0  0  0  0  0  0  0  0  0
    1.3766   -6.5062    4.9044 H   0  0  0  0  0  0  0  0  0  0  0  0
    0.1691   -8.2871    6.4619 H   0  0  0  0  0  0  0  0  0  0  0  0
    1.6389  -10.1958    7.2521 H   0  0  0  0  0  0  0  0  0  0  0  0
    0.4963   -8.0209    8.9400 H   0  0  0  0  0  0  0  0  0  0  0  0
   -0.1903   -9.5853    8.5002 H   0  0  0  0  0  0  0  0  0  0  0  0
    1.5979   -9.0520   10.6959 H   0  0  0  0  0  0  0  0  0  0  0  0
    1.2365  -10.6679   10.1171 H   0  0  0  0  0  0  0  0  0  0  0  0
    3.7787   -9.5345    9.9789 H   0  0  0  0  0  0  0  0  0  0  0  0
    3.2322  -10.8533    8.9368 H   0  0  0  0  0  0  0  0  0  0  0  0
    3.1395   -7.9155    8.5166 H   0  0  0  0  0  0  0  0  0  0  0  0
    4.6718  -10.9448    3.7528 H   0  0  0  0  0  0  0  0  0  0  0  0
    5.1916  -10.8565    5.3656 H   0  0  0  0  0  0  0  0  0  0  0  0
    3.5917  -12.4564    5.1890 H   0  0  0  0  0  0  0  0  0  0  0  0
    3.0285  -11.3568    6.3115 H   0  0  0  0  0  0  0  0  0  0  0  0
    1.5130  -12.5020    4.7168 H   0  0  0  0  0  0  0  0  0  0  0  0
    2.9817  -11.6866    2.6270 H   0  0  0  0  0  0  0  0  0  0  0  0
    1.3228  -12.2527    2.5186 H   0  0  0  0  0  0  0  0  0  0  0  0
    1.9186   -9.8996    1.4922 H   0  0  0  0  0  0  0  0  0  0  0  0
    0.4733  -10.1818    2.2735 H   0  0  0  0  0  0  0  0  0  0  0  0
    1.3524   -8.1361    3.0069 H   0  0  0  0  0  0  0  0  0  0  0  0
    4.1532   -6.7156    3.3951 H   0  0  0  0  0  0  0  0  0  0  0  0
    4.1266   -9.7476    1.9604 H   0  0  0  0  0  0  0  0  0  0  0  0
    3.3157   -8.3537    1.2846 H   0  0  0  0  0  0  0  0  0  0  0  0
    5.7860   -8.6277    0.9707 H   0  0  0  0  0  0  0  0  0  0  0  0
    6.6167   -5.7591    2.8363 H   0  0  0  0  0  0  0  0  0  0  0  0
    6.2273   -3.4248    2.2665 H   0  0  0  0  0  0  0  0  0  0  0  0
    5.1122   -2.8404    0.1034 H   0  0  0  0  0  0  0  0  0  0  0  0
    4.1530   -4.6648   -1.2843 H   0  0  0  0  0  0  0  0  0  0  0  0
    4.2244   -7.0545   -0.5048 H   0  0  0  0  0  0  0  0  0  0  0  0
    8.0803   -7.8774    1.7703 H   0  0  0  0  0  0  0  0  0  0  0  0
    9.6971   -8.2298    3.6021 H   0  0  0  0  0  0  0  0  0  0  0  0
    8.8937   -8.8413    5.8866 H   0  0  0  0  0  0  0  0  0  0  0  0
    6.4874   -9.1551    6.2998 H   0  0  0  0  0  0  0  0  0  0  0  0
   -0.8181   -9.0612    3.4050 H   0  0  0  0  0  0  0  0  0  0  0  0
   -0.5110   -7.5722    4.2290 H   0  0  0  0  0  0  0  0  0  0  0  0
   -1.2482   -8.9303    5.0539 H   0  0  0  0  0  0  0  0  0  0  0  0
   -0.1221  -10.9596    4.3670 H   0  0  0  0  0  0  0  0  0  0  0  0
    0.3313  -10.9012    5.9601 H   0  0  0  0  0  0  0  0  0  0  0  0
    4.1921  -10.1135    6.8849 H   0  0  0  0  0  0  0  0  0  0  0  0
  1  2  1  0
  1 47  1  0
  1 48  1  0
  1 49  1  0
  2 19  1  0
  2  3  1  0
  2  4  1  0
  3 50  1  0
  3 51  1  0
  3 52  1  0
  4  5  2  3
  4 53  1  0
  5  6  1  0
  5 54  1  0
  6  7  2  3
  6 55  1  0
  7  8  1  0
  7 56  1  0
  8 18  1  0
  8  9  1  0
  8 57  1  1
  9 10  1  0
  9 58  1  0
  9 59  1  0
 10 44  1  0
 10 11  1  0
 10 60  1  1
 11 15  1  0
 11 12  1  0
 11 61  1  6
 12 13  1  0
 12 62  1  0
 12 63  1  0
 13 14  1  0
 13 64  1  0
 13 65  1  0
 14 15  1  0
 14 66  1  0
 14 67  1  0
 15 16  1  0
 15 68  1  1
 16 17  2  3
 16 97  1  0
 17 18  1  0
 17 21  1  0
 18 19  1  0
 19 20  2  0
 21 28  1  0
 21 43  1  6
 21 22  1  0
 22 23  1  0
 22 69  1  0
 22 70  1  0
 23 24  1  0
 23 71  1  0
 23 72  1  0
 24 46  1  0
 24 25  1  0
 24 73  1  6
 25 26  1  0
 25 74  1  0
 25 75  1  0
 26 27  1  0
 26 76  1  0
 26 77  1  0
 27 28  1  0
 27 44  1  0
 27 78  1  6
 28 29  1  1
 28 30  1  0
 29 79  1  0
 30 31  1  0
 30 80  1  0
 30 81  1  0
 31 32  1  0
 31 38  1  0
 31 82  1  6
 32 37  1  0
 32 33  2  0
 33 34  1  0
 33 83  1  0
 34 35  2  0
 34 84  1  0
 35 36  1  0
 35 85  1  0
 36 37  2  0
 36 86  1  0
 37 87  1  0
 38 43  2  0
 38 39  1  0
 39 40  2  0
 39 88  1  0
 40 41  1  0
 40 89  1  0
 41 42  2  0
 41 90  1  0
 42 43  1  0
 42 91  1  0
 44 45  1  6
 44 46  1  0
 45 92  1  0
 45 93  1  0
 45 94  1  0
 46 95  1  0
 46 96  1  0
M  CHG  2  16   1  44   1
M  END
>  <i_m_ct_stereo_status>  (146) 
1

>  <s_m_source_file>  (146) 
/var/tmp/pbs.5076255.sched01/tmpqm933_o1/456x1pmp19.sdf

>  <i_m_source_file_index>  (146) 
14

>  <i_lp_mmshare_version>  (146) 
48012

>  <i_f3d_flags>  (146) 
0

>  <s_epik_input>  (146) 
Tz1DMUMoW0NIM10pKFtDSDNdKS9bQ0hdPVtDSF1cW0NIXT1bQ0hdL1tDQEhdKE4xL0MyW0NAQF0zNDUpW0NIMl1bQ0hdKFtDQEhdNltDQEhdKC9OPTIpW0NIMl1bQ0gyXVtDSDJdNilbTkBAK103KFtDSDNdKVtDQEhdKFtDSDJdW0NIMl1bQ0BIXShbQ0gyXTcpW0NIMl1bQ0gyXTMpW0NAXTQoW09IXSlbQ0gyXVtDQEBIXShjOFtjSF1bY0hdW2NIXVtjSF1bY0hdOCljOWM1W2NIXVtjSF1bY0hdW2NIXTk=

>  <s_epik_cmdline>  (146) 
J2VwaWtfcHl0aG9uJywgJy1waHQnLCAnMi4wJywgJy1waCcsICc3LjAnLCAnLXRuJywgJzgnLCAnLW1hJywgJzIwMCcsICctaW1hZScsICc8aW5maWxlLm1hZT4nLCAnLW9tYWUnLCAnPG91dGZpbGUubWFlPic=

>  <r_epik_Ionization_Penalty>  (146) 
1.89798

>  <r_epik_Ionization_Penalty_Charging>  (146) 
1.89749

>  <r_epik_Ionization_Penalty_Neutral>  (146) 
0.000490901

>  <r_epik_State_Penalty>  (146) 
2.0185

>  <r_epik_Charging_Adjusted_Penalty>  (146) 
3.91599

>  <i_epik_Tot_Q>  (146) 
2

>  <i_epik_Tot_abs_Q>  (146) 
2

>  <s_epik_Chemistry_Notes>  (146) 
This compound has an imine and may undergo hydrolysis.

>  <s_lp_Force_Field>  (146) 
OPLS3e

>  <r_lp_Energy>  (146) 
264.313

>  <b_lp_Chiralities_Consistent>  (146) 
1

>  <s_lp_Variant>  (146) 
33:0-11

>  <s_i_glide_gridfile>  (146) 
pfpi4k_grid

>  <i_i_glide_lignum>  (146) 
14

>  <i_i_glide_rotatable_bonds>  (146) 
2

>  <r_i_docking_score>  (146) 
-3.16633

>  <r_i_glide_ligand_efficiency>  (146) 
-0.0688333

>  <r_i_glide_ligand_efficiency_sa>  (146) 
-0.246633

>  <r_i_glide_ligand_efficiency_ln>  (146) 
-0.65574

>  <r_i_glide_gscore>  (146) 
-3.16633

>  <r_i_glide_lipo>  (146) 
-0.583607

>  <r_i_glide_hbond>  (146) 
0

>  <r_i_glide_metal>  (146) 
-0

>  <r_i_glide_rewards>  (146) 
-0.5

>  <r_i_glide_evdw>  (146) 
-26.0177

>  <r_i_glide_ecoul>  (146) 
-5.27196

>  <r_i_glide_erotb>  (146) 
0.0552374

>  <r_i_glide_esite>  (146) 
-0.0462846

>  <r_i_glide_emodel>  (146) 
-43.759

>  <r_i_glide_energy>  (146) 
-31.2896

>  <r_i_glide_einternal>  (146) 
0.444528

>  <r_i_glide_intrahb_reward>  (146) 
-0.5

>  <i_i_glide_confnum>  (146) 
2

>  <i_i_glide_posenum>  (146) 
11

>  <r_i_glide_eff_state_penalty>  (146) 
0

>  <ligand_id>  (146) 
33

>  <original_smiles>  (146) 
CC1(C)C=CC=CC2CC3C4CCCC4N=C(N2C1=O)C12CCC4CCC(C1(O)CC(c1ccccc1)c1ccccc12)[N+]3(C)C4

>  <smiles>  (146) 
[H]OC12C([H])([H])C([H])(c3c([H])c([H])c([H])c([H])c3[H])c3c([H])c([H])c([H])c([H])c3C13C1=[N+]([H])C4([H])C([H])([H])C([H])([H])C([H])([H])C4([H])C([H])(C([H])([H])C4([H])C([H])=C([H])C([H])=C([H])C(C([H])([H])[H])(C([H])([H])[H])C(=O)N14)[N+]1(C([H])([H])[H])C([H])([H])C([H])(C([H])([H])C3([H])[H])C([H])([H])C([H])([H])C21[H]

$$$$
33:10:2
     RDKit          3D

 97105  0  0  1  0  0  0  0  0999 V2000
    6.1110   -4.2729    7.5500 C   0  0  0  0  0  0  0  0  0  0  0  0
    4.5743   -4.3820    7.3382 C   0  0  0  0  0  0  0  0  0  0  0  0
    4.0416   -5.0338    8.6406 C   0  0  0  0  0  0  0  0  0  0  0  0
    4.0370   -2.9413    7.1746 C   0  0  0  0  0  0  0  0  0  0  0  0
    2.7564   -2.5499    6.9640 C   0  0  0  0  0  0  0  0  0  0  0  0
    1.6865   -3.5122    6.8532 C   0  0  0  0  0  0  0  0  0  0  0  0
    1.7252   -4.4022    5.8489 C   0  0  0  0  0  0  0  0  0  0  0  0
    1.8406   -5.8810    6.2020 C   0  0  1  0  0  0  0  0  0  0  0  0
    0.8823   -6.7637    5.3758 C   0  0  0  0  0  0  0  0  0  0  0  0
    0.8854   -8.3104    5.6213 C   0  0  2  0  0  0  0  0  0  0  0  0
    1.2068   -8.8806    7.0901 C   0  0  2  0  0  0  0  0  0  0  0  0
    0.1007   -8.9341    8.1518 C   0  0  0  0  0  0  0  0  0  0  0  0
    0.8365   -9.2952    9.4700 C   0  0  0  0  0  0  0  0  0  0  0  0
    2.3388   -9.1600    9.1854 C   0  0  0  0  0  0  0  0  0  0  0  0
    2.3416   -8.3044    7.9297 C   0  0  1  0  0  0  0  0  0  0  0  0
    3.5008   -8.4126    7.0961 N   0  0  0  0  0  0  0  0  0  0  0  0
    3.6484   -7.6337    6.0072 C   0  0  0  0  0  0  0  0  0  0  0  0
    3.2886   -6.3042    6.0956 N   0  0  0  0  0  0  0  0  0  0  0  0
    4.3339   -5.2730    6.0801 C   0  0  0  0  0  0  0  0  0  0  0  0
    4.9515   -5.0578    5.0451 O   0  0  0  0  0  0  0  0  0  0  0  0
    4.3807   -8.2830    4.8222 C   0  0  1  0  0  0  0  0  0  0  0  0
    4.6515   -9.8329    5.0539 C   0  0  0  0  0  0  0  0  0  0  0  0
    3.5979  -10.9184    5.4397 C   0  0  0  0  0  0  0  0  0  0  0  0
    2.4794  -11.3334    4.4645 C   0  0  2  0  0  0  0  0  0  0  0  0
    2.8927  -11.3310    2.9875 C   0  0  0  0  0  0  0  0  0  0  0  0
    2.2847  -10.1094    2.3000 C   0  0  0  0  0  0  0  0  0  0  0  0
    2.1246   -8.8764    3.2616 C   0  0  2  0  0  0  0  0  0  0  0  0
    3.5192   -8.0757    3.4994 C   0  0  1  0  0  0  0  0  0  0  0  0
    3.1581   -6.7175    3.3604 O   0  0  0  0  0  0  0  0  0  0  0  0
    4.4481   -8.2287    2.2457 C   0  0  0  0  0  0  0  0  0  0  0  0
    5.7048   -7.3405    2.1723 C   0  0  1  0  0  0  0  0  0  0  0  0
    5.4419   -5.9671    1.5200 C   0  0  0  0  0  0  0  0  0  0  0  0
    4.8841   -5.9087    0.2226 C   0  0  0  0  0  0  0  0  0  0  0  0
    4.6273   -4.6740   -0.4049 C   0  0  0  0  0  0  0  0  0  0  0  0
    4.9094   -3.4699    0.2606 C   0  0  0  0  0  0  0  0  0  0  0  0
    5.4758   -3.5078    1.5450 C   0  0  0  0  0  0  0  0  0  0  0  0
    5.7570   -4.7433    2.1542 C   0  0  0  0  0  0  0  0  0  0  0  0
    6.4412   -7.3284    3.5038 C   0  0  0  0  0  0  0  0  0  0  0  0
    7.7889   -6.9043    3.5160 C   0  0  0  0  0  0  0  0  0  0  0  0
    8.5084   -6.8334    4.7195 C   0  0  0  0  0  0  0  0  0  0  0  0
    7.8929   -7.2006    5.9262 C   0  0  0  0  0  0  0  0  0  0  0  0
    6.5647   -7.6520    5.9190 C   0  0  0  0  0  0  0  0  0  0  0  0
    5.8245   -7.7430    4.7141 C   0  0  0  0  0  0  0  0  0  0  0  0
    1.0393   -9.1921    4.3407 N   0  0  2  0  0  0  0  0  0  0  0  0
   -0.2901   -9.0230    3.6227 C   0  0  0  0  0  0  0  0  0  0  0  0
    1.0937  -10.6681    4.6598 C   0  0  0  0  0  0  0  0  0  0  0  0
    6.6224   -3.8118    6.7019 H   0  0  0  0  0  0  0  0  0  0  0  0
    6.5694   -5.2502    7.7117 H   0  0  0  0  0  0  0  0  0  0  0  0
    6.3558   -3.6719    8.4304 H   0  0  0  0  0  0  0  0  0  0  0  0
    2.9581   -5.1031    8.6802 H   0  0  0  0  0  0  0  0  0  0  0  0
    4.3415   -4.4583    9.5198 H   0  0  0  0  0  0  0  0  0  0  0  0
    4.4420   -6.0417    8.7723 H   0  0  0  0  0  0  0  0  0  0  0  0
    4.7811   -2.1590    7.2460 H   0  0  0  0  0  0  0  0  0  0  0  0
    2.5361   -1.4968    6.8651 H   0  0  0  0  0  0  0  0  0  0  0  0
    1.2934   -3.8414    7.8050 H   0  0  0  0  0  0  0  0  0  0  0  0
    2.2246   -4.1324    4.9238 H   0  0  0  0  0  0  0  0  0  0  0  0
    1.4730   -5.9220    7.2187 H   0  0  0  0  0  0  0  0  0  0  0  0
   -0.1159   -6.4063    5.6357 H   0  0  0  0  0  0  0  0  0  0  0  0
    0.9421   -6.5167    4.3172 H   0  0  0  0  0  0  0  0  0  0  0  0
   -0.1826   -8.4251    5.7893 H   0  0  0  0  0  0  0  0  0  0  0  0
    1.4637   -9.9220    7.0088 H   0  0  0  0  0  0  0  0  0  0  0  0
   -0.4000   -7.9698    8.2529 H   0  0  0  0  0  0  0  0  0  0  0  0
   -0.6451   -9.6813    7.8836 H   0  0  0  0  0  0  0  0  0  0  0  0
    0.5291   -8.6250   10.2723 H   0  0  0  0  0  0  0  0  0  0  0  0
    0.6205  -10.3098    9.7976 H   0  0  0  0  0  0  0  0  0  0  0  0
    2.8632   -8.6757   10.0088 H   0  0  0  0  0  0  0  0  0  0  0  0
    2.8026  -10.1310    9.0064 H   0  0  0  0  0  0  0  0  0  0  0  0
    2.1968   -7.2987    8.3028 H   0  0  0  0  0  0  0  0  0  0  0  0
    5.2124  -10.2117    4.2021 H   0  0  0  0  0  0  0  0  0  0  0  0
    5.3730   -9.9245    5.8656 H   0  0  0  0  0  0  0  0  0  0  0  0
    4.1925  -11.8272    5.5595 H   0  0  0  0  0  0  0  0  0  0  0  0
    3.2097  -10.8130    6.4431 H   0  0  0  0  0  0  0  0  0  0  0  0
    2.3023  -12.3816    4.6997 H   0  0  0  0  0  0  0  0  0  0  0  0
    3.9767  -11.3519    2.8580 H   0  0  0  0  0  0  0  0  0  0  0  0
    2.5370  -12.2433    2.4958 H   0  0  0  0  0  0  0  0  0  0  0  0
    2.7965   -9.9127    1.3635 H   0  0  0  0  0  0  0  0  0  0  0  0
    1.3049  -10.4118    1.9443 H   0  0  0  0  0  0  0  0  0  0  0  0
    1.6111   -8.1967    2.5829 H   0  0  0  0  0  0  0  0  0  0  0  0
    3.9506   -6.1961    3.3658 H   0  0  0  0  0  0  0  0  0  0  0  0
    4.8181   -9.2544    2.2461 H   0  0  0  0  0  0  0  0  0  0  0  0
    3.8897   -8.1310    1.3136 H   0  0  0  0  0  0  0  0  0  0  0  0
    6.3821   -7.8398    1.4795 H   0  0  0  0  0  0  0  0  0  0  0  0
    4.6635   -6.8183   -0.3191 H   0  0  0  0  0  0  0  0  0  0  0  0
    4.2132   -4.6534   -1.4033 H   0  0  0  0  0  0  0  0  0  0  0  0
    4.7068   -2.5237   -0.2206 H   0  0  0  0  0  0  0  0  0  0  0  0
    5.7124   -2.5879    2.0582 H   0  0  0  0  0  0  0  0  0  0  0  0
    6.2363   -4.7290    3.1152 H   0  0  0  0  0  0  0  0  0  0  0  0
    8.2709   -6.6102    2.5959 H   0  0  0  0  0  0  0  0  0  0  0  0
    9.5362   -6.4986    4.7192 H   0  0  0  0  0  0  0  0  0  0  0  0
    8.4347   -7.1401    6.8592 H   0  0  0  0  0  0  0  0  0  0  0  0
    6.1100   -7.9293    6.8575 H   0  0  0  0  0  0  0  0  0  0  0  0
   -0.3675   -9.5457    2.6741 H   0  0  0  0  0  0  0  0  0  0  0  0
   -0.5220   -7.9821    3.4053 H   0  0  0  0  0  0  0  0  0  0  0  0
   -1.1195   -9.4221    4.2010 H   0  0  0  0  0  0  0  0  0  0  0  0
    0.4635  -11.2125    3.9538 H   0  0  0  0  0  0  0  0  0  0  0  0
    0.6045  -10.9645    5.5825 H   0  0  0  0  0  0  0  0  0  0  0  0
    3.9745   -9.3057    7.1048 H   0  0  0  0  0  0  0  0  0  0  0  0
  1  2  1  0
  1 47  1  0
  1 48  1  0
  1 49  1  0
  2 19  1  0
  2  3  1  0
  2  4  1  0
  3 50  1  0
  3 51  1  0
  3 52  1  0
  4  5  2  3
  4 53  1  0
  5  6  1  0
  5 54  1  0
  6  7  2  3
  6 55  1  0
  7  8  1  0
  7 56  1  0
  8 18  1  0
  8  9  1  0
  8 57  1  1
  9 10  1  0
  9 58  1  0
  9 59  1  0
 10 44  1  0
 10 11  1  0
 10 60  1  1
 11 15  1  0
 11 12  1  0
 11 61  1  6
 12 13  1  0
 12 62  1  0
 12 63  1  0
 13 14  1  0
 13 64  1  0
 13 65  1  0
 14 15  1  0
 14 66  1  0
 14 67  1  0
 15 16  1  0
 15 68  1  1
 16 17  2  3
 16 97  1  0
 17 18  1  0
 17 21  1  0
 18 19  1  0
 19 20  2  0
 21 28  1  0
 21 43  1  6
 21 22  1  0
 22 23  1  0
 22 69  1  0
 22 70  1  0
 23 24  1  0
 23 71  1  0
 23 72  1  0
 24 46  1  0
 24 25  1  0
 24 73  1  1
 25 26  1  0
 25 74  1  0
 25 75  1  0
 26 27  1  0
 26 76  1  0
 26 77  1  0
 27 28  1  0
 27 44  1  0
 27 78  1  6
 28 29  1  1
 28 30  1  0
 29 79  1  0
 30 31  1  0
 30 80  1  0
 30 81  1  0
 31 32  1  0
 31 38  1  0
 31 82  1  6
 32 37  1  0
 32 33  2  0
 33 34  1  0
 33 83  1  0
 34 35  2  0
 34 84  1  0
 35 36  1  0
 35 85  1  0
 36 37  2  0
 36 86  1  0
 37 87  1  0
 38 43  2  0
 38 39  1  0
 39 40  2  0
 39 88  1  0
 40 41  1  0
 40 89  1  0
 41 42  2  0
 41 90  1  0
 42 43  1  0
 42 91  1  0
 44 45  1  6
 44 46  1  0
 45 92  1  0
 45 93  1  0
 45 94  1  0
 46 95  1  0
 46 96  1  0
M  CHG  2  16   1  44   1
M  END
>  <i_m_ct_stereo_status>  (147) 
1

>  <s_m_source_file>  (147) 
/var/tmp/pbs.5076255.sched01/tmpqm933_o1/456x1pmp19.sdf

>  <i_m_source_file_index>  (147) 
14

>  <i_lp_mmshare_version>  (147) 
48012

>  <i_f3d_flags>  (147) 
0

>  <s_epik_input>  (147) 
Tz1DMUMoW0NIM10pKFtDSDNdKS9bQ0hdPVtDSF1cW0NIXT1bQ0hdL1tDQEhdKE4xL0MyW0NAQF0zNDUpW0NIMl1bQ0hdKFtDQEhdNltDQEhdKC9OPTIpW0NIMl1bQ0gyXVtDSDJdNilbTkBAK103KFtDSDNdKVtDQEhdKFtDSDJdW0NIMl1bQ0BIXShbQ0gyXTcpW0NIMl1bQ0gyXTMpW0NAXTQoW09IXSlbQ0gyXVtDQEBIXShjOFtjSF1bY0hdW2NIXVtjSF1bY0hdOCljOWM1W2NIXVtjSF1bY0hdW2NIXTk=

>  <s_epik_cmdline>  (147) 
J2VwaWtfcHl0aG9uJywgJy1waHQnLCAnMi4wJywgJy1waCcsICc3LjAnLCAnLXRuJywgJzgnLCAnLW1hJywgJzIwMCcsICctaW1hZScsICc8aW5maWxlLm1hZT4nLCAnLW9tYWUnLCAnPG91dGZpbGUubWFlPic=

>  <r_epik_Ionization_Penalty>  (147) 
1.89798

>  <r_epik_Ionization_Penalty_Charging>  (147) 
1.89749

>  <r_epik_Ionization_Penalty_Neutral>  (147) 
0.000490901

>  <r_epik_State_Penalty>  (147) 
2.0185

>  <r_epik_Charging_Adjusted_Penalty>  (147) 
3.91599

>  <i_epik_Tot_Q>  (147) 
2

>  <i_epik_Tot_abs_Q>  (147) 
2

>  <s_epik_Chemistry_Notes>  (147) 
This compound has an imine and may undergo hydrolysis.

>  <s_lp_Force_Field>  (147) 
OPLS3e

>  <r_lp_Energy>  (147) 
264.313

>  <b_lp_Chiralities_Consistent>  (147) 
1

>  <s_lp_Variant>  (147) 
33:0-11

>  <s_i_glide_gridfile>  (147) 
pfpi4k_grid

>  <i_i_glide_lignum>  (147) 
14

>  <i_i_glide_rotatable_bonds>  (147) 
2

>  <r_i_docking_score>  (147) 
-2.82337

>  <r_i_glide_ligand_efficiency>  (147) 
-0.0613776

>  <r_i_glide_ligand_efficiency_sa>  (147) 
-0.219919

>  <r_i_glide_ligand_efficiency_ln>  (147) 
-0.584713

>  <r_i_glide_gscore>  (147) 
-2.82337

>  <r_i_glide_lipo>  (147) 
-0.3612

>  <r_i_glide_hbond>  (147) 
0

>  <r_i_glide_metal>  (147) 
-0

>  <r_i_glide_rewards>  (147) 
-0.5

>  <r_i_glide_evdw>  (147) 
-25.7637

>  <r_i_glide_ecoul>  (147) 
-4.66713

>  <r_i_glide_erotb>  (147) 
0.0552374

>  <r_i_glide_esite>  (147) 
-0.029151

>  <r_i_glide_emodel>  (147) 
-42.5767

>  <r_i_glide_energy>  (147) 
-30.4309

>  <r_i_glide_einternal>  (147) 
0.327449

>  <r_i_glide_intrahb_reward>  (147) 
-0.5

>  <i_i_glide_confnum>  (147) 
4

>  <i_i_glide_posenum>  (147) 
36

>  <r_i_glide_eff_state_penalty>  (147) 
0

>  <ligand_id>  (147) 
33

>  <original_smiles>  (147) 
CC1(C)C=CC=CC2CC3C4CCCC4N=C(N2C1=O)C12CCC4CCC(C1(O)CC(c1ccccc1)c1ccccc12)[N+]3(C)C4

>  <smiles>  (147) 
[H]OC12C([H])([H])C([H])(c3c([H])c([H])c([H])c([H])c3[H])c3c([H])c([H])c([H])c([H])c3C13C1=[N+]([H])C4([H])C([H])([H])C([H])([H])C([H])([H])C4([H])C([H])(C([H])([H])C4([H])C([H])=C([H])C([H])=C([H])C(C([H])([H])[H])(C([H])([H])[H])C(=O)N14)[N+]1(C([H])([H])[H])C([H])([H])C([H])(C([H])([H])C3([H])[H])C([H])([H])C([H])([H])C21[H]

$$$$
33:11:0
     RDKit          3D

 97105  0  0  1  0  0  0  0  0999 V2000
    7.3865   -5.0030    7.0759 C   0  0  0  0  0  0  0  0  0  0  0  0
    6.0627   -5.7524    7.4040 C   0  0  0  0  0  0  0  0  0  0  0  0
    6.4548   -6.9562    8.2950 C   0  0  0  0  0  0  0  0  0  0  0  0
    5.1183   -4.8311    8.1455 C   0  0  0  0  0  0  0  0  0  0  0  0
    4.5765   -3.7620    7.5223 C   0  0  0  0  0  0  0  0  0  0  0  0
    3.1657   -3.8963    7.2678 C   0  0  0  0  0  0  0  0  0  0  0  0
    2.9132   -4.7653    6.2659 C   0  0  0  0  0  0  0  0  0  0  0  0
    2.8282   -6.2653    6.5814 C   0  0  1  0  0  0  0  0  0  0  0  0
    1.5558   -6.8649    5.9339 C   0  0  0  0  0  0  0  0  0  0  0  0
    1.2526   -8.3882    6.1031 C   0  0  2  0  0  0  0  0  0  0  0  0
    1.6952   -9.1489    7.4422 C   0  0  2  0  0  0  0  0  0  0  0  0
    0.8313   -9.0286    8.7049 C   0  0  0  0  0  0  0  0  0  0  0  0
    1.7075   -9.6440    9.8279 C   0  0  0  0  0  0  0  0  0  0  0  0
    3.1147   -9.8236    9.2455 C   0  0  0  0  0  0  0  0  0  0  0  0
    3.0694   -8.9032    8.0463 C   0  0  1  0  0  0  0  0  0  0  0  0
    3.9814   -9.1958    6.9831 N   0  0  0  0  0  0  0  0  0  0  0  0
    4.0979   -8.3576    5.9394 C   0  0  0  0  0  0  0  0  0  0  0  0
    4.0980   -6.9952    6.1889 N   0  0  0  0  0  0  0  0  0  0  0  0
    5.3812   -6.2691    6.0933 C   0  0  0  0  0  0  0  0  0  0  0  0
    5.8481   -6.0255    4.9960 O   0  0  0  0  0  0  0  0  0  0  0  0
    4.4174   -9.0213    4.5833 C   0  0  1  0  0  0  0  0  0  0  0  0
    4.3756  -10.6061    4.6727 C   0  0  0  0  0  0  0  0  0  0  0  0
    3.2010  -11.4715    5.2172 C   0  0  0  0  0  0  0  0  0  0  0  0
    1.8510  -11.5299    4.4868 C   0  0  2  0  0  0  0  0  0  0  0  0
    1.9324  -11.4944    2.9575 C   0  0  0  0  0  0  0  0  0  0  0  0
    1.5073  -10.1091    2.4844 C   0  0  0  0  0  0  0  0  0  0  0  0
    1.8313   -8.9790    3.5238 C   0  0  2  0  0  0  0  0  0  0  0  0
    3.3830   -8.5090    3.4913 C   0  0  1  0  0  0  0  0  0  0  0  0
    3.3111   -7.1034    3.5342 O   0  0  0  0  0  0  0  0  0  0  0  0
    3.9770   -8.6951    2.0458 C   0  0  0  0  0  0  0  0  0  0  0  0
    5.3569   -8.0881    1.7532 C   0  0  1  0  0  0  0  0  0  0  0  0
    5.2817   -6.6124    1.2951 C   0  0  0  0  0  0  0  0  0  0  0  0
    5.9068   -5.5755    2.0218 C   0  0  0  0  0  0  0  0  0  0  0  0
    5.7445   -4.2272    1.6647 C   0  0  0  0  0  0  0  0  0  0  0  0
    5.0867   -3.8857    0.4736 C   0  0  0  0  0  0  0  0  0  0  0  0
    4.5477   -4.9127   -0.3210 C   0  0  0  0  0  0  0  0  0  0  0  0
    4.6135   -6.2661    0.0938 C   0  0  0  0  0  0  0  0  0  0  0  0
    6.3254   -8.3744    2.8965 C   0  0  0  0  0  0  0  0  0  0  0  0
    7.7039   -8.2180    2.6485 C   0  0  0  0  0  0  0  0  0  0  0  0
    8.6463   -8.4296    3.6723 C   0  0  0  0  0  0  0  0  0  0  0  0
    8.2261   -8.8253    4.9464 C   0  0  0  0  0  0  0  0  0  0  0  0
    6.8590   -9.0069    5.1961 C   0  0  0  0  0  0  0  0  0  0  0  0
    5.8913   -8.7907    4.1842 C   0  0  0  0  0  0  0  0  0  0  0  0
    0.9371   -9.1546    4.7877 N   0  0  2  0  0  0  0  0  0  0  0  0
   -0.4448   -8.6449    4.3860 C   0  0  0  0  0  0  0  0  0  0  0  0
    0.7216  -10.6227    5.0110 C   0  0  0  0  0  0  0  0  0  0  0  0
    7.2359   -4.1434    6.4244 H   0  0  0  0  0  0  0  0  0  0  0  0
    8.0913   -5.6593    6.5644 H   0  0  0  0  0  0  0  0  0  0  0  0
    7.8894   -4.6458    7.9781 H   0  0  0  0  0  0  0  0  0  0  0  0
    5.5908   -7.5655    8.5785 H   0  0  0  0  0  0  0  0  0  0  0  0
    6.9601   -6.6322    9.2154 H   0  0  0  0  0  0  0  0  0  0  0  0
    7.1544   -7.6041    7.7609 H   0  0  0  0  0  0  0  0  0  0  0  0
    4.4878   -5.3919    8.8303 H   0  0  0  0  0  0  0  0  0  0  0  0
    5.1446   -3.2872    6.7285 H   0  0  0  0  0  0  0  0  0  0  0  0
    2.6453   -4.1019    8.1923 H   0  0  0  0  0  0  0  0  0  0  0  0
    3.4636   -4.5907    5.3479 H   0  0  0  0  0  0  0  0  0  0  0  0
    2.6467   -6.2828    7.6550 H   0  0  0  0  0  0  0  0  0  0  0  0
    0.7337   -6.3501    6.4341 H   0  0  0  0  0  0  0  0  0  0  0  0
    1.4289   -6.5209    4.9049 H   0  0  0  0  0  0  0  0  0  0  0  0
    0.2414   -8.2768    6.4844 H   0  0  0  0  0  0  0  0  0  0  0  0
    1.6872  -10.2112    7.2654 H   0  0  0  0  0  0  0  0  0  0  0  0
    0.5982   -7.9878    8.9384 H   0  0  0  0  0  0  0  0  0  0  0  0
   -0.1088   -9.5562    8.5520 H   0  0  0  0  0  0  0  0  0  0  0  0
    1.7286   -8.9827   10.6924 H   0  0  0  0  0  0  0  0  0  0  0  0
    1.3342  -10.6066   10.1652 H   0  0  0  0  0  0  0  0  0  0  0  0
    3.8839   -9.5170    9.9500 H   0  0  0  0  0  0  0  0  0  0  0  0
    3.3024  -10.8540    8.9462 H   0  0  0  0  0  0  0  0  0  0  0  0
    3.2339   -7.9158    8.4557 H   0  0  0  0  0  0  0  0  0  0  0  0
    4.6501  -11.0033    3.6981 H   0  0  0  0  0  0  0  0  0  0  0  0
    5.2014  -10.9313    5.3070 H   0  0  0  0  0  0  0  0  0  0  0  0
    3.5740  -12.4951    5.1557 H   0  0  0  0  0  0  0  0  0  0  0  0
    3.0474  -11.3895    6.2833 H   0  0  0  0  0  0  0  0  0  0  0  0
    1.4860  -12.5208    4.7239 H   0  0  0  0  0  0  0  0  0  0  0  0
    2.9400  -11.7155    2.6047 H   0  0  0  0  0  0  0  0  0  0  0  0
    1.2711  -12.2573    2.5207 H   0  0  0  0  0  0  0  0  0  0  0  0
    1.8921   -9.9062    1.4926 H   0  0  0  0  0  0  0  0  0  0  0  0
    0.4394  -10.1715    2.2955 H   0  0  0  0  0  0  0  0  0  0  0  0
    1.3631   -8.1446    3.0226 H   0  0  0  0  0  0  0  0  0  0  0  0
    4.1805   -6.7656    3.3627 H   0  0  0  0  0  0  0  0  0  0  0  0
    4.0885   -9.7731    1.9097 H   0  0  0  0  0  0  0  0  0  0  0  0
    3.2806   -8.3613    1.2708 H   0  0  0  0  0  0  0  0  0  0  0  0
    5.7358   -8.6537    0.9033 H   0  0  0  0  0  0  0  0  0  0  0  0
    6.5804   -5.8029    2.8372 H   0  0  0  0  0  0  0  0  0  0  0  0
    6.1865   -3.4576    2.2791 H   0  0  0  0  0  0  0  0  0  0  0  0
    5.0521   -2.8486    0.1346 H   0  0  0  0  0  0  0  0  0  0  0  0
    4.1096   -4.6539   -1.2823 H   0  0  0  0  0  0  0  0  0  0  0  0
    4.2123   -7.0601   -0.5414 H   0  0  0  0  0  0  0  0  0  0  0  0
    8.0517   -7.9057    1.6729 H   0  0  0  0  0  0  0  0  0  0  0  0
    9.7009   -8.3056    3.4615 H   0  0  0  0  0  0  0  0  0  0  0  0
    8.9445   -8.9876    5.7421 H   0  0  0  0  0  0  0  0  0  0  0  0
    6.5474   -9.3089    6.1846 H   0  0  0  0  0  0  0  0  0  0  0  0
   -0.8135   -9.0554    3.4489 H   0  0  0  0  0  0  0  0  0  0  0  0
   -0.4742   -7.5601    4.2719 H   0  0  0  0  0  0  0  0  0  0  0  0
   -1.2130   -8.9185    5.1161 H   0  0  0  0  0  0  0  0  0  0  0  0
   -0.1210  -10.9483    4.4012 H   0  0  0  0  0  0  0  0  0  0  0  0
    0.3611  -10.9016    5.9938 H   0  0  0  0  0  0  0  0  0  0  0  0
    4.2084  -10.1741    6.8413 H   0  0  0  0  0  0  0  0  0  0  0  0
  1  2  1  0
  1 47  1  0
  1 48  1  0
  1 49  1  0
  2 19  1  0
  2  3  1  0
  2  4  1  0
  3 50  1  0
  3 51  1  0
  3 52  1  0
  4  5  2  3
  4 53  1  0
  5  6  1  0
  5 54  1  0
  6  7  2  3
  6 55  1  0
  7  8  1  0
  7 56  1  0
  8 18  1  0
  8  9  1  0
  8 57  1  1
  9 10  1  0
  9 58  1  0
  9 59  1  0
 10 44  1  0
 10 11  1  0
 10 60  1  1
 11 15  1  0
 11 12  1  0
 11 61  1  6
 12 13  1  0
 12 62  1  0
 12 63  1  0
 13 14  1  0
 13 64  1  0
 13 65  1  0
 14 15  1  0
 14 66  1  0
 14 67  1  0
 15 16  1  0
 15 68  1  1
 16 17  2  3
 16 97  1  0
 17 18  1  0
 17 21  1  0
 18 19  1  0
 19 20  2  0
 21 28  1  0
 21 43  1  6
 21 22  1  0
 22 23  1  0
 22 69  1  0
 22 70  1  0
 23 24  1  0
 23 71  1  0
 23 72  1  0
 24 46  1  0
 24 25  1  0
 24 73  1  6
 25 26  1  0
 25 74  1  0
 25 75  1  0
 26 27  1  0
 26 76  1  0
 26 77  1  0
 27 28  1  0
 27 44  1  0
 27 78  1  6
 28 29  1  1
 28 30  1  0
 29 79  1  0
 30 31  1  0
 30 80  1  0
 30 81  1  0
 31 32  1  0
 31 38  1  0
 31 82  1  6
 32 37  1  0
 32 33  2  0
 33 34  1  0
 33 83  1  0
 34 35  2  0
 34 84  1  0
 35 36  1  0
 35 85  1  0
 36 37  2  0
 36 86  1  0
 37 87  1  0
 38 43  2  0
 38 39  1  0
 39 40  2  0
 39 88  1  0
 40 41  1  0
 40 89  1  0
 41 42  2  0
 41 90  1  0
 42 43  1  0
 42 91  1  0
 44 45  1  6
 44 46  1  0
 45 92  1  0
 45 93  1  0
 45 94  1  0
 46 95  1  0
 46 96  1  0
M  CHG  2  16   1  44   1
M  END
>  <i_m_ct_stereo_status>  (148) 
1

>  <s_m_source_file>  (148) 
/var/tmp/pbs.5076255.sched01/tmpqm933_o1/456x1pmp19.sdf

>  <i_m_source_file_index>  (148) 
15

>  <i_lp_mmshare_version>  (148) 
48012

>  <i_f3d_flags>  (148) 
0

>  <s_epik_input>  (148) 
Tz1DMUMoW0NIM10pKFtDSDNdKS9bQ0hdPVtDSF1cW0NIXT1bQ0hdL1tDQEhdKE4xL0MyW0NAQF0zNDUpW0NIMl1bQ0hdKFtDQEhdNltDQEhdKC9OPTIpW0NIMl1bQ0gyXVtDSDJdNilbTkBAK103KFtDSDNdKVtDQEhdKFtDSDJdW0NIMl1bQ0BIXShbQ0gyXTcpW0NIMl1bQ0gyXTMpW0NAXTQoW09IXSlbQ0gyXVtDQEBIXShjOFtjSF1bY0hdW2NIXVtjSF1bY0hdOCljOWM1W2NIXVtjSF1bY0hdW2NIXTk=

>  <s_epik_cmdline>  (148) 
J2VwaWtfcHl0aG9uJywgJy1waHQnLCAnMi4wJywgJy1waCcsICc3LjAnLCAnLXRuJywgJzgnLCAnLW1hJywgJzIwMCcsICctaW1hZScsICc8aW5maWxlLm1hZT4nLCAnLW9tYWUnLCAnPG91dGZpbGUubWFlPic=

>  <r_epik_Ionization_Penalty>  (148) 
1.89798

>  <r_epik_Ionization_Penalty_Charging>  (148) 
1.89749

>  <r_epik_Ionization_Penalty_Neutral>  (148) 
0.000490901

>  <r_epik_State_Penalty>  (148) 
2.0185

>  <r_epik_Charging_Adjusted_Penalty>  (148) 
3.91599

>  <i_epik_Tot_Q>  (148) 
2

>  <i_epik_Tot_abs_Q>  (148) 
2

>  <s_epik_Chemistry_Notes>  (148) 
This compound has an imine and may undergo hydrolysis.

>  <s_lp_Force_Field>  (148) 
OPLS3e

>  <r_lp_Energy>  (148) 
300.795

>  <b_lp_Chiralities_Consistent>  (148) 
1

>  <s_lp_Variant>  (148) 
33:0-12

>  <s_i_glide_gridfile>  (148) 
pfpi4k_grid

>  <i_i_glide_lignum>  (148) 
15

>  <i_i_glide_rotatable_bonds>  (148) 
2

>  <r_i_docking_score>  (148) 
-3.18084

>  <r_i_glide_ligand_efficiency>  (148) 
-0.0691486

>  <r_i_glide_ligand_efficiency_sa>  (148) 
-0.247763

>  <r_i_glide_ligand_efficiency_ln>  (148) 
-0.658743

>  <r_i_glide_gscore>  (148) 
-3.18084

>  <r_i_glide_lipo>  (148) 
-0.588297

>  <r_i_glide_hbond>  (148) 
0

>  <r_i_glide_metal>  (148) 
-0

>  <r_i_glide_rewards>  (148) 
-0.5

>  <r_i_glide_evdw>  (148) 
-25.8691

>  <r_i_glide_ecoul>  (148) 
-5.39764

>  <r_i_glide_erotb>  (148) 
0.0552374

>  <r_i_glide_esite>  (148) 
-0.0446758

>  <r_i_glide_emodel>  (148) 
-43.945

>  <r_i_glide_energy>  (148) 
-31.2667

>  <r_i_glide_einternal>  (148) 
0.371692

>  <r_i_glide_intrahb_reward>  (148) 
-0.5

>  <i_i_glide_confnum>  (148) 
4

>  <i_i_glide_posenum>  (148) 
1

>  <r_i_glide_eff_state_penalty>  (148) 
0

>  <ligand_id>  (148) 
33

>  <original_smiles>  (148) 
CC1(C)C=CC=CC2CC3C4CCCC4N=C(N2C1=O)C12CCC4CCC(C1(O)CC(c1ccccc1)c1ccccc12)[N+]3(C)C4

>  <smiles>  (148) 
[H]OC12C([H])([H])C([H])(c3c([H])c([H])c([H])c([H])c3[H])c3c([H])c([H])c([H])c([H])c3C13C1=[N+]([H])C4([H])C([H])([H])C([H])([H])C([H])([H])C4([H])C([H])(C([H])([H])C4([H])C([H])=C([H])C([H])=C([H])C(C([H])([H])[H])(C([H])([H])[H])C(=O)N14)[N+]1(C([H])([H])[H])C([H])([H])C([H])(C([H])([H])C3([H])[H])C([H])([H])C([H])([H])C21[H]

$$$$
33:11:1
     RDKit          3D

 97105  0  0  1  0  0  0  0  0999 V2000
    7.0387   -4.3194    6.7717 C   0  0  0  0  0  0  0  0  0  0  0  0
    5.8555   -5.2320    7.1988 C   0  0  0  0  0  0  0  0  0  0  0  0
    6.4812   -6.4421    7.9340 C   0  0  0  0  0  0  0  0  0  0  0  0
    4.9323   -4.4788    8.1350 C   0  0  0  0  0  0  0  0  0  0  0  0
    4.1953   -3.4354    7.6967 C   0  0  0  0  0  0  0  0  0  0  0  0
    2.7821   -3.7146    7.6298 C   0  0  0  0  0  0  0  0  0  0  0  0
    2.4804   -4.5327    6.5978 C   0  0  0  0  0  0  0  0  0  0  0  0
    2.5961   -6.0504    6.7877 C   0  0  1  0  0  0  0  0  0  0  0  0
    1.3058   -6.7484    6.2951 C   0  0  0  0  0  0  0  0  0  0  0  0
    1.1857   -8.3059    6.3779 C   0  0  2  0  0  0  0  0  0  0  0  0
    1.8982   -9.0956    7.5814 C   0  0  2  0  0  0  0  0  0  0  0  0
    1.2187   -9.1743    8.9572 C   0  0  0  0  0  0  0  0  0  0  0  0
    2.3081   -9.7443    9.9017 C   0  0  0  0  0  0  0  0  0  0  0  0
    3.6280   -9.7165    9.1201 C   0  0  0  0  0  0  0  0  0  0  0  0
    3.3119   -8.7268    8.0139 C   0  0  1  0  0  0  0  0  0  0  0  0
    4.0970   -8.8413    6.8212 N   0  0  0  0  0  0  0  0  0  0  0  0
    3.9789   -7.9365    5.8282 C   0  0  0  0  0  0  0  0  0  0  0  0
    3.8659   -6.6003    6.1613 N   0  0  0  0  0  0  0  0  0  0  0  0
    5.0409   -5.7317    5.9613 C   0  0  0  0  0  0  0  0  0  0  0  0
    5.3068   -5.3410    4.8351 O   0  0  0  0  0  0  0  0  0  0  0  0
    4.1625   -8.4822    4.4018 C   0  0  1  0  0  0  0  0  0  0  0  0
    4.2921  -10.0661    4.3711 C   0  0  0  0  0  0  0  0  0  0  0  0
    3.2997  -11.0951    4.9961 C   0  0  0  0  0  0  0  0  0  0  0  0
    1.8767  -11.2662    4.4419 C   0  0  2  0  0  0  0  0  0  0  0  0
    1.7539  -11.1000    2.9252 C   0  0  0  0  0  0  0  0  0  0  0  0
    1.1151   -9.7500    2.6178 C   0  0  0  0  0  0  0  0  0  0  0  0
    1.4508   -8.6494    3.6920 C   0  0  2  0  0  0  0  0  0  0  0  0
    2.9353   -8.0155    3.5010 C   0  0  1  0  0  0  0  0  0  0  0  0
    2.7311   -6.6279    3.6514 O   0  0  0  0  0  0  0  0  0  0  0  0
    3.3475   -8.0555    1.9874 C   0  0  0  0  0  0  0  0  0  0  0  0
    4.5968   -7.2648    1.5692 C   0  0  1  0  0  0  0  0  0  0  0  0
    4.3056   -5.7789    1.2603 C   0  0  0  0  0  0  0  0  0  0  0  0
    4.9814   -4.7292    1.9195 C   0  0  0  0  0  0  0  0  0  0  0  0
    4.6858   -3.3834    1.6552 C   0  0  0  0  0  0  0  0  0  0  0  0
    3.7503   -3.0497    0.6644 C   0  0  0  0  0  0  0  0  0  0  0  0
    3.0920   -4.0760   -0.0365 C   0  0  0  0  0  0  0  0  0  0  0  0
    3.3575   -5.4270    0.2720 C   0  0  0  0  0  0  0  0  0  0  0  0
    5.7460   -7.5231    2.5378 C   0  0  0  0  0  0  0  0  0  0  0  0
    7.0565   -7.2090    2.1182 C   0  0  0  0  0  0  0  0  0  0  0  0
    8.1488   -7.3724    2.9844 C   0  0  0  0  0  0  0  0  0  0  0  0
    7.9491   -7.8813    4.2755 C   0  0  0  0  0  0  0  0  0  0  0  0
    6.6551   -8.2283    4.6892 C   0  0  0  0  0  0  0  0  0  0  0  0
    5.5374   -8.0638    3.8360 C   0  0  0  0  0  0  0  0  0  0  0  0
    0.7737   -9.0149    5.0479 N   0  0  2  0  0  0  0  0  0  0  0  0
   -0.6886   -8.6399    4.8762 C   0  0  0  0  0  0  0  0  0  0  0  0
    0.7426  -10.5097    5.1722 C   0  0  0  0  0  0  0  0  0  0  0  0
    6.7156   -3.4325    6.2259 H   0  0  0  0  0  0  0  0  0  0  0  0
    7.7408   -4.8515    6.1263 H   0  0  0  0  0  0  0  0  0  0  0  0
    7.6106   -3.9749    7.6363 H   0  0  0  0  0  0  0  0  0  0  0  0
    5.7319   -7.1500    8.2891 H   0  0  0  0  0  0  0  0  0  0  0  0
    7.0617   -6.1212    8.8037 H   0  0  0  0  0  0  0  0  0  0  0  0
    7.1697   -6.9846    7.2827 H   0  0  0  0  0  0  0  0  0  0  0  0
    4.4703   -5.1555    8.8414 H   0  0  0  0  0  0  0  0  0  0  0  0
    4.5871   -2.8389    6.8839 H   0  0  0  0  0  0  0  0  0  0  0  0
    2.4205   -4.0446    8.5933 H   0  0  0  0  0  0  0  0  0  0  0  0
    2.8644   -4.2322    5.6289 H   0  0  0  0  0  0  0  0  0  0  0  0
    2.6050   -6.1613    7.8637 H   0  0  0  0  0  0  0  0  0  0  0  0
    0.5226   -6.3482    6.9388 H   0  0  0  0  0  0  0  0  0  0  0  0
    1.0048   -6.3667    5.3212 H   0  0  0  0  0  0  0  0  0  0  0  0
    0.2322   -8.3397    6.9009 H   0  0  0  0  0  0  0  0  0  0  0  0
    1.9722  -10.1373    7.3187 H   0  0  0  0  0  0  0  0  0  0  0  0
    0.8978   -8.1900    9.3028 H   0  0  0  0  0  0  0  0  0  0  0  0
    0.3449   -9.8254    8.9220 H   0  0  0  0  0  0  0  0  0  0  0  0
    2.3780   -9.1399   10.8067 H   0  0  0  0  0  0  0  0  0  0  0  0
    2.0841  -10.7640   10.2105 H   0  0  0  0  0  0  0  0  0  0  0  0
    4.4576   -9.3791    9.7419 H   0  0  0  0  0  0  0  0  0  0  0  0
    3.8784  -10.6982    8.7154 H   0  0  0  0  0  0  0  0  0  0  0  0
    3.4249   -7.7593    8.4852 H   0  0  0  0  0  0  0  0  0  0  0  0
    4.4746  -10.3711    3.3427 H   0  0  0  0  0  0  0  0  0  0  0  0
    5.2271  -10.3358    4.8639 H   0  0  0  0  0  0  0  0  0  0  0  0
    3.7750  -12.0606    4.8099 H   0  0  0  0  0  0  0  0  0  0  0  0
    3.2885  -11.0901    6.0776 H   0  0  0  0  0  0  0  0  0  0  0  0
    1.6482  -12.3148    4.6234 H   0  0  0  0  0  0  0  0  0  0  0  0
    2.7192  -11.1980    2.4265 H   0  0  0  0  0  0  0  0  0  0  0  0
    1.1211  -11.8949    2.5149 H   0  0  0  0  0  0  0  0  0  0  0  0
    1.3390   -9.4632    1.5987 H   0  0  0  0  0  0  0  0  0  0  0  0
    0.0427   -9.9266    2.5639 H   0  0  0  0  0  0  0  0  0  0  0  0
    0.8309   -7.8370    3.3140 H   0  0  0  0  0  0  0  0  0  0  0  0
    3.5401   -6.1827    3.4349 H   0  0  0  0  0  0  0  0  0  0  0  0
    3.5630   -9.0998    1.7480 H   0  0  0  0  0  0  0  0  0  0  0  0
    2.5230   -7.7728    1.3332 H   0  0  0  0  0  0  0  0  0  0  0  0
    4.9147   -7.6939    0.6189 H   0  0  0  0  0  0  0  0  0  0  0  0
    5.7696   -4.9334    2.6183 H   0  0  0  0  0  0  0  0  0  0  0  0
    5.2094   -2.6100    2.1953 H   0  0  0  0  0  0  0  0  0  0  0  0
    3.5574   -2.0117    0.4212 H   0  0  0  0  0  0  0  0  0  0  0  0
    2.4009   -3.8226   -0.8292 H   0  0  0  0  0  0  0  0  0  0  0  0
    2.8594   -6.2007   -0.2988 H   0  0  0  0  0  0  0  0  0  0  0  0
    7.2228   -6.7989    1.1321 H   0  0  0  0  0  0  0  0  0  0  0  0
    9.1454   -7.1092    2.6609 H   0  0  0  0  0  0  0  0  0  0  0  0
    8.7837   -8.0075    4.9510 H   0  0  0  0  0  0  0  0  0  0  0  0
    6.5224   -8.6207    5.6857 H   0  0  0  0  0  0  0  0  0  0  0  0
   -1.1480   -9.0277    3.9684 H   0  0  0  0  0  0  0  0  0  0  0  0
   -0.8534   -7.5645    4.8590 H   0  0  0  0  0  0  0  0  0  0  0  0
   -1.3123   -9.0402    5.6804 H   0  0  0  0  0  0  0  0  0  0  0  0
   -0.1410  -10.8941    4.6592 H   0  0  0  0  0  0  0  0  0  0  0  0
    0.5413  -10.8776    6.1690 H   0  0  0  0  0  0  0  0  0  0  0  0
    4.3994   -9.7746    6.5756 H   0  0  0  0  0  0  0  0  0  0  0  0
  1  2  1  0
  1 47  1  0
  1 48  1  0
  1 49  1  0
  2 19  1  0
  2  3  1  0
  2  4  1  0
  3 50  1  0
  3 51  1  0
  3 52  1  0
  4  5  2  3
  4 53  1  0
  5  6  1  0
  5 54  1  0
  6  7  2  3
  6 55  1  0
  7  8  1  0
  7 56  1  0
  8 18  1  0
  8  9  1  0
  8 57  1  1
  9 10  1  0
  9 58  1  0
  9 59  1  0
 10 44  1  0
 10 11  1  0
 10 60  1  1
 11 15  1  0
 11 12  1  0
 11 61  1  6
 12 13  1  0
 12 62  1  0
 12 63  1  0
 13 14  1  0
 13 64  1  0
 13 65  1  0
 14 15  1  0
 14 66  1  0
 14 67  1  0
 15 16  1  0
 15 68  1  1
 16 17  2  3
 16 97  1  0
 17 18  1  0
 17 21  1  0
 18 19  1  0
 19 20  2  0
 21 28  1  0
 21 43  1  6
 21 22  1  0
 22 23  1  0
 22 69  1  0
 22 70  1  0
 23 24  1  0
 23 71  1  0
 23 72  1  0
 24 46  1  0
 24 25  1  0
 24 73  1  6
 25 26  1  0
 25 74  1  0
 25 75  1  0
 26 27  1  0
 26 76  1  0
 26 77  1  0
 27 28  1  0
 27 44  1  0
 27 78  1  6
 28 29  1  1
 28 30  1  0
 29 79  1  0
 30 31  1  0
 30 80  1  0
 30 81  1  0
 31 32  1  0
 31 38  1  0
 31 82  1  6
 32 37  1  0
 32 33  2  0
 33 34  1  0
 33 83  1  0
 34 35  2  0
 34 84  1  0
 35 36  1  0
 35 85  1  0
 36 37  2  0
 36 86  1  0
 37 87  1  0
 38 43  2  0
 38 39  1  0
 39 40  2  0
 39 88  1  0
 40 41  1  0
 40 89  1  0
 41 42  2  0
 41 90  1  0
 42 43  1  0
 42 91  1  0
 44 45  1  6
 44 46  1  0
 45 92  1  0
 45 93  1  0
 45 94  1  0
 46 95  1  0
 46 96  1  0
M  CHG  2  16   1  44   1
M  END
>  <i_m_ct_stereo_status>  (149) 
1

>  <s_m_source_file>  (149) 
/var/tmp/pbs.5076255.sched01/tmpqm933_o1/456x1pmp19.sdf

>  <i_m_source_file_index>  (149) 
15

>  <i_lp_mmshare_version>  (149) 
48012

>  <i_f3d_flags>  (149) 
0

>  <s_epik_input>  (149) 
Tz1DMUMoW0NIM10pKFtDSDNdKS9bQ0hdPVtDSF1cW0NIXT1bQ0hdL1tDQEhdKE4xL0MyW0NAQF0zNDUpW0NIMl1bQ0hdKFtDQEhdNltDQEhdKC9OPTIpW0NIMl1bQ0gyXVtDSDJdNilbTkBAK103KFtDSDNdKVtDQEhdKFtDSDJdW0NIMl1bQ0BIXShbQ0gyXTcpW0NIMl1bQ0gyXTMpW0NAXTQoW09IXSlbQ0gyXVtDQEBIXShjOFtjSF1bY0hdW2NIXVtjSF1bY0hdOCljOWM1W2NIXVtjSF1bY0hdW2NIXTk=

>  <s_epik_cmdline>  (149) 
J2VwaWtfcHl0aG9uJywgJy1waHQnLCAnMi4wJywgJy1waCcsICc3LjAnLCAnLXRuJywgJzgnLCAnLW1hJywgJzIwMCcsICctaW1hZScsICc8aW5maWxlLm1hZT4nLCAnLW9tYWUnLCAnPG91dGZpbGUubWFlPic=

>  <r_epik_Ionization_Penalty>  (149) 
1.89798

>  <r_epik_Ionization_Penalty_Charging>  (149) 
1.89749

>  <r_epik_Ionization_Penalty_Neutral>  (149) 
0.000490901

>  <r_epik_State_Penalty>  (149) 
2.0185

>  <r_epik_Charging_Adjusted_Penalty>  (149) 
3.91599

>  <i_epik_Tot_Q>  (149) 
2

>  <i_epik_Tot_abs_Q>  (149) 
2

>  <s_epik_Chemistry_Notes>  (149) 
This compound has an imine and may undergo hydrolysis.

>  <s_lp_Force_Field>  (149) 
OPLS3e

>  <r_lp_Energy>  (149) 
300.795

>  <b_lp_Chiralities_Consistent>  (149) 
1

>  <s_lp_Variant>  (149) 
33:0-12

>  <s_i_glide_gridfile>  (149) 
pfpi4k_grid

>  <i_i_glide_lignum>  (149) 
15

>  <i_i_glide_rotatable_bonds>  (149) 
2

>  <r_i_docking_score>  (149) 
-2.92008

>  <r_i_glide_ligand_efficiency>  (149) 
-0.0634801

>  <r_i_glide_ligand_efficiency_sa>  (149) 
-0.227452

>  <r_i_glide_ligand_efficiency_ln>  (149) 
-0.604742

>  <r_i_glide_gscore>  (149) 
-2.92008

>  <r_i_glide_lipo>  (149) 
-0.466198

>  <r_i_glide_hbond>  (149) 
0

>  <r_i_glide_metal>  (149) 
-0

>  <r_i_glide_rewards>  (149) 
-0.5

>  <r_i_glide_evdw>  (149) 
-24.5652

>  <r_i_glide_ecoul>  (149) 
-4.9171

>  <r_i_glide_erotb>  (149) 
0.0552374

>  <r_i_glide_esite>  (149) 
-0.0432946

>  <r_i_glide_emodel>  (149) 
-41.7453

>  <r_i_glide_energy>  (149) 
-29.4823

>  <r_i_glide_einternal>  (149) 
0.615287

>  <r_i_glide_intrahb_reward>  (149) 
-0.5

>  <i_i_glide_confnum>  (149) 
1

>  <i_i_glide_posenum>  (149) 
32

>  <r_i_glide_eff_state_penalty>  (149) 
0

>  <ligand_id>  (149) 
33

>  <original_smiles>  (149) 
CC1(C)C=CC=CC2CC3C4CCCC4N=C(N2C1=O)C12CCC4CCC(C1(O)CC(c1ccccc1)c1ccccc12)[N+]3(C)C4

>  <smiles>  (149) 
[H]OC12C([H])([H])C([H])(c3c([H])c([H])c([H])c([H])c3[H])c3c([H])c([H])c([H])c([H])c3C13C1=[N+]([H])C4([H])C([H])([H])C([H])([H])C([H])([H])C4([H])C([H])(C([H])([H])C4([H])C([H])=C([H])C([H])=C([H])C(C([H])([H])[H])(C([H])([H])[H])C(=O)N14)[N+]1(C([H])([H])[H])C([H])([H])C([H])(C([H])([H])C3([H])[H])C([H])([H])C([H])([H])C21[H]

$$$$
33:11:2
     RDKit          3D

 97105  0  0  1  0  0  0  0  0999 V2000
    7.2516   -4.8698    7.2443 C   0  0  0  0  0  0  0  0  0  0  0  0
    5.9200   -5.6321    7.4841 C   0  0  0  0  0  0  0  0  0  0  0  0
    6.2614   -6.8134    8.4267 C   0  0  0  0  0  0  0  0  0  0  0  0
    4.9169   -4.7200    8.1586 C   0  0  0  0  0  0  0  0  0  0  0  0
    4.3888   -3.6621    7.5079 C   0  0  0  0  0  0  0  0  0  0  0  0
    2.9914   -3.8242    7.1876 C   0  0  0  0  0  0  0  0  0  0  0  0
    2.8118   -4.7083    6.1814 C   0  0  0  0  0  0  0  0  0  0  0  0
    2.7393   -6.2054    6.5050 C   0  0  1  0  0  0  0  0  0  0  0  0
    1.4952   -6.8359    5.8313 C   0  0  0  0  0  0  0  0  0  0  0  0
    1.1988   -8.3648    6.0046 C   0  0  2  0  0  0  0  0  0  0  0  0
    1.5865   -9.0802    7.3924 C   0  0  2  0  0  0  0  0  0  0  0  0
    0.6531   -8.9613    8.6029 C   0  0  0  0  0  0  0  0  0  0  0  0
    1.4719   -9.5363    9.7898 C   0  0  0  0  0  0  0  0  0  0  0  0
    2.9128   -9.6983    9.2874 C   0  0  0  0  0  0  0  0  0  0  0  0
    2.9216   -8.7969    8.0632 C   0  0  1  0  0  0  0  0  0  0  0  0
    3.9026   -9.0892    7.0623 N   0  0  0  0  0  0  0  0  0  0  0  0
    4.0745   -8.2828    5.9922 C   0  0  0  0  0  0  0  0  0  0  0  0
    4.0444   -6.9107    6.1726 N   0  0  0  0  0  0  0  0  0  0  0  0
    5.3191   -6.1747    6.1462 C   0  0  0  0  0  0  0  0  0  0  0  0
    5.8556   -5.9178    5.0740 O   0  0  0  0  0  0  0  0  0  0  0  0
    4.4688   -8.9820    4.6892 C   0  0  1  0  0  0  0  0  0  0  0  0
    4.4345  -10.5677    4.8093 C   0  0  0  0  0  0  0  0  0  0  0  0
    3.2411  -11.4432    5.3042 C   0  0  0  0  0  0  0  0  0  0  0  0
    1.9398  -11.5458    4.4944 C   0  0  2  0  0  0  0  0  0  0  0  0
    2.1309  -11.5177    2.9736 C   0  0  0  0  0  0  0  0  0  0  0  0
    1.6988  -10.1555    2.4373 C   0  0  0  0  0  0  0  0  0  0  0  0
    1.9292   -8.9957    3.4767 C   0  0  2  0  0  0  0  0  0  0  0  0
    3.4812   -8.5029    3.5272 C   0  0  1  0  0  0  0  0  0  0  0  0
    3.3719   -7.0937    3.5186 O   0  0  0  0  0  0  0  0  0  0  0  0
    4.1746   -8.7315    2.1429 C   0  0  0  0  0  0  0  0  0  0  0  0
    5.5595   -8.0917    1.9263 C   0  0  1  0  0  0  0  0  0  0  0  0
    5.4840   -6.6393    1.4146 C   0  0  0  0  0  0  0  0  0  0  0  0
    4.7135   -6.3454    0.2626 C   0  0  0  0  0  0  0  0  0  0  0  0
    4.6162   -5.0306   -0.2347 C   0  0  0  0  0  0  0  0  0  0  0  0
    5.2977   -3.9813    0.4052 C   0  0  0  0  0  0  0  0  0  0  0  0
    6.0833   -4.2553    1.5396 C   0  0  0  0  0  0  0  0  0  0  0  0
    6.1781   -5.5712    2.0324 C   0  0  0  0  0  0  0  0  0  0  0  0
    6.4680   -8.3406    3.1191 C   0  0  0  0  0  0  0  0  0  0  0  0
    7.8617   -8.1828    2.9431 C   0  0  0  0  0  0  0  0  0  0  0  0
    8.7489   -8.3650    4.0207 C   0  0  0  0  0  0  0  0  0  0  0  0
    8.2517   -8.7277    5.2833 C   0  0  0  0  0  0  0  0  0  0  0  0
    6.8694   -8.9200    5.4554 C   0  0  0  0  0  0  0  0  0  0  0  0
    5.9591   -8.7432    4.3814 C   0  0  0  0  0  0  0  0  0  0  0  0
    0.9662   -9.1649    4.6878 N   0  0  2  0  0  0  0  0  0  0  0  0
   -0.3751   -8.6845    4.2024 C   0  0  0  0  0  0  0  0  0  0  0  0
    0.7703  -10.6287    4.9281 C   0  0  0  0  0  0  0  0  0  0  0  0
    7.1355   -4.0132    6.5787 H   0  0  0  0  0  0  0  0  0  0  0  0
    8.0089   -5.5204    6.8001 H   0  0  0  0  0  0  0  0  0  0  0  0
    7.6726   -4.4966    8.1812 H   0  0  0  0  0  0  0  0  0  0  0  0
    5.3892   -7.4131    8.6848 H   0  0  0  0  0  0  0  0  0  0  0  0
    6.6908   -6.4574    9.3667 H   0  0  0  0  0  0  0  0  0  0  0  0
    7.0041   -7.4784    7.9815 H   0  0  0  0  0  0  0  0  0  0  0  0
    4.2664   -5.2821    8.8127 H   0  0  0  0  0  0  0  0  0  0  0  0
    4.9861   -3.1809    6.7479 H   0  0  0  0  0  0  0  0  0  0  0  0
    2.4206   -4.0260    8.0819 H   0  0  0  0  0  0  0  0  0  0  0  0
    3.4034   -4.5373    5.2894 H   0  0  0  0  0  0  0  0  0  0  0  0
    2.5361   -6.2116    7.5660 H   0  0  0  0  0  0  0  0  0  0  0  0
    0.6512   -6.3073    6.2732 H   0  0  0  0  0  0  0  0  0  0  0  0
    1.4185   -6.5249    4.7910 H   0  0  0  0  0  0  0  0  0  0  0  0
    0.1660   -8.2618    6.3344 H   0  0  0  0  0  0  0  0  0  0  0  0
    1.6063  -10.1456    7.2341 H   0  0  0  0  0  0  0  0  0  0  0  0
    0.3793   -7.9232    8.8007 H   0  0  0  0  0  0  0  0  0  0  0  0
   -0.2647   -9.5188    8.4350 H   0  0  0  0  0  0  0  0  0  0  0  0
    1.4301   -8.8566   10.6416 H   0  0  0  0  0  0  0  0  0  0  0  0
    1.0883  -10.4982   10.1263 H   0  0  0  0  0  0  0  0  0  0  0  0
    3.6388   -9.3777   10.0353 H   0  0  0  0  0  0  0  0  0  0  0  0
    3.1315  -10.7341    9.0191 H   0  0  0  0  0  0  0  0  0  0  0  0
    3.0409   -7.8017    8.4743 H   0  0  0  0  0  0  0  0  0  0  0  0
    4.7783  -10.9880    3.8663 H   0  0  0  0  0  0  0  0  0  0  0  0
    5.2231  -10.8668    5.5005 H   0  0  0  0  0  0  0  0  0  0  0  0
    3.6388  -12.4611    5.2984 H   0  0  0  0  0  0  0  0  0  0  0  0
    3.0276  -11.3266    6.3581 H   0  0  0  0  0  0  0  0  0  0  0  0
    1.5777  -12.5512    4.7081 H   0  0  0  0  0  0  0  0  0  0  0  0
    3.1589  -11.7451    2.6771 H   0  0  0  0  0  0  0  0  0  0  0  0
    1.5226  -12.2957    2.5087 H   0  0  0  0  0  0  0  0  0  0  0  0
    2.1240   -9.9871    1.4546 H   0  0  0  0  0  0  0  0  0  0  0  0
    0.6411  -10.2506    2.1886 H   0  0  0  0  0  0  0  0  0  0  0  0
    1.4756   -8.1791    2.9074 H   0  0  0  0  0  0  0  0  0  0  0  0
    3.0574   -6.8076    2.6757 H   0  0  0  0  0  0  0  0  0  0  0  0
    4.3344   -9.8073    2.0359 H   0  0  0  0  0  0  0  0  0  0  0  0
    3.5254   -8.4632    1.3119 H   0  0  0  0  0  0  0  0  0  0  0  0
    6.0167   -8.6450    1.1058 H   0  0  0  0  0  0  0  0  0  0  0  0
    4.2136   -7.1339   -0.2738 H   0  0  0  0  0  0  0  0  0  0  0  0
    4.0325   -4.8261   -1.1176 H   0  0  0  0  0  0  0  0  0  0  0  0
    5.2285   -2.9783    0.0176 H   0  0  0  0  0  0  0  0  0  0  0  0
    6.6166   -3.4559    2.0285 H   0  0  0  0  0  0  0  0  0  0  0  0
    6.8103   -5.7427    2.8846 H   0  0  0  0  0  0  0  0  0  0  0  0
    8.2604   -7.8920    1.9847 H   0  0  0  0  0  0  0  0  0  0  0  0
    9.8093   -8.2274    3.8730 H   0  0  0  0  0  0  0  0  0  0  0  0
    8.9204   -8.8590    6.1191 H   0  0  0  0  0  0  0  0  0  0  0  0
    6.5079   -9.2010    6.4297 H   0  0  0  0  0  0  0  0  0  0  0  0
   -0.6925   -9.1125    3.2492 H   0  0  0  0  0  0  0  0  0  0  0  0
   -0.4210   -7.6035    4.0603 H   0  0  0  0  0  0  0  0  0  0  0  0
   -1.1880   -8.9506    4.8854 H   0  0  0  0  0  0  0  0  0  0  0  0
   -0.0467  -10.9886    4.2962 H   0  0  0  0  0  0  0  0  0  0  0  0
    0.3596  -10.8967    5.9035 H   0  0  0  0  0  0  0  0  0  0  0  0
    4.1410  -10.0671    6.9598 H   0  0  0  0  0  0  0  0  0  0  0  0
  1  2  1  0
  1 47  1  0
  1 48  1  0
  1 49  1  0
  2 19  1  0
  2  3  1  0
  2  4  1  0
  3 50  1  0
  3 51  1  0
  3 52  1  0
  4  5  2  3
  4 53  1  0
  5  6  1  0
  5 54  1  0
  6  7  2  3
  6 55  1  0
  7  8  1  0
  7 56  1  0
  8 18  1  0
  8  9  1  0
  8 57  1  1
  9 10  1  0
  9 58  1  0
  9 59  1  0
 10 44  1  0
 10 11  1  0
 10 60  1  1
 11 15  1  0
 11 12  1  0
 11 61  1  6
 12 13  1  0
 12 62  1  0
 12 63  1  0
 13 14  1  0
 13 64  1  0
 13 65  1  0
 14 15  1  0
 14 66  1  0
 14 67  1  0
 15 16  1  0
 15 68  1  1
 16 17  2  3
 16 97  1  0
 17 18  1  0
 17 21  1  0
 18 19  1  0
 19 20  2  0
 21 28  1  0
 21 43  1  6
 21 22  1  0
 22 23  1  0
 22 69  1  0
 22 70  1  0
 23 24  1  0
 23 71  1  0
 23 72  1  0
 24 46  1  0
 24 25  1  0
 24 73  1  6
 25 26  1  0
 25 74  1  0
 25 75  1  0
 26 27  1  0
 26 76  1  0
 26 77  1  0
 27 28  1  0
 27 44  1  0
 27 78  1  6
 28 29  1  1
 28 30  1  0
 29 79  1  0
 30 31  1  0
 30 80  1  0
 30 81  1  0
 31 32  1  0
 31 38  1  0
 31 82  1  6
 32 37  1  0
 32 33  2  0
 33 34  1  0
 33 83  1  0
 34 35  2  0
 34 84  1  0
 35 36  1  0
 35 85  1  0
 36 37  2  0
 36 86  1  0
 37 87  1  0
 38 43  2  0
 38 39  1  0
 39 40  2  0
 39 88  1  0
 40 41  1  0
 40 89  1  0
 41 42  2  0
 41 90  1  0
 42 43  1  0
 42 91  1  0
 44 45  1  6
 44 46  1  0
 45 92  1  0
 45 93  1  0
 45 94  1  0
 46 95  1  0
 46 96  1  0
M  CHG  2  16   1  44   1
M  END
>  <i_m_ct_stereo_status>  (150) 
1

>  <s_m_source_file>  (150) 
/var/tmp/pbs.5076255.sched01/tmpqm933_o1/456x1pmp19.sdf

>  <i_m_source_file_index>  (150) 
15

>  <i_lp_mmshare_version>  (150) 
48012

>  <i_f3d_flags>  (150) 
0

>  <s_epik_input>  (150) 
Tz1DMUMoW0NIM10pKFtDSDNdKS9bQ0hdPVtDSF1cW0NIXT1bQ0hdL1tDQEhdKE4xL0MyW0NAQF0zNDUpW0NIMl1bQ0hdKFtDQEhdNltDQEhdKC9OPTIpW0NIMl1bQ0gyXVtDSDJdNilbTkBAK103KFtDSDNdKVtDQEhdKFtDSDJdW0NIMl1bQ0BIXShbQ0gyXTcpW0NIMl1bQ0gyXTMpW0NAXTQoW09IXSlbQ0gyXVtDQEBIXShjOFtjSF1bY0hdW2NIXVtjSF1bY0hdOCljOWM1W2NIXVtjSF1bY0hdW2NIXTk=

>  <s_epik_cmdline>  (150) 
J2VwaWtfcHl0aG9uJywgJy1waHQnLCAnMi4wJywgJy1waCcsICc3LjAnLCAnLXRuJywgJzgnLCAnLW1hJywgJzIwMCcsICctaW1hZScsICc8aW5maWxlLm1hZT4nLCAnLW9tYWUnLCAnPG91dGZpbGUubWFlPic=

>  <r_epik_Ionization_Penalty>  (150) 
1.89798

>  <r_epik_Ionization_Penalty_Charging>  (150) 
1.89749

>  <r_epik_Ionization_Penalty_Neutral>  (150) 
0.000490901

>  <r_epik_State_Penalty>  (150) 
2.0185

>  <r_epik_Charging_Adjusted_Penalty>  (150) 
3.91599

>  <i_epik_Tot_Q>  (150) 
2

>  <i_epik_Tot_abs_Q>  (150) 
2

>  <s_epik_Chemistry_Notes>  (150) 
This compound has an imine and may undergo hydrolysis.

>  <s_lp_Force_Field>  (150) 
OPLS3e

>  <r_lp_Energy>  (150) 
300.795

>  <b_lp_Chiralities_Consistent>  (150) 
1

>  <s_lp_Variant>  (150) 
33:0-12

>  <s_i_glide_gridfile>  (150) 
pfpi4k_grid

>  <i_i_glide_lignum>  (150) 
15

>  <i_i_glide_rotatable_bonds>  (150) 
2

>  <r_i_docking_score>  (150) 
-2.71345

>  <r_i_glide_ligand_efficiency>  (150) 
-0.0589881

>  <r_i_glide_ligand_efficiency_sa>  (150) 
-0.211357

>  <r_i_glide_ligand_efficiency_ln>  (150) 
-0.561949

>  <r_i_glide_gscore>  (150) 
-2.71345

>  <r_i_glide_lipo>  (150) 
-0.624113

>  <r_i_glide_hbond>  (150) 
0

>  <r_i_glide_metal>  (150) 
-0

>  <r_i_glide_rewards>  (150) 
0

>  <r_i_glide_evdw>  (150) 
-25.6346

>  <r_i_glide_ecoul>  (150) 
-5.46491

>  <r_i_glide_erotb>  (150) 
0.0552374

>  <r_i_glide_esite>  (150) 
-0.0431065

>  <r_i_glide_emodel>  (150) 
-37.9536

>  <r_i_glide_energy>  (150) 
-31.0996

>  <r_i_glide_einternal>  (150) 
0.509851

>  <r_i_glide_intrahb_reward>  (150) 
-0

>  <i_i_glide_confnum>  (150) 
1

>  <i_i_glide_posenum>  (150) 
26

>  <r_i_glide_eff_state_penalty>  (150) 
0

>  <ligand_id>  (150) 
33

>  <original_smiles>  (150) 
CC1(C)C=CC=CC2CC3C4CCCC4N=C(N2C1=O)C12CCC4CCC(C1(O)CC(c1ccccc1)c1ccccc12)[N+]3(C)C4

>  <smiles>  (150) 
[H]OC12C([H])([H])C([H])(c3c([H])c([H])c([H])c([H])c3[H])c3c([H])c([H])c([H])c([H])c3C13C1=[N+]([H])C4([H])C([H])([H])C([H])([H])C([H])([H])C4([H])C([H])(C([H])([H])C4([H])C([H])=C([H])C([H])=C([H])C(C([H])([H])[H])(C([H])([H])[H])C(=O)N14)[N+]1(C([H])([H])[H])C([H])([H])C([H])(C([H])([H])C3([H])[H])C([H])([H])C([H])([H])C21[H]

$$$$
33:12:0
     RDKit          3D

 97105  0  0  1  0  0  0  0  0999 V2000
    1.9269   -4.5506    7.1281 C   0  0  0  0  0  0  0  0  0  0  0  0
    3.1757   -5.0763    7.8987 C   0  0  0  0  0  0  0  0  0  0  0  0
    3.7406   -3.8307    8.6287 C   0  0  0  0  0  0  0  0  0  0  0  0
    2.7729   -6.0975    8.9635 C   0  0  0  0  0  0  0  0  0  0  0  0
    1.9532   -7.1607    8.8424 C   0  0  0  0  0  0  0  0  0  0  0  0
    1.2657   -7.5858    7.6382 C   0  0  0  0  0  0  0  0  0  0  0  0
    1.8468   -7.8371    6.4504 C   0  0  0  0  0  0  0  0  0  0  0  0
    3.3488   -7.8401    6.1636 C   0  0  1  0  0  0  0  0  0  0  0  0
    3.8407   -8.9658    5.1761 C   0  0  0  0  0  0  0  0  0  0  0  0
    3.9774   -8.5703    3.6488 C   0  0  2  0  0  0  0  0  0  0  0  0
    2.5536   -8.2618    3.0190 C   0  0  2  0  0  0  0  0  0  0  0  0
    1.8696   -8.8744    1.7984 C   0  0  0  0  0  0  0  0  0  0  0  0
    0.4777   -8.1765    1.8201 C   0  0  0  0  0  0  0  0  0  0  0  0
    0.5778   -6.9759    2.7866 C   0  0  0  0  0  0  0  0  0  0  0  0
    2.0865   -6.8076    2.9246 C   0  0  1  0  0  0  0  0  0  0  0  0
    2.5558   -6.0643    4.0844 N   0  0  0  0  0  0  0  0  0  0  0  0
    3.8460   -6.0254    4.5394 C   0  0  0  0  0  0  0  0  0  0  0  0
    3.8759   -6.4655    5.8507 N   0  0  0  0  0  0  0  0  0  0  0  0
    4.2959   -5.6885    7.0076 C   0  0  0  0  0  0  0  0  0  0  0  0
    5.4704   -5.6762    7.3672 O   0  0  0  0  0  0  0  0  0  0  0  0
    5.0938   -5.5027    3.6703 C   0  0  1  0  0  0  0  0  0  0  0  0
    6.4278   -5.7486    4.4693 C   0  0  0  0  0  0  0  0  0  0  0  0
    6.8540   -7.1563    5.0104 C   0  0  0  0  0  0  0  0  0  0  0  0
    7.3794   -8.2680    4.0656 C   0  0  2  0  0  0  0  0  0  0  0  0
    8.1387   -7.8046    2.8153 C   0  0  0  0  0  0  0  0  0  0  0  0
    7.2486   -7.9778    1.5810 C   0  0  0  0  0  0  0  0  0  0  0  0
    5.7379   -7.7506    1.9267 C   0  0  2  0  0  0  0  0  0  0  0  0
    5.3675   -6.1706    2.1880 C   0  0  1  0  0  0  0  0  0  0  0  0
    4.2785   -6.0094    1.3334 O   0  0  0  0  0  0  0  0  0  0  0  0
    6.3629   -5.2644    1.3724 C   0  0  0  0  0  0  0  0  0  0  0  0
    6.0212   -3.7764    1.2126 C   0  0  1  0  0  0  0  0  0  0  0  0
    5.2351   -3.4935   -0.0754 C   0  0  0  0  0  0  0  0  0  0  0  0
    5.9251   -3.4425   -1.3051 C   0  0  0  0  0  0  0  0  0  0  0  0
    5.2361   -3.2099   -2.5099 C   0  0  0  0  0  0  0  0  0  0  0  0
    3.8422   -3.0173   -2.4949 C   0  0  0  0  0  0  0  0  0  0  0  0
    3.1455   -3.0582   -1.2744 C   0  0  0  0  0  0  0  0  0  0  0  0
    3.8351   -3.2996   -0.0731 C   0  0  0  0  0  0  0  0  0  0  0  0
    5.4084   -3.1703    2.4603 C   0  0  0  0  0  0  0  0  0  0  0  0
    5.2994   -1.7603    2.5007 C   0  0  0  0  0  0  0  0  0  0  0  0
    4.6761   -1.1167    3.5819 C   0  0  0  0  0  0  0  0  0  0  0  0
    4.1524   -1.8861    4.6260 C   0  0  0  0  0  0  0  0  0  0  0  0
    4.2900   -3.2817    4.5931 C   0  0  0  0  0  0  0  0  0  0  0  0
    4.9480   -3.9601    3.5464 C   0  0  0  0  0  0  0  0  0  0  0  0
    5.2109   -8.9124    2.8178 N   0  0  2  0  0  0  0  0  0  0  0  0
    4.8575  -10.0975    1.9741 C   0  0  0  0  0  0  0  0  0  0  0  0
    6.3694   -9.3771    3.6758 C   0  0  0  0  0  0  0  0  0  0  0  0
    1.5160   -5.2365    6.3951 H   0  0  0  0  0  0  0  0  0  0  0  0
    2.1216   -3.6142    6.6069 H   0  0  0  0  0  0  0  0  0  0  0  0
    1.1165   -4.3291    7.8250 H   0  0  0  0  0  0  0  0  0  0  0  0
    4.5974   -4.0720    9.2606 H   0  0  0  0  0  0  0  0  0  0  0  0
    2.9858   -3.3720    9.2717 H   0  0  0  0  0  0  0  0  0  0  0  0
    4.0650   -3.0636    7.9210 H   0  0  0  0  0  0  0  0  0  0  0  0
    3.2250   -5.9402    9.9330 H   0  0  0  0  0  0  0  0  0  0  0  0
    1.8237   -7.7763    9.7209 H   0  0  0  0  0  0  0  0  0  0  0  0
    0.1891   -7.6560    7.6827 H   0  0  0  0  0  0  0  0  0  0  0  0
    1.1907   -8.1104    5.6418 H   0  0  0  0  0  0  0  0  0  0  0  0
    3.7897   -8.1341    7.1195 H   0  0  0  0  0  0  0  0  0  0  0  0
    4.7456   -9.3201    5.6461 H   0  0  0  0  0  0  0  0  0  0  0  0
    3.1808   -9.8260    5.2475 H   0  0  0  0  0  0  0  0  0  0  0  0
    4.4289   -7.6705    3.8620 H   0  0  0  0  0  0  0  0  0  0  0  0
    1.9233   -8.7057    3.7817 H   0  0  0  0  0  0  0  0  0  0  0  0
    2.3910   -8.6077    0.8784 H   0  0  0  0  0  0  0  0  0  0  0  0
    1.7802   -9.9606    1.8577 H   0  0  0  0  0  0  0  0  0  0  0  0
    0.2027   -7.8432    0.8194 H   0  0  0  0  0  0  0  0  0  0  0  0
   -0.3048   -8.8600    2.1532 H   0  0  0  0  0  0  0  0  0  0  0  0
    0.1060   -6.0869    2.3704 H   0  0  0  0  0  0  0  0  0  0  0  0
    0.1046   -7.1915    3.7451 H   0  0  0  0  0  0  0  0  0  0  0  0
    2.2808   -6.2893    2.0056 H   0  0  0  0  0  0  0  0  0  0  0  0
    7.2785   -5.3578    3.9298 H   0  0  0  0  0  0  0  0  0  0  0  0
    6.4205   -5.0722    5.3167 H   0  0  0  0  0  0  0  0  0  0  0  0
    7.6829   -6.9451    5.6908 H   0  0  0  0  0  0  0  0  0  0  0  0
    6.1218   -7.5896    5.6781 H   0  0  0  0  0  0  0  0  0  0  0  0
    8.1292   -8.7862    4.6595 H   0  0  0  0  0  0  0  0  0  0  0  0
    8.5141   -6.7864    2.9138 H   0  0  0  0  0  0  0  0  0  0  0  0
    9.0281   -8.4198    2.6803 H   0  0  0  0  0  0  0  0  0  0  0  0
    7.6345   -7.3837    0.7617 H   0  0  0  0  0  0  0  0  0  0  0  0
    7.3788   -8.9934    1.2055 H   0  0  0  0  0  0  0  0  0  0  0  0
    5.2913   -7.9740    0.9568 H   0  0  0  0  0  0  0  0  0  0  0  0
    4.5488   -6.1544    0.4349 H   0  0  0  0  0  0  0  0  0  0  0  0
    7.3347   -5.2791    1.8594 H   0  0  0  0  0  0  0  0  0  0  0  0
    6.5641   -5.6541    0.3727 H   0  0  0  0  0  0  0  0  0  0  0  0
    6.9721   -3.2558    1.0897 H   0  0  0  0  0  0  0  0  0  0  0  0
    6.9932   -3.5938   -1.3298 H   0  0  0  0  0  0  0  0  0  0  0  0
    5.7759   -3.1897   -3.4439 H   0  0  0  0  0  0  0  0  0  0  0  0
    3.3035   -2.8450   -3.4153 H   0  0  0  0  0  0  0  0  0  0  0  0
    2.0759   -2.9142   -1.2669 H   0  0  0  0  0  0  0  0  0  0  0  0
    3.2814   -3.3401    0.8532 H   0  0  0  0  0  0  0  0  0  0  0  0
    5.6749   -1.1644    1.6843 H   0  0  0  0  0  0  0  0  0  0  0  0
    4.5844   -0.0404    3.6057 H   0  0  0  0  0  0  0  0  0  0  0  0
    3.6454   -1.4183    5.4573 H   0  0  0  0  0  0  0  0  0  0  0  0
    3.8638   -3.8263    5.3993 H   0  0  0  0  0  0  0  0  0  0  0  0
    5.7124  -10.4988    1.4294 H   0  0  0  0  0  0  0  0  0  0  0  0
    4.1232   -9.8586    1.2128 H   0  0  0  0  0  0  0  0  0  0  0  0
    4.4645  -10.9090    2.5892 H   0  0  0  0  0  0  0  0  0  0  0  0
    6.9779  -10.0771    3.1013 H   0  0  0  0  0  0  0  0  0  0  0  0
    6.1216  -10.0397    4.4955 H   0  0  0  0  0  0  0  0  0  0  0  0
    1.8469   -6.0172    4.7989 H   0  0  0  0  0  0  0  0  0  0  0  0
  1  2  1  0
  1 47  1  0
  1 48  1  0
  1 49  1  0
  2 19  1  0
  2  3  1  0
  2  4  1  0
  3 50  1  0
  3 51  1  0
  3 52  1  0
  4  5  2  3
  4 53  1  0
  5  6  1  0
  5 54  1  0
  6  7  2  3
  6 55  1  0
  7  8  1  0
  7 56  1  0
  8 18  1  0
  8  9  1  0
  8 57  1  1
  9 10  1  0
  9 58  1  0
  9 59  1  0
 10 44  1  0
 10 11  1  0
 10 60  1  1
 11 15  1  0
 11 12  1  0
 11 61  1  1
 12 13  1  0
 12 62  1  0
 12 63  1  0
 13 14  1  0
 13 64  1  0
 13 65  1  0
 14 15  1  0
 14 66  1  0
 14 67  1  0
 15 16  1  0
 15 68  1  6
 16 17  2  3
 16 97  1  0
 17 18  1  0
 17 21  1  0
 18 19  1  0
 19 20  2  0
 21 28  1  0
 21 43  1  6
 21 22  1  0
 22 23  1  0
 22 69  1  0
 22 70  1  0
 23 24  1  0
 23 71  1  0
 23 72  1  0
 24 46  1  0
 24 25  1  0
 24 73  1  1
 25 26  1  0
 25 74  1  0
 25 75  1  0
 26 27  1  0
 26 76  1  0
 26 77  1  0
 27 28  1  0
 27 44  1  0
 27 78  1  6
 28 29  1  6
 28 30  1  0
 29 79  1  0
 30 31  1  0
 30 80  1  0
 30 81  1  0
 31 32  1  0
 31 38  1  0
 31 82  1  6
 32 37  1  0
 32 33  2  0
 33 34  1  0
 33 83  1  0
 34 35  2  0
 34 84  1  0
 35 36  1  0
 35 85  1  0
 36 37  2  0
 36 86  1  0
 37 87  1  0
 38 43  2  0
 38 39  1  0
 39 40  2  0
 39 88  1  0
 40 41  1  0
 40 89  1  0
 41 42  2  0
 41 90  1  0
 42 43  1  0
 42 91  1  0
 44 45  1  6
 44 46  1  0
 45 92  1  0
 45 93  1  0
 45 94  1  0
 46 95  1  0
 46 96  1  0
M  CHG  2  16   1  44   1
M  END
>  <i_m_ct_stereo_status>  (151) 
1

>  <s_m_source_file>  (151) 
/var/tmp/pbs.5076255.sched01/tmpqm933_o1/456x1pmp19.sdf

>  <i_m_source_file_index>  (151) 
16

>  <i_lp_mmshare_version>  (151) 
48012

>  <i_f3d_flags>  (151) 
0

>  <s_epik_input>  (151) 
Tz1DMUMoW0NIM10pKFtDSDNdKS9bQ0hdPVtDSF1cW0NIXT1bQ0hdL1tDQEhdKE4xL0MyW0NAQF0zNDUpW0NIMl1bQ0hdKFtDQEhdNltDQEhdKC9OPTIpW0NIMl1bQ0gyXVtDSDJdNilbTkBAK103KFtDSDNdKVtDQEhdKFtDSDJdW0NIMl1bQ0BIXShbQ0gyXTcpW0NIMl1bQ0gyXTMpW0NAXTQoW09IXSlbQ0gyXVtDQEBIXShjOFtjSF1bY0hdW2NIXVtjSF1bY0hdOCljOWM1W2NIXVtjSF1bY0hdW2NIXTk=

>  <s_epik_cmdline>  (151) 
J2VwaWtfcHl0aG9uJywgJy1waHQnLCAnMi4wJywgJy1waCcsICc3LjAnLCAnLXRuJywgJzgnLCAnLW1hJywgJzIwMCcsICctaW1hZScsICc8aW5maWxlLm1hZT4nLCAnLW9tYWUnLCAnPG91dGZpbGUubWFlPic=

>  <r_epik_Ionization_Penalty>  (151) 
1.89798

>  <r_epik_Ionization_Penalty_Charging>  (151) 
1.89749

>  <r_epik_Ionization_Penalty_Neutral>  (151) 
0.000490901

>  <r_epik_State_Penalty>  (151) 
2.0185

>  <r_epik_Charging_Adjusted_Penalty>  (151) 
3.91599

>  <i_epik_Tot_Q>  (151) 
2

>  <i_epik_Tot_abs_Q>  (151) 
2

>  <s_epik_Chemistry_Notes>  (151) 
This compound has an imine and may undergo hydrolysis.

>  <s_lp_Force_Field>  (151) 
OPLS3e

>  <r_lp_Energy>  (151) 
273.714

>  <b_lp_Chiralities_Consistent>  (151) 
1

>  <s_lp_Variant>  (151) 
33:0-13

>  <s_i_glide_gridfile>  (151) 
pfpi4k_grid

>  <i_i_glide_lignum>  (151) 
16

>  <i_i_glide_rotatable_bonds>  (151) 
2

>  <r_i_docking_score>  (151) 
-2.58481

>  <r_i_glide_ligand_efficiency>  (151) 
-0.0561916

>  <r_i_glide_ligand_efficiency_sa>  (151) 
-0.201337

>  <r_i_glide_ligand_efficiency_ln>  (151) 
-0.535309

>  <r_i_glide_gscore>  (151) 
-2.58481

>  <r_i_glide_lipo>  (151) 
-0.957767

>  <r_i_glide_hbond>  (151) 
0

>  <r_i_glide_metal>  (151) 
-0

>  <r_i_glide_rewards>  (151) 
0

>  <r_i_glide_evdw>  (151) 
-28.8467

>  <r_i_glide_ecoul>  (151) 
-1.55339

>  <r_i_glide_erotb>  (151) 
0.0552374

>  <r_i_glide_esite>  (151) 
-0.00693732

>  <r_i_glide_emodel>  (151) 
-36.3353

>  <r_i_glide_energy>  (151) 
-30.4001

>  <r_i_glide_einternal>  (151) 
0.0205384

>  <r_i_glide_intrahb_reward>  (151) 
-0

>  <i_i_glide_confnum>  (151) 
5

>  <i_i_glide_posenum>  (151) 
27

>  <r_i_glide_eff_state_penalty>  (151) 
0

>  <ligand_id>  (151) 
33

>  <original_smiles>  (151) 
CC1(C)C=CC=CC2CC3C4CCCC4N=C(N2C1=O)C12CCC4CCC(C1(O)CC(c1ccccc1)c1ccccc12)[N+]3(C)C4

>  <smiles>  (151) 
[H]OC12C([H])([H])C([H])(c3c([H])c([H])c([H])c([H])c3[H])c3c([H])c([H])c([H])c([H])c3C13C1=[N+]([H])C4([H])C([H])([H])C([H])([H])C([H])([H])C4([H])C([H])(C([H])([H])C4([H])C([H])=C([H])C([H])=C([H])C(C([H])([H])[H])(C([H])([H])[H])C(=O)N14)[N+]1(C([H])([H])[H])C([H])([H])C([H])(C([H])([H])C3([H])[H])C([H])([H])C([H])([H])C21[H]

$$$$
33:12:1
     RDKit          3D

 97105  0  0  1  0  0  0  0  0999 V2000
    1.1299   -5.8129    8.2826 C   0  0  0  0  0  0  0  0  0  0  0  0
    2.3002   -6.5255    9.0326 C   0  0  0  0  0  0  0  0  0  0  0  0
    2.9284   -5.4131    9.9148 C   0  0  0  0  0  0  0  0  0  0  0  0
    1.7685   -7.6088    9.9667 C   0  0  0  0  0  0  0  0  0  0  0  0
    0.8762   -8.5815    9.6973 C   0  0  0  0  0  0  0  0  0  0  0  0
    0.2123   -8.8106    8.4295 C   0  0  0  0  0  0  0  0  0  0  0  0
    0.8194   -8.9914    7.2402 C   0  0  0  0  0  0  0  0  0  0  0  0
    2.3221   -9.0875    7.0131 C   0  0  1  0  0  0  0  0  0  0  0  0
    2.7678  -10.1386    5.9207 C   0  0  0  0  0  0  0  0  0  0  0  0
    3.0155   -9.5954    4.4459 C   0  0  2  0  0  0  0  0  0  0  0  0
    1.6333   -9.1000    3.8128 C   0  0  2  0  0  0  0  0  0  0  0  0
    0.9579   -9.5226    2.5078 C   0  0  0  0  0  0  0  0  0  0  0  0
   -0.3762   -8.7194    2.5522 C   0  0  0  0  0  0  0  0  0  0  0  0
   -0.2269   -7.6425    3.6516 C   0  0  0  0  0  0  0  0  0  0  0  0
    1.2833   -7.6103    3.8661 C   0  0  1  0  0  0  0  0  0  0  0  0
    1.7637   -7.0445    5.1135 N   0  0  0  0  0  0  0  0  0  0  0  0
    3.0397   -7.1604    5.6127 C   0  0  0  0  0  0  0  0  0  0  0  0
    2.9754   -7.7407    6.8808 N   0  0  0  0  0  0  0  0  0  0  0  0
    3.4011   -7.1287    8.1152 C   0  0  0  0  0  0  0  0  0  0  0  0
    4.5572   -7.2544    8.5196 O   0  0  0  0  0  0  0  0  0  0  0  0
    4.3566   -6.6453    4.8606 C   0  0  1  0  0  0  0  0  0  0  0  0
    5.6373   -7.0854    5.6653 C   0  0  0  0  0  0  0  0  0  0  0  0
    5.9292   -8.5771    6.0583 C   0  0  0  0  0  0  0  0  0  0  0  0
    6.3991   -9.6241    5.0147 C   0  0  2  0  0  0  0  0  0  0  0  0
    7.2578   -9.1051    3.8492 C   0  0  0  0  0  0  0  0  0  0  0  0
    6.3966   -9.0607    2.5780 C   0  0  0  0  0  0  0  0  0  0  0  0
    4.8880   -8.7569    2.9116 C   0  0  2  0  0  0  0  0  0  0  0  0
    4.6426   -7.1763    3.3239 C   0  0  1  0  0  0  0  0  0  0  0  0
    3.6268   -6.8045    2.4379 O   0  0  0  0  0  0  0  0  0  0  0  0
    5.7456   -6.2816    2.6492 C   0  0  0  0  0  0  0  0  0  0  0  0
    5.5240   -4.7594    2.6354 C   0  0  1  0  0  0  0  0  0  0  0  0
    4.8172   -4.2843    1.3613 C   0  0  0  0  0  0  0  0  0  0  0  0
    5.4707   -4.4407    0.1132 C   0  0  0  0  0  0  0  0  0  0  0  0
    4.8522   -4.0277   -1.0854 C   0  0  0  0  0  0  0  0  0  0  0  0
    3.5721   -3.4382   -1.0508 C   0  0  0  0  0  0  0  0  0  0  0  0
    2.9166   -3.2679    0.1840 C   0  0  0  0  0  0  0  0  0  0  0  0
    3.5255   -3.6991    1.3799 C   0  0  0  0  0  0  0  0  0  0  0  0
    4.9261   -4.2424    3.9261 C   0  0  0  0  0  0  0  0  0  0  0  0
    4.9277   -2.8382    4.1220 C   0  0  0  0  0  0  0  0  0  0  0  0
    4.2965   -2.2604    5.2406 C   0  0  0  0  0  0  0  0  0  0  0  0
    3.6600   -3.0925    6.1758 C   0  0  0  0  0  0  0  0  0  0  0  0
    3.6898   -4.4873    5.9923 C   0  0  0  0  0  0  0  0  0  0  0  0
    4.3475   -5.1012    4.8995 C   0  0  0  0  0  0  0  0  0  0  0  0
    4.2420   -9.9542    3.6371 N   0  0  2  0  0  0  0  0  0  0  0  0
    3.8342  -10.9806    2.6758 C   0  0  0  0  0  0  0  0  0  0  0  0
    5.3120  -10.5884    4.4681 C   0  0  0  0  0  0  0  0  0  0  0  0
    0.6981   -6.3791    7.4643 H   0  0  0  0  0  0  0  0  0  0  0  0
    1.4228   -4.8451    7.8737 H   0  0  0  0  0  0  0  0  0  0  0  0
    0.3092   -5.5967    8.9698 H   0  0  0  0  0  0  0  0  0  0  0  0
    3.7321   -5.7919   10.5492 H   0  0  0  0  0  0  0  0  0  0  0  0
    2.1846   -4.9618   10.5764 H   0  0  0  0  0  0  0  0  0  0  0  0
    3.3456   -4.6041    9.3089 H   0  0  0  0  0  0  0  0  0  0  0  0
    2.1920   -7.5992   10.9615 H   0  0  0  0  0  0  0  0  0  0  0  0
    0.6586   -9.2770   10.4951 H   0  0  0  0  0  0  0  0  0  0  0  0
   -0.8654   -8.7934    8.4304 H   0  0  0  0  0  0  0  0  0  0  0  0
    0.1769   -9.1256    6.3876 H   0  0  0  0  0  0  0  0  0  0  0  0
    2.6970   -9.5268    7.9418 H   0  0  0  0  0  0  0  0  0  0  0  0
    3.6193  -10.6205    6.3822 H   0  0  0  0  0  0  0  0  0  0  0  0
    2.0399  -10.9468    5.8703 H   0  0  0  0  0  0  0  0  0  0  0  0
    3.5148   -8.7653    4.7861 H   0  0  0  0  0  0  0  0  0  0  0  0
    0.9379   -9.5739    4.4971 H   0  0  0  0  0  0  0  0  0  0  0  0
    1.5392   -9.2019    1.6414 H   0  0  0  0  0  0  0  0  0  0  0  0
    0.7832  -10.5989    2.4449 H   0  0  0  0  0  0  0  0  0  0  0  0
   -0.5789   -8.2609    1.5828 H   0  0  0  0  0  0  0  0  0  0  0  0
   -1.2214   -9.3698    2.7846 H   0  0  0  0  0  0  0  0  0  0  0  0
   -0.6169   -6.6782    3.3291 H   0  0  0  0  0  0  0  0  0  0  0  0
   -0.7584   -7.9227    4.5636 H   0  0  0  0  0  0  0  0  0  0  0  0
    1.5698   -7.0115    3.0168 H   0  0  0  0  0  0  0  0  0  0  0  0
    6.5366   -6.6827    5.2155 H   0  0  0  0  0  0  0  0  0  0  0  0
    5.6367   -6.5149    6.5877 H   0  0  0  0  0  0  0  0  0  0  0  0
    6.7377   -8.5136    6.7886 H   0  0  0  0  0  0  0  0  0  0  0  0
    5.1339   -9.0172    6.6461 H   0  0  0  0  0  0  0  0  0  0  0  0
    7.0812  -10.2660    5.5772 H   0  0  0  0  0  0  0  0  0  0  0  0
    7.6942   -8.1296    4.0753 H   0  0  0  0  0  0  0  0  0  0  0  0
    8.1082   -9.7624    3.6707 H   0  0  0  0  0  0  0  0  0  0  0  0
    6.8556   -8.4246    1.8277 H   0  0  0  0  0  0  0  0  0  0  0  0
    6.4637  -10.0423    2.0980 H   0  0  0  0  0  0  0  0  0  0  0  0
    4.4752   -8.8180    1.8957 H   0  0  0  0  0  0  0  0  0  0  0  0
    2.8594   -7.3072    2.6092 H   0  0  0  0  0  0  0  0  0  0  0  0
    6.6927   -6.4254    3.1660 H   0  0  0  0  0  0  0  0  0  0  0  0
    5.9470   -6.5896    1.6279 H   0  0  0  0  0  0  0  0  0  0  0  0
    6.5136   -4.3130    2.5614 H   0  0  0  0  0  0  0  0  0  0  0  0
    6.4462   -4.8929    0.0720 H   0  0  0  0  0  0  0  0  0  0  0  0
    5.3485   -4.1779   -2.0289 H   0  0  0  0  0  0  0  0  0  0  0  0
    3.0906   -3.1301   -1.9613 H   0  0  0  0  0  0  0  0  0  0  0  0
    1.9468   -2.8037    0.2110 H   0  0  0  0  0  0  0  0  0  0  0  0
    2.9930   -3.5627    2.3038 H   0  0  0  0  0  0  0  0  0  0  0  0
    5.3761   -2.1927    3.3888 H   0  0  0  0  0  0  0  0  0  0  0  0
    4.2818   -1.1916    5.3757 H   0  0  0  0  0  0  0  0  0  0  0  0
    3.1527   -2.6753    7.0292 H   0  0  0  0  0  0  0  0  0  0  0  0
    3.1869   -5.0758    6.7144 H   0  0  0  0  0  0  0  0  0  0  0  0
    4.6945  -11.3826    2.1266 H   0  0  0  0  0  0  0  0  0  0  0  0
    3.1528  -10.6359    1.8984 H   0  0  0  0  0  0  0  0  0  0  0  0
    3.3558  -11.8401    3.1639 H   0  0  0  0  0  0  0  0  0  0  0  0
    5.8951  -11.2820    3.8540 H   0  0  0  0  0  0  0  0  0  0  0  0
    4.9865  -11.3202    5.2090 H   0  0  0  0  0  0  0  0  0  0  0  0
    1.0330   -7.0126    5.8061 H   0  0  0  0  0  0  0  0  0  0  0  0
  1  2  1  0
  1 47  1  0
  1 48  1  0
  1 49  1  0
  2 19  1  0
  2  3  1  0
  2  4  1  0
  3 50  1  0
  3 51  1  0
  3 52  1  0
  4  5  2  3
  4 53  1  0
  5  6  1  0
  5 54  1  0
  6  7  2  3
  6 55  1  0
  7  8  1  0
  7 56  1  0
  8 18  1  0
  8  9  1  0
  8 57  1  1
  9 10  1  0
  9 58  1  0
  9 59  1  0
 10 44  1  0
 10 11  1  0
 10 60  1  1
 11 15  1  0
 11 12  1  0
 11 61  1  1
 12 13  1  0
 12 62  1  0
 12 63  1  0
 13 14  1  0
 13 64  1  0
 13 65  1  0
 14 15  1  0
 14 66  1  0
 14 67  1  0
 15 16  1  0
 15 68  1  6
 16 17  2  3
 16 97  1  0
 17 18  1  0
 17 21  1  0
 18 19  1  0
 19 20  2  0
 21 28  1  0
 21 43  1  6
 21 22  1  0
 22 23  1  0
 22 69  1  0
 22 70  1  0
 23 24  1  0
 23 71  1  0
 23 72  1  0
 24 46  1  0
 24 25  1  0
 24 73  1  1
 25 26  1  0
 25 74  1  0
 25 75  1  0
 26 27  1  0
 26 76  1  0
 26 77  1  0
 27 28  1  0
 27 44  1  0
 27 78  1  6
 28 29  1  6
 28 30  1  0
 29 79  1  0
 30 31  1  0
 30 80  1  0
 30 81  1  0
 31 32  1  0
 31 38  1  0
 31 82  1  6
 32 37  1  0
 32 33  2  0
 33 34  1  0
 33 83  1  0
 34 35  2  0
 34 84  1  0
 35 36  1  0
 35 85  1  0
 36 37  2  0
 36 86  1  0
 37 87  1  0
 38 43  2  0
 38 39  1  0
 39 40  2  0
 39 88  1  0
 40 41  1  0
 40 89  1  0
 41 42  2  0
 41 90  1  0
 42 43  1  0
 42 91  1  0
 44 45  1  6
 44 46  1  0
 45 92  1  0
 45 93  1  0
 45 94  1  0
 46 95  1  0
 46 96  1  0
M  CHG  2  16   1  44   1
M  END
>  <i_m_ct_stereo_status>  (152) 
1

>  <s_m_source_file>  (152) 
/var/tmp/pbs.5076255.sched01/tmpqm933_o1/456x1pmp19.sdf

>  <i_m_source_file_index>  (152) 
16

>  <i_lp_mmshare_version>  (152) 
48012

>  <i_f3d_flags>  (152) 
0

>  <s_epik_input>  (152) 
Tz1DMUMoW0NIM10pKFtDSDNdKS9bQ0hdPVtDSF1cW0NIXT1bQ0hdL1tDQEhdKE4xL0MyW0NAQF0zNDUpW0NIMl1bQ0hdKFtDQEhdNltDQEhdKC9OPTIpW0NIMl1bQ0gyXVtDSDJdNilbTkBAK103KFtDSDNdKVtDQEhdKFtDSDJdW0NIMl1bQ0BIXShbQ0gyXTcpW0NIMl1bQ0gyXTMpW0NAXTQoW09IXSlbQ0gyXVtDQEBIXShjOFtjSF1bY0hdW2NIXVtjSF1bY0hdOCljOWM1W2NIXVtjSF1bY0hdW2NIXTk=

>  <s_epik_cmdline>  (152) 
J2VwaWtfcHl0aG9uJywgJy1waHQnLCAnMi4wJywgJy1waCcsICc3LjAnLCAnLXRuJywgJzgnLCAnLW1hJywgJzIwMCcsICctaW1hZScsICc8aW5maWxlLm1hZT4nLCAnLW9tYWUnLCAnPG91dGZpbGUubWFlPic=

>  <r_epik_Ionization_Penalty>  (152) 
1.89798

>  <r_epik_Ionization_Penalty_Charging>  (152) 
1.89749

>  <r_epik_Ionization_Penalty_Neutral>  (152) 
0.000490901

>  <r_epik_State_Penalty>  (152) 
2.0185

>  <r_epik_Charging_Adjusted_Penalty>  (152) 
3.91599

>  <i_epik_Tot_Q>  (152) 
2

>  <i_epik_Tot_abs_Q>  (152) 
2

>  <s_epik_Chemistry_Notes>  (152) 
This compound has an imine and may undergo hydrolysis.

>  <s_lp_Force_Field>  (152) 
OPLS3e

>  <r_lp_Energy>  (152) 
273.714

>  <b_lp_Chiralities_Consistent>  (152) 
1

>  <s_lp_Variant>  (152) 
33:0-13

>  <s_i_glide_gridfile>  (152) 
pfpi4k_grid

>  <i_i_glide_lignum>  (152) 
16

>  <i_i_glide_rotatable_bonds>  (152) 
2

>  <r_i_docking_score>  (152) 
-2.10154

>  <r_i_glide_ligand_efficiency>  (152) 
-0.0456856

>  <r_i_glide_ligand_efficiency_sa>  (152) 
-0.163694

>  <r_i_glide_ligand_efficiency_ln>  (152) 
-0.435223

>  <r_i_glide_gscore>  (152) 
-2.10154

>  <r_i_glide_lipo>  (152) 
-0.324556

>  <r_i_glide_hbond>  (152) 
0

>  <r_i_glide_metal>  (152) 
-0

>  <r_i_glide_rewards>  (152) 
0

>  <r_i_glide_evdw>  (152) 
-24.6856

>  <r_i_glide_ecoul>  (152) 
-3.87133

>  <r_i_glide_erotb>  (152) 
0.0552374

>  <r_i_glide_esite>  (152) 
-0.0172352

>  <r_i_glide_emodel>  (152) 
-33.0498

>  <r_i_glide_energy>  (152) 
-28.557

>  <r_i_glide_einternal>  (152) 
0.371765

>  <r_i_glide_intrahb_reward>  (152) 
-0

>  <i_i_glide_confnum>  (152) 
4

>  <i_i_glide_posenum>  (152) 
26

>  <r_i_glide_eff_state_penalty>  (152) 
0

>  <ligand_id>  (152) 
33

>  <original_smiles>  (152) 
CC1(C)C=CC=CC2CC3C4CCCC4N=C(N2C1=O)C12CCC4CCC(C1(O)CC(c1ccccc1)c1ccccc12)[N+]3(C)C4

>  <smiles>  (152) 
[H]OC12C([H])([H])C([H])(c3c([H])c([H])c([H])c([H])c3[H])c3c([H])c([H])c([H])c([H])c3C13C1=[N+]([H])C4([H])C([H])([H])C([H])([H])C([H])([H])C4([H])C([H])(C([H])([H])C4([H])C([H])=C([H])C([H])=C([H])C(C([H])([H])[H])(C([H])([H])[H])C(=O)N14)[N+]1(C([H])([H])[H])C([H])([H])C([H])(C([H])([H])C3([H])[H])C([H])([H])C([H])([H])C21[H]

$$$$
33:12:2
     RDKit          3D

 97105  0  0  1  0  0  0  0  0999 V2000
    0.9996   -5.6699    8.2880 C   0  0  0  0  0  0  0  0  0  0  0  0
    2.1491   -6.3743    9.0778 C   0  0  0  0  0  0  0  0  0  0  0  0
    2.7729   -5.2442    9.9410 C   0  0  0  0  0  0  0  0  0  0  0  0
    1.5889   -7.4250   10.0305 C   0  0  0  0  0  0  0  0  0  0  0  0
    0.6930   -8.3970    9.7695 C   0  0  0  0  0  0  0  0  0  0  0  0
    0.0525   -8.6554    8.4954 C   0  0  0  0  0  0  0  0  0  0  0  0
    0.6771   -8.8722    7.3247 C   0  0  0  0  0  0  0  0  0  0  0  0
    2.1829   -8.9858    7.1281 C   0  0  1  0  0  0  0  0  0  0  0  0
    2.6370  -10.0693    6.0727 C   0  0  0  0  0  0  0  0  0  0  0  0
    2.9157   -9.5707    4.5877 C   0  0  2  0  0  0  0  0  0  0  0  0
    1.5485   -9.0857    3.9185 C   0  0  2  0  0  0  0  0  0  0  0  0
    0.8944   -9.5349    2.6106 C   0  0  0  0  0  0  0  0  0  0  0  0
   -0.4309   -8.7172    2.6099 C   0  0  0  0  0  0  0  0  0  0  0  0
   -0.2868   -7.6124    3.6808 C   0  0  0  0  0  0  0  0  0  0  0  0
    1.2194   -7.5935    3.9217 C   0  0  1  0  0  0  0  0  0  0  0  0
    1.6802   -6.9917    5.1626 N   0  0  0  0  0  0  0  0  0  0  0  0
    2.9461   -7.1052    5.6900 C   0  0  0  0  0  0  0  0  0  0  0  0
    2.8518   -7.6500    6.9723 N   0  0  0  0  0  0  0  0  0  0  0  0
    3.2619   -7.0108    8.1976 C   0  0  0  0  0  0  0  0  0  0  0  0
    4.4094   -7.1347    8.6255 O   0  0  0  0  0  0  0  0  0  0  0  0
    4.2804   -6.6236    4.9511 C   0  0  1  0  0  0  0  0  0  0  0  0
    5.5413   -7.0538    5.7879 C   0  0  0  0  0  0  0  0  0  0  0  0
    5.8100   -8.5377    6.2261 C   0  0  0  0  0  0  0  0  0  0  0  0
    6.2849   -9.6166    5.2196 C   0  0  2  0  0  0  0  0  0  0  0  0
    7.1703   -9.1401    4.0561 C   0  0  0  0  0  0  0  0  0  0  0  0
    6.3298   -9.1179    2.7690 C   0  0  0  0  0  0  0  0  0  0  0  0
    4.8180   -8.7925    3.0681 C   0  0  2  0  0  0  0  0  0  0  0  0
    4.5892   -7.1970    3.4378 C   0  0  1  0  0  0  0  0  0  0  0  0
    3.5807   -6.8345    2.5492 O   0  0  0  0  0  0  0  0  0  0  0  0
    5.7072   -6.3327    2.7511 C   0  0  0  0  0  0  0  0  0  0  0  0
    5.5097   -4.8091    2.6966 C   0  0  1  0  0  0  0  0  0  0  0  0
    4.8267   -4.3646    1.4008 C   0  0  0  0  0  0  0  0  0  0  0  0
    5.5216   -4.5137    0.1736 C   0  0  0  0  0  0  0  0  0  0  0  0
    4.9317   -4.1186   -1.0449 C   0  0  0  0  0  0  0  0  0  0  0  0
    3.6383   -3.5587   -1.0527 C   0  0  0  0  0  0  0  0  0  0  0  0
    2.9382   -3.4035    0.1590 C   0  0  0  0  0  0  0  0  0  0  0  0
    3.5208   -3.8110    1.3764 C   0  0  0  0  0  0  0  0  0  0  0  0
    4.8880   -4.2539    3.9588 C   0  0  0  0  0  0  0  0  0  0  0  0
    4.8992   -2.8444    4.1148 C   0  0  0  0  0  0  0  0  0  0  0  0
    4.2548   -2.2315    5.2075 C   0  0  0  0  0  0  0  0  0  0  0  0
    3.5948   -3.0311    6.1532 C   0  0  0  0  0  0  0  0  0  0  0  0
    3.6131   -4.4310    6.0087 C   0  0  0  0  0  0  0  0  0  0  0  0
    4.2852   -5.0796    4.9435 C   0  0  0  0  0  0  0  0  0  0  0  0
    4.1480   -9.9649    3.8101 N   0  0  2  0  0  0  0  0  0  0  0  0
    3.7466  -11.0194    2.8798 C   0  0  0  0  0  0  0  0  0  0  0  0
    5.1964  -10.5824    4.6784 C   0  0  0  0  0  0  0  0  0  0  0  0
    0.5767   -6.2530    7.4769 H   0  0  0  0  0  0  0  0  0  0  0  0
    1.3101   -4.7161    7.8598 H   0  0  0  0  0  0  0  0  0  0  0  0
    0.1693   -5.4286    8.9549 H   0  0  0  0  0  0  0  0  0  0  0  0
    3.5608   -5.6146   10.5999 H   0  0  0  0  0  0  0  0  0  0  0  0
    2.0208   -4.7690   10.5762 H   0  0  0  0  0  0  0  0  0  0  0  0
    3.2091   -4.4561    9.3208 H   0  0  0  0  0  0  0  0  0  0  0  0
    1.9931   -7.3908   11.0324 H   0  0  0  0  0  0  0  0  0  0  0  0
    0.4528   -9.0659   10.5831 H   0  0  0  0  0  0  0  0  0  0  0  0
   -1.0249   -8.6457    8.4797 H   0  0  0  0  0  0  0  0  0  0  0  0
    0.0495   -9.0252    6.4635 H   0  0  0  0  0  0  0  0  0  0  0  0
    2.5344   -9.4052    8.0743 H   0  0  0  0  0  0  0  0  0  0  0  0
    3.4724  -10.5510    6.5618 H   0  0  0  0  0  0  0  0  0  0  0  0
    1.8978  -10.8655    6.0275 H   0  0  0  0  0  0  0  0  0  0  0  0
    3.4143   -8.7345    4.9126 H   0  0  0  0  0  0  0  0  0  0  0  0
    0.8363   -9.5299    4.6023 H   0  0  0  0  0  0  0  0  0  0  0  0
    1.4945   -9.2398    1.7467 H   0  0  0  0  0  0  0  0  0  0  0  0
    0.7096  -10.6102    2.5706 H   0  0  0  0  0  0  0  0  0  0  0  0
   -0.6111   -8.2823    1.6259 H   0  0  0  0  0  0  0  0  0  0  0  0
   -1.2885   -9.3497    2.8455 H   0  0  0  0  0  0  0  0  0  0  0  0
   -0.6598   -6.6537    3.3248 H   0  0  0  0  0  0  0  0  0  0  0  0
   -0.8355   -7.8604    4.5909 H   0  0  0  0  0  0  0  0  0  0  0  0
    1.5242   -7.0329    3.0566 H   0  0  0  0  0  0  0  0  0  0  0  0
    6.4529   -6.6733    5.3437 H   0  0  0  0  0  0  0  0  0  0  0  0
    5.5304   -6.4595    6.6950 H   0  0  0  0  0  0  0  0  0  0  0  0
    6.6068   -8.4640    6.9681 H   0  0  0  0  0  0  0  0  0  0  0  0
    5.0002   -8.9543    6.8113 H   0  0  0  0  0  0  0  0  0  0  0  0
    6.9485  -10.2522    5.8115 H   0  0  0  0  0  0  0  0  0  0  0  0
    7.6128   -8.1628    4.2646 H   0  0  0  0  0  0  0  0  0  0  0  0
    8.0168   -9.8109    3.9116 H   0  0  0  0  0  0  0  0  0  0  0  0
    6.8107   -8.5064    2.0119 H   0  0  0  0  0  0  0  0  0  0  0  0
    6.3944  -10.1130    2.3177 H   0  0  0  0  0  0  0  0  0  0  0  0
    4.4153   -8.8682    2.0481 H   0  0  0  0  0  0  0  0  0  0  0  0
    3.4860   -5.8997    2.5719 H   0  0  0  0  0  0  0  0  0  0  0  0
    6.6428   -6.4765    3.2881 H   0  0  0  0  0  0  0  0  0  0  0  0
    5.9227   -6.6684    1.7415 H   0  0  0  0  0  0  0  0  0  0  0  0
    6.5057   -4.3759    2.6345 H   0  0  0  0  0  0  0  0  0  0  0  0
    6.5085   -4.9424    0.1623 H   0  0  0  0  0  0  0  0  0  0  0  0
    5.4571   -4.2588   -1.9740 H   0  0  0  0  0  0  0  0  0  0  0  0
    3.1779   -3.2711   -1.9807 H   0  0  0  0  0  0  0  0  0  0  0  0
    1.9558   -2.9666    0.1481 H   0  0  0  0  0  0  0  0  0  0  0  0
    2.9579   -3.6731    2.2817 H   0  0  0  0  0  0  0  0  0  0  0  0
    5.3688   -2.2241    3.3745 H   0  0  0  0  0  0  0  0  0  0  0  0
    4.2513   -1.1592    5.3152 H   0  0  0  0  0  0  0  0  0  0  0  0
    3.0782   -2.5868    6.9875 H   0  0  0  0  0  0  0  0  0  0  0  0
    3.0928   -4.9947    6.7377 H   0  0  0  0  0  0  0  0  0  0  0  0
    4.6116  -11.4540    2.3642 H   0  0  0  0  0  0  0  0  0  0  0  0
    3.0851  -10.6901    2.0752 H   0  0  0  0  0  0  0  0  0  0  0  0
    3.2490  -11.8564    3.3863 H   0  0  0  0  0  0  0  0  0  0  0  0
    5.7854  -11.2978    4.0960 H   0  0  0  0  0  0  0  0  0  0  0  0
    4.8528  -11.2924    5.4337 H   0  0  0  0  0  0  0  0  0  0  0  0
    0.9361   -6.9383    5.8375 H   0  0  0  0  0  0  0  0  0  0  0  0
  1  2  1  0
  1 47  1  0
  1 48  1  0
  1 49  1  0
  2 19  1  0
  2  3  1  0
  2  4  1  0
  3 50  1  0
  3 51  1  0
  3 52  1  0
  4  5  2  3
  4 53  1  0
  5  6  1  0
  5 54  1  0
  6  7  2  3
  6 55  1  0
  7  8  1  0
  7 56  1  0
  8 18  1  0
  8  9  1  0
  8 57  1  1
  9 10  1  0
  9 58  1  0
  9 59  1  0
 10 44  1  0
 10 11  1  0
 10 60  1  1
 11 15  1  0
 11 12  1  0
 11 61  1  1
 12 13  1  0
 12 62  1  0
 12 63  1  0
 13 14  1  0
 13 64  1  0
 13 65  1  0
 14 15  1  0
 14 66  1  0
 14 67  1  0
 15 16  1  0
 15 68  1  6
 16 17  2  3
 16 97  1  0
 17 18  1  0
 17 21  1  0
 18 19  1  0
 19 20  2  0
 21 28  1  0
 21 43  1  6
 21 22  1  0
 22 23  1  0
 22 69  1  0
 22 70  1  0
 23 24  1  0
 23 71  1  0
 23 72  1  0
 24 46  1  0
 24 25  1  0
 24 73  1  1
 25 26  1  0
 25 74  1  0
 25 75  1  0
 26 27  1  0
 26 76  1  0
 26 77  1  0
 27 28  1  0
 27 44  1  0
 27 78  1  6
 28 29  1  6
 28 30  1  0
 29 79  1  0
 30 31  1  0
 30 80  1  0
 30 81  1  0
 31 32  1  0
 31 38  1  0
 31 82  1  6
 32 37  1  0
 32 33  2  0
 33 34  1  0
 33 83  1  0
 34 35  2  0
 34 84  1  0
 35 36  1  0
 35 85  1  0
 36 37  2  0
 36 86  1  0
 37 87  1  0
 38 43  2  0
 38 39  1  0
 39 40  2  0
 39 88  1  0
 40 41  1  0
 40 89  1  0
 41 42  2  0
 41 90  1  0
 42 43  1  0
 42 91  1  0
 44 45  1  6
 44 46  1  0
 45 92  1  0
 45 93  1  0
 45 94  1  0
 46 95  1  0
 46 96  1  0
M  CHG  2  16   1  44   1
M  END
>  <i_m_ct_stereo_status>  (153) 
1

>  <s_m_source_file>  (153) 
/var/tmp/pbs.5076255.sched01/tmpqm933_o1/456x1pmp19.sdf

>  <i_m_source_file_index>  (153) 
16

>  <i_lp_mmshare_version>  (153) 
48012

>  <i_f3d_flags>  (153) 
0

>  <s_epik_input>  (153) 
Tz1DMUMoW0NIM10pKFtDSDNdKS9bQ0hdPVtDSF1cW0NIXT1bQ0hdL1tDQEhdKE4xL0MyW0NAQF0zNDUpW0NIMl1bQ0hdKFtDQEhdNltDQEhdKC9OPTIpW0NIMl1bQ0gyXVtDSDJdNilbTkBAK103KFtDSDNdKVtDQEhdKFtDSDJdW0NIMl1bQ0BIXShbQ0gyXTcpW0NIMl1bQ0gyXTMpW0NAXTQoW09IXSlbQ0gyXVtDQEBIXShjOFtjSF1bY0hdW2NIXVtjSF1bY0hdOCljOWM1W2NIXVtjSF1bY0hdW2NIXTk=

>  <s_epik_cmdline>  (153) 
J2VwaWtfcHl0aG9uJywgJy1waHQnLCAnMi4wJywgJy1waCcsICc3LjAnLCAnLXRuJywgJzgnLCAnLW1hJywgJzIwMCcsICctaW1hZScsICc8aW5maWxlLm1hZT4nLCAnLW9tYWUnLCAnPG91dGZpbGUubWFlPic=

>  <r_epik_Ionization_Penalty>  (153) 
1.89798

>  <r_epik_Ionization_Penalty_Charging>  (153) 
1.89749

>  <r_epik_Ionization_Penalty_Neutral>  (153) 
0.000490901

>  <r_epik_State_Penalty>  (153) 
2.0185

>  <r_epik_Charging_Adjusted_Penalty>  (153) 
3.91599

>  <i_epik_Tot_Q>  (153) 
2

>  <i_epik_Tot_abs_Q>  (153) 
2

>  <s_epik_Chemistry_Notes>  (153) 
This compound has an imine and may undergo hydrolysis.

>  <s_lp_Force_Field>  (153) 
OPLS3e

>  <r_lp_Energy>  (153) 
273.714

>  <b_lp_Chiralities_Consistent>  (153) 
1

>  <s_lp_Variant>  (153) 
33:0-13

>  <s_i_glide_gridfile>  (153) 
pfpi4k_grid

>  <i_i_glide_lignum>  (153) 
16

>  <i_i_glide_rotatable_bonds>  (153) 
2

>  <r_i_docking_score>  (153) 
-2.04773

>  <r_i_glide_ligand_efficiency>  (153) 
-0.0445159

>  <r_i_glide_ligand_efficiency_sa>  (153) 
-0.159502

>  <r_i_glide_ligand_efficiency_ln>  (153) 
-0.42408

>  <r_i_glide_gscore>  (153) 
-2.04773

>  <r_i_glide_lipo>  (153) 
-0.257686

>  <r_i_glide_hbond>  (153) 
0

>  <r_i_glide_metal>  (153) 
-0

>  <r_i_glide_rewards>  (153) 
0

>  <r_i_glide_evdw>  (153) 
-25.2051

>  <r_i_glide_ecoul>  (153) 
-3.79568

>  <r_i_glide_erotb>  (153) 
0.0552374

>  <r_i_glide_esite>  (153) 
-0.0156758

>  <r_i_glide_emodel>  (153) 
-33.3955

>  <r_i_glide_energy>  (153) 
-29.0007

>  <r_i_glide_einternal>  (153) 
0.244212

>  <r_i_glide_intrahb_reward>  (153) 
-0

>  <i_i_glide_confnum>  (153) 
4

>  <i_i_glide_posenum>  (153) 
4

>  <r_i_glide_eff_state_penalty>  (153) 
0

>  <ligand_id>  (153) 
33

>  <original_smiles>  (153) 
CC1(C)C=CC=CC2CC3C4CCCC4N=C(N2C1=O)C12CCC4CCC(C1(O)CC(c1ccccc1)c1ccccc12)[N+]3(C)C4

>  <smiles>  (153) 
[H]OC12C([H])([H])C([H])(c3c([H])c([H])c([H])c([H])c3[H])c3c([H])c([H])c([H])c([H])c3C13C1=[N+]([H])C4([H])C([H])([H])C([H])([H])C([H])([H])C4([H])C([H])(C([H])([H])C4([H])C([H])=C([H])C([H])=C([H])C(C([H])([H])[H])(C([H])([H])[H])C(=O)N14)[N+]1(C([H])([H])[H])C([H])([H])C([H])(C([H])([H])C3([H])[H])C([H])([H])C([H])([H])C21[H]

$$$$
33:13:0
     RDKit          3D

 97105  0  0  1  0  0  0  0  0999 V2000
    4.3557   -3.7998    1.7308 C   0  0  0  0  0  0  0  0  0  0  0  0
    4.9933   -5.1606    1.3628 C   0  0  0  0  0  0  0  0  0  0  0  0
    5.1466   -5.1431   -0.1816 C   0  0  0  0  0  0  0  0  0  0  0  0
    6.3257   -5.3186    2.0629 C   0  0  0  0  0  0  0  0  0  0  0  0
    7.3096   -6.0707    1.5574 C   0  0  0  0  0  0  0  0  0  0  0  0
    7.8289   -7.1214    2.3878 C   0  0  0  0  0  0  0  0  0  0  0  0
    7.0285   -8.1259    2.7995 C   0  0  0  0  0  0  0  0  0  0  0  0
    5.5464   -8.3878    2.4097 C   0  0  1  0  0  0  0  0  0  0  0  0
    5.0483   -9.8392    2.8027 C   0  0  0  0  0  0  0  0  0  0  0  0
    4.4184  -10.0264    4.2507 C   0  0  2  0  0  0  0  0  0  0  0  0
    5.4812   -9.7072    5.3942 C   0  0  2  0  0  0  0  0  0  0  0  0
    5.9177  -10.5443    6.5934 C   0  0  0  0  0  0  0  0  0  0  0  0
    7.0453   -9.6631    7.2134 C   0  0  0  0  0  0  0  0  0  0  0  0
    6.9516   -8.2591    6.5625 C   0  0  0  0  0  0  0  0  0  0  0  0
    5.5454   -8.2900    5.9809 C   0  0  1  0  0  0  0  0  0  0  0  0
    5.2135   -7.3223    4.9447 N   0  0  0  0  0  0  0  0  0  0  0  0
    4.1102   -7.3596    4.1215 C   0  0  0  0  0  0  0  0  0  0  0  0
    4.5482   -7.3042    2.7995 N   0  0  0  0  0  0  0  0  0  0  0  0
    4.0794   -6.3734    1.7413 C   0  0  0  0  0  0  0  0  0  0  0  0
    3.0652   -6.5977    1.0853 O   0  0  0  0  0  0  0  0  0  0  0  0
    2.5910   -7.3719    4.6680 C   0  0  1  0  0  0  0  0  0  0  0  0
    1.5767   -7.5387    3.4826 C   0  0  0  0  0  0  0  0  0  0  0  0
    1.6719   -8.7465    2.4859 C   0  0  0  0  0  0  0  0  0  0  0  0
    1.2552  -10.1803    2.8847 C   0  0  2  0  0  0  0  0  0  0  0  0
    0.1456  -10.2855    3.9290 C   0  0  0  0  0  0  0  0  0  0  0  0
    0.7193  -10.7463    5.2678 C   0  0  0  0  0  0  0  0  0  0  0  0
    2.1492  -10.1566    5.4700 C   0  0  2  0  0  0  0  0  0  0  0  0
    2.1211   -8.5305    5.7347 C   0  0  1  0  0  0  0  0  0  0  0  0
    2.9256   -8.4469    6.8466 O   0  0  0  0  0  0  0  0  0  0  0  0
    0.7517   -8.1294    6.4168 C   0  0  0  0  0  0  0  0  0  0  0  0
    0.6426   -6.7415    7.0820 C   0  0  1  0  0  0  0  0  0  0  0  0
    0.8958   -6.7609    8.6161 C   0  0  0  0  0  0  0  0  0  0  0  0
    0.5028   -5.6562    9.4233 C   0  0  0  0  0  0  0  0  0  0  0  0
    0.7848   -5.6256   10.8009 C   0  0  0  0  0  0  0  0  0  0  0  0
    1.4225   -6.7130   11.4277 C   0  0  0  0  0  0  0  0  0  0  0  0
    1.7625   -7.8429   10.6588 C   0  0  0  0  0  0  0  0  0  0  0  0
    1.4764   -7.8768    9.2855 C   0  0  0  0  0  0  0  0  0  0  0  0
    1.4050   -5.6587    6.3071 C   0  0  0  0  0  0  0  0  0  0  0  0
    1.1700   -4.2982    6.6303 C   0  0  0  0  0  0  0  0  0  0  0  0
    1.9570   -3.2691    6.0916 C   0  0  0  0  0  0  0  0  0  0  0  0
    2.9661   -3.5773    5.1738 C   0  0  0  0  0  0  0  0  0  0  0  0
    3.1436   -4.9129    4.7746 C   0  0  0  0  0  0  0  0  0  0  0  0
    2.3483   -5.9674    5.2780 C   0  0  0  0  0  0  0  0  0  0  0  0
    3.1536  -10.8442    4.5060 N   0  0  2  0  0  0  0  0  0  0  0  0
    3.5822  -12.1676    5.0528 C   0  0  0  0  0  0  0  0  0  0  0  0
    2.4045  -11.1656    3.2302 C   0  0  0  0  0  0  0  0  0  0  0  0
    4.4834   -3.5412    2.7782 H   0  0  0  0  0  0  0  0  0  0  0  0
    3.2898   -3.7768    1.4973 H   0  0  0  0  0  0  0  0  0  0  0  0
    4.8211   -2.9850    1.1728 H   0  0  0  0  0  0  0  0  0  0  0  0
    5.4213   -6.1180   -0.5811 H   0  0  0  0  0  0  0  0  0  0  0  0
    5.8931   -4.4138   -0.5028 H   0  0  0  0  0  0  0  0  0  0  0  0
    4.2087   -4.8730   -0.6729 H   0  0  0  0  0  0  0  0  0  0  0  0
    6.2483   -5.2486    3.1398 H   0  0  0  0  0  0  0  0  0  0  0  0
    7.3635   -6.2657    0.4986 H   0  0  0  0  0  0  0  0  0  0  0  0
    8.8682   -7.1088    2.6867 H   0  0  0  0  0  0  0  0  0  0  0  0
    7.5160   -8.8933    3.3771 H   0  0  0  0  0  0  0  0  0  0  0  0
    5.5835   -8.3934    1.3191 H   0  0  0  0  0  0  0  0  0  0  0  0
    4.3911  -10.1005    1.9853 H   0  0  0  0  0  0  0  0  0  0  0  0
    5.8631  -10.5501    2.6964 H   0  0  0  0  0  0  0  0  0  0  0  0
    3.8176   -9.2029    4.1290 H   0  0  0  0  0  0  0  0  0  0  0  0
    6.3870   -9.8141    4.8115 H   0  0  0  0  0  0  0  0  0  0  0  0
    5.1015  -10.6549    7.3113 H   0  0  0  0  0  0  0  0  0  0  0  0
    6.2840  -11.5323    6.3107 H   0  0  0  0  0  0  0  0  0  0  0  0
    6.9215   -9.6015    8.2968 H   0  0  0  0  0  0  0  0  0  0  0  0
    8.0318  -10.0868    7.0266 H   0  0  0  0  0  0  0  0  0  0  0  0
    7.0686   -7.4665    7.3047 H   0  0  0  0  0  0  0  0  0  0  0  0
    7.7058   -8.1115    5.7879 H   0  0  0  0  0  0  0  0  0  0  0  0
    5.0292   -8.0868    6.9054 H   0  0  0  0  0  0  0  0  0  0  0  0
    0.5531   -7.4781    3.8325 H   0  0  0  0  0  0  0  0  0  0  0  0
    1.6147   -6.6191    2.9107 H   0  0  0  0  0  0  0  0  0  0  0  0
    1.0141   -8.4730    1.6589 H   0  0  0  0  0  0  0  0  0  0  0  0
    2.6421   -8.8224    2.0156 H   0  0  0  0  0  0  0  0  0  0  0  0
    0.8029  -10.5891    1.9850 H   0  0  0  0  0  0  0  0  0  0  0  0
   -0.4646   -9.3866    3.9949 H   0  0  0  0  0  0  0  0  0  0  0  0
   -0.5663  -11.0494    3.6255 H   0  0  0  0  0  0  0  0  0  0  0  0
    0.0172  -10.5597    6.0719 H   0  0  0  0  0  0  0  0  0  0  0  0
    0.7670  -11.8379    5.2713 H   0  0  0  0  0  0  0  0  0  0  0  0
    2.3863  -10.6083    6.4352 H   0  0  0  0  0  0  0  0  0  0  0  0
    2.6521   -9.1087    7.4681 H   0  0  0  0  0  0  0  0  0  0  0  0
   -0.0397   -8.1539    5.6764 H   0  0  0  0  0  0  0  0  0  0  0  0
    0.3991   -8.8695    7.1335 H   0  0  0  0  0  0  0  0  0  0  0  0
   -0.4034   -6.4544    6.9875 H   0  0  0  0  0  0  0  0  0  0  0  0
   -0.0326   -4.8147    9.0210 H   0  0  0  0  0  0  0  0  0  0  0  0
    0.4922   -4.7621   11.3799 H   0  0  0  0  0  0  0  0  0  0  0  0
    1.6176   -6.7029   12.4932 H   0  0  0  0  0  0  0  0  0  0  0  0
    2.2314   -8.7006   11.1158 H   0  0  0  0  0  0  0  0  0  0  0  0
    1.7136   -8.8078    8.7896 H   0  0  0  0  0  0  0  0  0  0  0  0
    0.3993   -3.9956    7.3093 H   0  0  0  0  0  0  0  0  0  0  0  0
    1.7909   -2.2476    6.3986 H   0  0  0  0  0  0  0  0  0  0  0  0
    3.5829   -2.7881    4.7674 H   0  0  0  0  0  0  0  0  0  0  0  0
    3.9231   -5.1237    4.0739 H   0  0  0  0  0  0  0  0  0  0  0  0
    2.7517  -12.8694    5.1515 H   0  0  0  0  0  0  0  0  0  0  0  0
    4.0081  -12.1092    6.0518 H   0  0  0  0  0  0  0  0  0  0  0  0
    4.3180  -12.6327    4.3912 H   0  0  0  0  0  0  0  0  0  0  0  0
    1.8868  -12.1201    3.3515 H   0  0  0  0  0  0  0  0  0  0  0  0
    3.0223  -11.4262    2.3782 H   0  0  0  0  0  0  0  0  0  0  0  0
    6.0481   -6.9314    4.5357 H   0  0  0  0  0  0  0  0  0  0  0  0
  1  2  1  0
  1 47  1  0
  1 48  1  0
  1 49  1  0
  2 19  1  0
  2  3  1  0
  2  4  1  0
  3 50  1  0
  3 51  1  0
  3 52  1  0
  4  5  2  3
  4 53  1  0
  5  6  1  0
  5 54  1  0
  6  7  2  3
  6 55  1  0
  7  8  1  0
  7 56  1  0
  8 18  1  0
  8  9  1  0
  8 57  1  6
  9 10  1  0
  9 58  1  0
  9 59  1  0
 10 44  1  0
 10 11  1  0
 10 60  1  6
 11 15  1  0
 11 12  1  0
 11 61  1  6
 12 13  1  0
 12 62  1  0
 12 63  1  0
 13 14  1  0
 13 64  1  0
 13 65  1  0
 14 15  1  0
 14 66  1  0
 14 67  1  0
 15 16  1  0
 15 68  1  1
 16 17  2  3
 16 97  1  0
 17 18  1  0
 17 21  1  0
 18 19  1  0
 19 20  2  0
 21 28  1  0
 21 43  1  1
 21 22  1  0
 22 23  1  0
 22 69  1  0
 22 70  1  0
 23 24  1  0
 23 71  1  0
 23 72  1  0
 24 46  1  0
 24 25  1  0
 24 73  1  6
 25 26  1  0
 25 74  1  0
 25 75  1  0
 26 27  1  0
 26 76  1  0
 26 77  1  0
 27 28  1  0
 27 44  1  0
 27 78  1  1
 28 29  1  1
 28 30  1  0
 29 79  1  0
 30 31  1  0
 30 80  1  0
 30 81  1  0
 31 32  1  0
 31 38  1  0
 31 82  1  1
 32 37  1  0
 32 33  2  0
 33 34  1  0
 33 83  1  0
 34 35  2  0
 34 84  1  0
 35 36  1  0
 35 85  1  0
 36 37  2  0
 36 86  1  0
 37 87  1  0
 38 43  2  0
 38 39  1  0
 39 40  2  0
 39 88  1  0
 40 41  1  0
 40 89  1  0
 41 42  2  0
 41 90  1  0
 42 43  1  0
 42 91  1  0
 44 45  1  1
 44 46  1  0
 45 92  1  0
 45 93  1  0
 45 94  1  0
 46 95  1  0
 46 96  1  0
M  CHG  2  16   1  44   1
M  END
>  <i_m_ct_stereo_status>  (154) 
1

>  <s_m_source_file>  (154) 
/var/tmp/pbs.5076255.sched01/tmpqm933_o1/456x1pmp19.sdf

>  <i_m_source_file_index>  (154) 
17

>  <i_lp_mmshare_version>  (154) 
48012

>  <i_f3d_flags>  (154) 
0

>  <s_epik_input>  (154) 
Tz1DMUMoW0NIM10pKFtDSDNdKS9bQ0hdPVtDSF1cW0NIXT1bQ0hdL1tDQEhdKE4xL0MyW0NAQF0zNDUpW0NIMl1bQ0hdKFtDQEhdNltDQEhdKC9OPTIpW0NIMl1bQ0gyXVtDSDJdNilbTkBAK103KFtDSDNdKVtDQEhdKFtDSDJdW0NIMl1bQ0BIXShbQ0gyXTcpW0NIMl1bQ0gyXTMpW0NAXTQoW09IXSlbQ0gyXVtDQEBIXShjOFtjSF1bY0hdW2NIXVtjSF1bY0hdOCljOWM1W2NIXVtjSF1bY0hdW2NIXTk=

>  <s_epik_cmdline>  (154) 
J2VwaWtfcHl0aG9uJywgJy1waHQnLCAnMi4wJywgJy1waCcsICc3LjAnLCAnLXRuJywgJzgnLCAnLW1hJywgJzIwMCcsICctaW1hZScsICc8aW5maWxlLm1hZT4nLCAnLW9tYWUnLCAnPG91dGZpbGUubWFlPic=

>  <r_epik_Ionization_Penalty>  (154) 
1.89798

>  <r_epik_Ionization_Penalty_Charging>  (154) 
1.89749

>  <r_epik_Ionization_Penalty_Neutral>  (154) 
0.000490901

>  <r_epik_State_Penalty>  (154) 
2.0185

>  <r_epik_Charging_Adjusted_Penalty>  (154) 
3.91599

>  <i_epik_Tot_Q>  (154) 
2

>  <i_epik_Tot_abs_Q>  (154) 
2

>  <s_epik_Chemistry_Notes>  (154) 
This compound has an imine and may undergo hydrolysis.

>  <s_lp_Force_Field>  (154) 
OPLS3e

>  <r_lp_Energy>  (154) 
296.902

>  <b_lp_Chiralities_Consistent>  (154) 
1

>  <s_lp_Variant>  (154) 
33:0-14

>  <s_i_glide_gridfile>  (154) 
pfpi4k_grid

>  <i_i_glide_lignum>  (154) 
17

>  <i_i_glide_rotatable_bonds>  (154) 
2

>  <r_i_docking_score>  (154) 
-2.69831

>  <r_i_glide_ligand_efficiency>  (154) 
-0.0586588

>  <r_i_glide_ligand_efficiency_sa>  (154) 
-0.210177

>  <r_i_glide_ligand_efficiency_ln>  (154) 
-0.558813

>  <r_i_glide_gscore>  (154) 
-2.69831

>  <r_i_glide_lipo>  (154) 
-0.392813

>  <r_i_glide_hbond>  (154) 
0

>  <r_i_glide_metal>  (154) 
-0

>  <r_i_glide_rewards>  (154) 
-0.0575692

>  <r_i_glide_evdw>  (154) 
-26.2536

>  <r_i_glide_ecoul>  (154) 
-6.472

>  <r_i_glide_erotb>  (154) 
0.0552374

>  <r_i_glide_esite>  (154) 
-0.0196833

>  <r_i_glide_emodel>  (154) 
-38.0292

>  <r_i_glide_energy>  (154) 
-32.7256

>  <r_i_glide_einternal>  (154) 
4.1634

>  <r_i_glide_intrahb_reward>  (154) 
-0

>  <i_i_glide_confnum>  (154) 
2

>  <i_i_glide_posenum>  (154) 
40

>  <r_i_glide_eff_state_penalty>  (154) 
0

>  <ligand_id>  (154) 
33

>  <original_smiles>  (154) 
CC1(C)C=CC=CC2CC3C4CCCC4N=C(N2C1=O)C12CCC4CCC(C1(O)CC(c1ccccc1)c1ccccc12)[N+]3(C)C4

>  <smiles>  (154) 
[H]OC12C([H])([H])C([H])(c3c([H])c([H])c([H])c([H])c3[H])c3c([H])c([H])c([H])c([H])c3C13C1=[N+]([H])C4([H])C([H])([H])C([H])([H])C([H])([H])C4([H])C([H])(C([H])([H])C4([H])C([H])=C([H])C([H])=C([H])C(C([H])([H])[H])(C([H])([H])[H])C(=O)N14)[N+]1(C([H])([H])[H])C([H])([H])C([H])(C([H])([H])C3([H])[H])C([H])([H])C([H])([H])C21[H]

$$$$
33:13:1
     RDKit          3D

 97105  0  0  1  0  0  0  0  0999 V2000
    4.1174   -2.8534    1.4397 C   0  0  0  0  0  0  0  0  0  0  0  0
    4.4891   -4.2653    0.9280 C   0  0  0  0  0  0  0  0  0  0  0  0
    4.4582   -4.1694   -0.6227 C   0  0  0  0  0  0  0  0  0  0  0  0
    5.8596   -4.6526    1.4436 C   0  0  0  0  0  0  0  0  0  0  0  0
    6.6502   -5.5013    0.7784 C   0  0  0  0  0  0  0  0  0  0  0  0
    7.1106   -6.6701    1.4732 C   0  0  0  0  0  0  0  0  0  0  0  0
    6.2235   -7.5778    1.9327 C   0  0  0  0  0  0  0  0  0  0  0  0
    4.6791   -7.5940    1.7349 C   0  0  1  0  0  0  0  0  0  0  0  0
    4.0185   -8.9844    2.1217 C   0  0  0  0  0  0  0  0  0  0  0  0
    3.5539   -9.1766    3.6305 C   0  0  2  0  0  0  0  0  0  0  0  0
    4.7848   -9.0883    4.6345 C   0  0  2  0  0  0  0  0  0  0  0  0
    5.2446  -10.0611    5.7198 C   0  0  0  0  0  0  0  0  0  0  0  0
    6.5613   -9.3949    6.2222 C   0  0  0  0  0  0  0  0  0  0  0  0
    6.5897   -7.9504    5.6637 C   0  0  0  0  0  0  0  0  0  0  0  0
    5.1284   -7.7382    5.2798 C   0  0  1  0  0  0  0  0  0  0  0  0
    4.8296   -6.6707    4.3398 N   0  0  0  0  0  0  0  0  0  0  0  0
    3.6430   -6.4895    3.6756 C   0  0  0  0  0  0  0  0  0  0  0  0
    3.9098   -6.4083    2.3102 N   0  0  0  0  0  0  0  0  0  0  0  0
    3.4537   -5.3557    1.3664 C   0  0  0  0  0  0  0  0  0  0  0  0
    2.3402   -5.3934    0.8458 O   0  0  0  0  0  0  0  0  0  0  0  0
    2.2254   -6.3233    4.4353 C   0  0  1  0  0  0  0  0  0  0  0  0
    1.0534   -6.2661    3.3896 C   0  0  0  0  0  0  0  0  0  0  0  0
    0.8288   -7.4027    2.3295 C   0  0  0  0  0  0  0  0  0  0  0  0
    0.2476   -8.7876    2.7035 C   0  0  2  0  0  0  0  0  0  0  0  0
   -0.7465   -8.8204    3.8703 C   0  0  0  0  0  0  0  0  0  0  0  0
   -0.0513   -9.4128    5.1014 C   0  0  0  0  0  0  0  0  0  0  0  0
    1.4667   -9.0563    5.1392 C   0  0  2  0  0  0  0  0  0  0  0  0
    1.7382   -7.4771    5.5115 C   0  0  1  0  0  0  0  0  0  0  0  0
    2.6063   -7.6200    6.5921 O   0  0  0  0  0  0  0  0  0  0  0  0
    0.5374   -6.9245    6.3794 C   0  0  0  0  0  0  0  0  0  0  0  0
    0.6996   -5.5651    7.0810 C   0  0  1  0  0  0  0  0  0  0  0  0
    1.1920   -5.7135    8.5300 C   0  0  0  0  0  0  0  0  0  0  0  0
    2.5748   -5.7432    8.8277 C   0  0  0  0  0  0  0  0  0  0  0  0
    3.0293   -5.9277   10.1429 C   0  0  0  0  0  0  0  0  0  0  0  0
    2.1060   -6.0582   11.1939 C   0  0  0  0  0  0  0  0  0  0  0  0
    0.7249   -6.0097   10.9188 C   0  0  0  0  0  0  0  0  0  0  0  0
    0.2724   -5.8408    9.5941 C   0  0  0  0  0  0  0  0  0  0  0  0
    1.5124   -4.5696    6.2751 C   0  0  0  0  0  0  0  0  0  0  0  0
    1.5589   -3.2416    6.7542 C   0  0  0  0  0  0  0  0  0  0  0  0
    2.3895   -2.2846    6.1497 C   0  0  0  0  0  0  0  0  0  0  0  0
    3.1984   -2.6613    5.0712 C   0  0  0  0  0  0  0  0  0  0  0  0
    3.1328   -3.9742    4.5790 C   0  0  0  0  0  0  0  0  0  0  0  0
    2.2617   -4.9394    5.1247 C   0  0  0  0  0  0  0  0  0  0  0  0
    2.2237   -9.8160    4.0162 N   0  0  2  0  0  0  0  0  0  0  0  0
    2.5146  -11.2272    4.4357 C   0  0  0  0  0  0  0  0  0  0  0  0
    1.2762   -9.9425    2.8407 C   0  0  0  0  0  0  0  0  0  0  0  0
    4.4157   -2.6852    2.4716 H   0  0  0  0  0  0  0  0  0  0  0  0
    3.0462   -2.6587    1.3543 H   0  0  0  0  0  0  0  0  0  0  0  0
    4.6274   -2.0780    0.8624 H   0  0  0  0  0  0  0  0  0  0  0  0
    4.5623   -5.1411   -1.1094 H   0  0  0  0  0  0  0  0  0  0  0  0
    5.2533   -3.5233   -1.0029 H   0  0  0  0  0  0  0  0  0  0  0  0
    3.5142   -3.7433   -0.9734 H   0  0  0  0  0  0  0  0  0  0  0  0
    5.9322   -4.6419    2.5208 H   0  0  0  0  0  0  0  0  0  0  0  0
    6.5215   -5.6308   -0.2824 H   0  0  0  0  0  0  0  0  0  0  0  0
    8.1681   -6.8306    1.6287 H   0  0  0  0  0  0  0  0  0  0  0  0
    6.6565   -8.4489    2.3968 H   0  0  0  0  0  0  0  0  0  0  0  0
    4.5789   -7.5348    0.6480 H   0  0  0  0  0  0  0  0  0  0  0  0
    3.2329   -9.0946    1.3871 H   0  0  0  0  0  0  0  0  0  0  0  0
    4.6967   -9.7982    1.8701 H   0  0  0  0  0  0  0  0  0  0  0  0
    3.0730   -8.2663    3.6285 H   0  0  0  0  0  0  0  0  0  0  0  0
    5.5873   -9.2836    3.9310 H   0  0  0  0  0  0  0  0  0  0  0  0
    4.5224  -10.1073    6.5374 H   0  0  0  0  0  0  0  0  0  0  0  0
    5.4208  -11.0696    5.3405 H   0  0  0  0  0  0  0  0  0  0  0  0
    6.5908   -9.3917    7.3127 H   0  0  0  0  0  0  0  0  0  0  0  0
    7.4415   -9.9407    5.8806 H   0  0  0  0  0  0  0  0  0  0  0  0
    6.9292   -7.2374    6.4149 H   0  0  0  0  0  0  0  0  0  0  0  0
    7.2541   -7.8641    4.8025 H   0  0  0  0  0  0  0  0  0  0  0  0
    4.7200   -7.5242    6.2514 H   0  0  0  0  0  0  0  0  0  0  0  0
    0.1032   -6.0785    3.8755 H   0  0  0  0  0  0  0  0  0  0  0  0
    1.1587   -5.3256    2.8601 H   0  0  0  0  0  0  0  0  0  0  0  0
    0.1293   -6.9812    1.6046 H   0  0  0  0  0  0  0  0  0  0  0  0
    1.7075   -7.5865    1.7277 H   0  0  0  0  0  0  0  0  0  0  0  0
   -0.3517   -9.0605    1.8373 H   0  0  0  0  0  0  0  0  0  0  0  0
   -1.1807   -7.8412    4.0649 H   0  0  0  0  0  0  0  0  0  0  0  0
   -1.6021   -9.4544    3.6171 H   0  0  0  0  0  0  0  0  0  0  0  0
   -0.6005   -9.1811    6.0087 H   0  0  0  0  0  0  0  0  0  0  0  0
   -0.1456  -10.4984    5.0553 H   0  0  0  0  0  0  0  0  0  0  0  0
    1.7539   -9.6093    6.0332 H   0  0  0  0  0  0  0  0  0  0  0  0
    3.4018   -8.0373    6.3055 H   0  0  0  0  0  0  0  0  0  0  0  0
   -0.3387   -6.8099    5.7491 H   0  0  0  0  0  0  0  0  0  0  0  0
    0.2190   -7.6399    7.1397 H   0  0  0  0  0  0  0  0  0  0  0  0
   -0.3005   -5.1340    7.1511 H   0  0  0  0  0  0  0  0  0  0  0  0
    3.3023   -5.6450    8.0381 H   0  0  0  0  0  0  0  0  0  0  0  0
    4.0895   -5.9737   10.3428 H   0  0  0  0  0  0  0  0  0  0  0  0
    2.4554   -6.1898   12.2073 H   0  0  0  0  0  0  0  0  0  0  0  0
    0.0175   -6.1026   11.7306 H   0  0  0  0  0  0  0  0  0  0  0  0
   -0.7883   -5.8021    9.3918 H   0  0  0  0  0  0  0  0  0  0  0  0
    0.9794   -2.9567    7.6189 H   0  0  0  0  0  0  0  0  0  0  0  0
    2.4279   -1.2712    6.5237 H   0  0  0  0  0  0  0  0  0  0  0  0
    3.8708   -1.9454    4.6213 H   0  0  0  0  0  0  0  0  0  0  0  0
    3.7827   -4.2426    3.7734 H   0  0  0  0  0  0  0  0  0  0  0  0
    1.6105  -11.8115    4.6124 H   0  0  0  0  0  0  0  0  0  0  0  0
    3.0702  -11.2996    5.3657 H   0  0  0  0  0  0  0  0  0  0  0  0
    3.0803  -11.7456    3.6588 H   0  0  0  0  0  0  0  0  0  0  0  0
    0.6450  -10.8208    2.9852 H   0  0  0  0  0  0  0  0  0  0  0  0
    1.7301  -10.2227    1.8999 H   0  0  0  0  0  0  0  0  0  0  0  0
    5.6584   -6.3800    3.8422 H   0  0  0  0  0  0  0  0  0  0  0  0
  1  2  1  0
  1 47  1  0
  1 48  1  0
  1 49  1  0
  2 19  1  0
  2  3  1  0
  2  4  1  0
  3 50  1  0
  3 51  1  0
  3 52  1  0
  4  5  2  3
  4 53  1  0
  5  6  1  0
  5 54  1  0
  6  7  2  3
  6 55  1  0
  7  8  1  0
  7 56  1  0
  8 18  1  0
  8  9  1  0
  8 57  1  6
  9 10  1  0
  9 58  1  0
  9 59  1  0
 10 44  1  0
 10 11  1  0
 10 60  1  1
 11 15  1  0
 11 12  1  0
 11 61  1  6
 12 13  1  0
 12 62  1  0
 12 63  1  0
 13 14  1  0
 13 64  1  0
 13 65  1  0
 14 15  1  0
 14 66  1  0
 14 67  1  0
 15 16  1  0
 15 68  1  1
 16 17  2  3
 16 97  1  0
 17 18  1  0
 17 21  1  0
 18 19  1  0
 19 20  2  0
 21 28  1  0
 21 43  1  1
 21 22  1  0
 22 23  1  0
 22 69  1  0
 22 70  1  0
 23 24  1  0
 23 71  1  0
 23 72  1  0
 24 46  1  0
 24 25  1  0
 24 73  1  6
 25 26  1  0
 25 74  1  0
 25 75  1  0
 26 27  1  0
 26 76  1  0
 26 77  1  0
 27 28  1  0
 27 44  1  0
 27 78  1  1
 28 29  1  1
 28 30  1  0
 29 79  1  0
 30 31  1  0
 30 80  1  0
 30 81  1  0
 31 32  1  0
 31 38  1  0
 31 82  1  1
 32 37  1  0
 32 33  2  0
 33 34  1  0
 33 83  1  0
 34 35  2  0
 34 84  1  0
 35 36  1  0
 35 85  1  0
 36 37  2  0
 36 86  1  0
 37 87  1  0
 38 43  2  0
 38 39  1  0
 39 40  2  0
 39 88  1  0
 40 41  1  0
 40 89  1  0
 41 42  2  0
 41 90  1  0
 42 43  1  0
 42 91  1  0
 44 45  1  1
 44 46  1  0
 45 92  1  0
 45 93  1  0
 45 94  1  0
 46 95  1  0
 46 96  1  0
M  CHG  2  16   1  44   1
M  END
>  <i_m_ct_stereo_status>  (155) 
1

>  <s_m_source_file>  (155) 
/var/tmp/pbs.5076255.sched01/tmpqm933_o1/456x1pmp19.sdf

>  <i_m_source_file_index>  (155) 
17

>  <i_lp_mmshare_version>  (155) 
48012

>  <i_f3d_flags>  (155) 
0

>  <s_epik_input>  (155) 
Tz1DMUMoW0NIM10pKFtDSDNdKS9bQ0hdPVtDSF1cW0NIXT1bQ0hdL1tDQEhdKE4xL0MyW0NAQF0zNDUpW0NIMl1bQ0hdKFtDQEhdNltDQEhdKC9OPTIpW0NIMl1bQ0gyXVtDSDJdNilbTkBAK103KFtDSDNdKVtDQEhdKFtDSDJdW0NIMl1bQ0BIXShbQ0gyXTcpW0NIMl1bQ0gyXTMpW0NAXTQoW09IXSlbQ0gyXVtDQEBIXShjOFtjSF1bY0hdW2NIXVtjSF1bY0hdOCljOWM1W2NIXVtjSF1bY0hdW2NIXTk=

>  <s_epik_cmdline>  (155) 
J2VwaWtfcHl0aG9uJywgJy1waHQnLCAnMi4wJywgJy1waCcsICc3LjAnLCAnLXRuJywgJzgnLCAnLW1hJywgJzIwMCcsICctaW1hZScsICc8aW5maWxlLm1hZT4nLCAnLW9tYWUnLCAnPG91dGZpbGUubWFlPic=

>  <r_epik_Ionization_Penalty>  (155) 
1.89798

>  <r_epik_Ionization_Penalty_Charging>  (155) 
1.89749

>  <r_epik_Ionization_Penalty_Neutral>  (155) 
0.000490901

>  <r_epik_State_Penalty>  (155) 
2.0185

>  <r_epik_Charging_Adjusted_Penalty>  (155) 
3.91599

>  <i_epik_Tot_Q>  (155) 
2

>  <i_epik_Tot_abs_Q>  (155) 
2

>  <s_epik_Chemistry_Notes>  (155) 
This compound has an imine and may undergo hydrolysis.

>  <s_lp_Force_Field>  (155) 
OPLS3e

>  <r_lp_Energy>  (155) 
296.902

>  <b_lp_Chiralities_Consistent>  (155) 
1

>  <s_lp_Variant>  (155) 
33:0-14

>  <s_i_glide_gridfile>  (155) 
pfpi4k_grid

>  <i_i_glide_lignum>  (155) 
17

>  <i_i_glide_rotatable_bonds>  (155) 
2

>  <r_i_docking_score>  (155) 
-2.53284

>  <r_i_glide_ligand_efficiency>  (155) 
-0.0550616

>  <r_i_glide_ligand_efficiency_sa>  (155) 
-0.197288

>  <r_i_glide_ligand_efficiency_ln>  (155) 
-0.524544

>  <r_i_glide_gscore>  (155) 
-2.53284

>  <r_i_glide_lipo>  (155) 
-0.498243

>  <r_i_glide_hbond>  (155) 
0

>  <r_i_glide_metal>  (155) 
-0

>  <r_i_glide_rewards>  (155) 
-0.0194047

>  <r_i_glide_evdw>  (155) 
-26.9383

>  <r_i_glide_ecoul>  (155) 
-4.7572

>  <r_i_glide_erotb>  (155) 
0.0552374

>  <r_i_glide_esite>  (155) 
-0.00992849

>  <r_i_glide_emodel>  (155) 
-38.4654

>  <r_i_glide_energy>  (155) 
-31.6955

>  <r_i_glide_einternal>  (155) 
0.63933

>  <r_i_glide_intrahb_reward>  (155) 
-0

>  <i_i_glide_confnum>  (155) 
2

>  <i_i_glide_posenum>  (155) 
12

>  <r_i_glide_eff_state_penalty>  (155) 
0

>  <ligand_id>  (155) 
33

>  <original_smiles>  (155) 
CC1(C)C=CC=CC2CC3C4CCCC4N=C(N2C1=O)C12CCC4CCC(C1(O)CC(c1ccccc1)c1ccccc12)[N+]3(C)C4

>  <smiles>  (155) 
[H]OC12C([H])([H])C([H])(c3c([H])c([H])c([H])c([H])c3[H])c3c([H])c([H])c([H])c([H])c3C13C1=[N+]([H])C4([H])C([H])([H])C([H])([H])C([H])([H])C4([H])C([H])(C([H])([H])C4([H])C([H])=C([H])C([H])=C([H])C(C([H])([H])[H])(C([H])([H])[H])C(=O)N14)[N+]1(C([H])([H])[H])C([H])([H])C([H])(C([H])([H])C3([H])[H])C([H])([H])C([H])([H])C21[H]

$$$$
33:13:2
     RDKit          3D

 97105  0  0  1  0  0  0  0  0999 V2000
    3.2998   -4.9337    9.3946 C   0  0  0  0  0  0  0  0  0  0  0  0
    2.9717   -6.4458    9.2997 C   0  0  0  0  0  0  0  0  0  0  0  0
    3.2954   -7.0265   10.7055 C   0  0  0  0  0  0  0  0  0  0  0  0
    1.5173   -6.6392    8.9338 C   0  0  0  0  0  0  0  0  0  0  0  0
    0.8334   -7.7313    9.2982 C   0  0  0  0  0  0  0  0  0  0  0  0
    0.2146   -8.4993    8.2554 C   0  0  0  0  0  0  0  0  0  0  0  0
    0.9655   -9.0637    7.2851 C   0  0  0  0  0  0  0  0  0  0  0  0
    2.5138   -9.0905    7.1738 C   0  0  1  0  0  0  0  0  0  0  0  0
    3.0410  -10.1450    6.1078 C   0  0  0  0  0  0  0  0  0  0  0  0
    3.2294   -9.6384    4.6069 C   0  0  2  0  0  0  0  0  0  0  0  0
    1.8249   -9.1929    3.9912 C   0  0  2  0  0  0  0  0  0  0  0  0
    1.1442   -9.6205    2.6902 C   0  0  0  0  0  0  0  0  0  0  0  0
   -0.2151   -8.8634    2.7708 C   0  0  0  0  0  0  0  0  0  0  0  0
   -0.0844   -7.8052    3.8915 C   0  0  0  0  0  0  0  0  0  0  0  0
    1.4287   -7.7178    4.0646 C   0  0  1  0  0  0  0  0  0  0  0  0
    1.9285   -7.1414    5.2998 N   0  0  0  0  0  0  0  0  0  0  0  0
    3.2295   -7.2081    5.7513 C   0  0  0  0  0  0  0  0  0  0  0  0
    3.2119   -7.7406    7.0509 N   0  0  0  0  0  0  0  0  0  0  0  0
    3.8684   -7.1848    8.2505 C   0  0  0  0  0  0  0  0  0  0  0  0
    5.0486   -7.3995    8.5019 O   0  0  0  0  0  0  0  0  0  0  0  0
    4.4826   -6.6603    4.9090 C   0  0  1  0  0  0  0  0  0  0  0  0
    5.8290   -7.0170    5.6360 C   0  0  0  0  0  0  0  0  0  0  0  0
    6.2014   -8.4889    6.0383 C   0  0  0  0  0  0  0  0  0  0  0  0
    6.6498   -9.5471    5.0031 C   0  0  2  0  0  0  0  0  0  0  0  0
    7.4216   -9.0395    3.7755 C   0  0  0  0  0  0  0  0  0  0  0  0
    6.4851   -9.0576    2.5572 C   0  0  0  0  0  0  0  0  0  0  0  0
    4.9893   -8.7917    2.9694 C   0  0  2  0  0  0  0  0  0  0  0  0
    4.7223   -7.2084    3.3690 C   0  0  1  0  0  0  0  0  0  0  0  0
    3.6610   -6.8704    2.5304 O   0  0  0  0  0  0  0  0  0  0  0  0
    5.7654   -6.2938    2.6257 C   0  0  0  0  0  0  0  0  0  0  0  0
    5.5289   -4.7727    2.6235 C   0  0  1  0  0  0  0  0  0  0  0  0
    4.8037   -4.3163    1.3541 C   0  0  0  0  0  0  0  0  0  0  0  0
    5.4982   -4.3493    0.1182 C   0  0  0  0  0  0  0  0  0  0  0  0
    4.8721   -3.9351   -1.0760 C   0  0  0  0  0  0  0  0  0  0  0  0
    3.5407   -3.4731   -1.0505 C   0  0  0  0  0  0  0  0  0  0  0  0
    2.8388   -3.4392    0.1703 C   0  0  0  0  0  0  0  0  0  0  0  0
    3.4591   -3.8644    1.3628 C   0  0  0  0  0  0  0  0  0  0  0  0
    4.9155   -4.2621    3.9116 C   0  0  0  0  0  0  0  0  0  0  0  0
    4.8434   -2.8561    4.0773 C   0  0  0  0  0  0  0  0  0  0  0  0
    4.1644   -2.2935    5.1760 C   0  0  0  0  0  0  0  0  0  0  0  0
    3.5447   -3.1378    6.1102 C   0  0  0  0  0  0  0  0  0  0  0  0
    3.6510   -4.5358    5.9639 C   0  0  0  0  0  0  0  0  0  0  0  0
    4.3780   -5.1252    4.9013 C   0  0  0  0  0  0  0  0  0  0  0  0
    4.4282   -9.9895    3.7599 N   0  0  2  0  0  0  0  0  0  0  0  0
    4.0159  -11.0718    2.8593 C   0  0  0  0  0  0  0  0  0  0  0  0
    5.5583  -10.5575    4.5617 C   0  0  0  0  0  0  0  0  0  0  0  0
    2.8277   -4.3476    8.6099 H   0  0  0  0  0  0  0  0  0  0  0  0
    4.3769   -4.7501    9.3588 H   0  0  0  0  0  0  0  0  0  0  0  0
    2.9370   -4.5079   10.3329 H   0  0  0  0  0  0  0  0  0  0  0  0
    3.2524   -8.1163   10.7324 H   0  0  0  0  0  0  0  0  0  0  0  0
    2.6084   -6.6457   11.4642 H   0  0  0  0  0  0  0  0  0  0  0  0
    4.3019   -6.7455   11.0274 H   0  0  0  0  0  0  0  0  0  0  0  0
    1.2535   -6.1681    7.9980 H   0  0  0  0  0  0  0  0  0  0  0  0
    1.1368   -8.3021   10.1601 H   0  0  0  0  0  0  0  0  0  0  0  0
   -0.8551   -8.6415    8.2419 H   0  0  0  0  0  0  0  0  0  0  0  0
    0.4251   -9.6727    6.5787 H   0  0  0  0  0  0  0  0  0  0  0  0
    2.8126   -9.5124    8.1376 H   0  0  0  0  0  0  0  0  0  0  0  0
    3.9407  -10.5283    6.5709 H   0  0  0  0  0  0  0  0  0  0  0  0
    2.3895  -11.0154    6.0765 H   0  0  0  0  0  0  0  0  0  0  0  0
    3.7242   -8.7976    4.9239 H   0  0  0  0  0  0  0  0  0  0  0  0
    1.1596   -9.7078    4.6695 H   0  0  0  0  0  0  0  0  0  0  0  0
    1.7030   -9.2713    1.8186 H   0  0  0  0  0  0  0  0  0  0  0  0
    1.0008  -10.7000    2.6166 H   0  0  0  0  0  0  0  0  0  0  0  0
   -0.4443   -8.3938    1.8130 H   0  0  0  0  0  0  0  0  0  0  0  0
   -1.0367   -9.5442    3.0003 H   0  0  0  0  0  0  0  0  0  0  0  0
   -0.5275   -6.8516    3.6054 H   0  0  0  0  0  0  0  0  0  0  0  0
   -0.5738   -8.1324    4.8111 H   0  0  0  0  0  0  0  0  0  0  0  0
    1.6618   -7.1031    3.2148 H   0  0  0  0  0  0  0  0  0  0  0  0
    6.6845   -6.5946    5.1240 H   0  0  0  0  0  0  0  0  0  0  0  0
    5.8592   -6.4133    6.5372 H   0  0  0  0  0  0  0  0  0  0  0  0
    7.0358   -8.3854    6.7336 H   0  0  0  0  0  0  0  0  0  0  0  0
    5.4405   -8.9527    6.6511 H   0  0  0  0  0  0  0  0  0  0  0  0
    7.3835  -10.1490    5.5456 H   0  0  0  0  0  0  0  0  0  0  0  0
    7.8432   -8.0479    3.9532 H   0  0  0  0  0  0  0  0  0  0  0  0
    8.2801   -9.6773    3.5672 H   0  0  0  0  0  0  0  0  0  0  0  0
    6.8771   -8.4285    1.7636 H   0  0  0  0  0  0  0  0  0  0  0  0
    6.5561  -10.0517    2.1055 H   0  0  0  0  0  0  0  0  0  0  0  0
    4.5103   -8.8862    1.9849 H   0  0  0  0  0  0  0  0  0  0  0  0
    3.5564   -5.9365    2.5448 H   0  0  0  0  0  0  0  0  0  0  0  0
    6.7444   -6.4210    3.0799 H   0  0  0  0  0  0  0  0  0  0  0  0
    5.9187   -6.6007    1.5947 H   0  0  0  0  0  0  0  0  0  0  0  0
    6.5110   -4.3089    2.5494 H   0  0  0  0  0  0  0  0  0  0  0  0
    6.5140   -4.7023    0.0824 H   0  0  0  0  0  0  0  0  0  0  0  0
    5.4028   -3.9880   -2.0112 H   0  0  0  0  0  0  0  0  0  0  0  0
    3.0526   -3.1694   -1.9588 H   0  0  0  0  0  0  0  0  0  0  0  0
    1.8263   -3.0781    0.1847 H   0  0  0  0  0  0  0  0  0  0  0  0
    2.8957   -3.8174    2.2775 H   0  0  0  0  0  0  0  0  0  0  0  0
    5.2686   -2.2026    3.3384 H   0  0  0  0  0  0  0  0  0  0  0  0
    4.0962   -1.2237    5.2891 H   0  0  0  0  0  0  0  0  0  0  0  0
    2.9932   -2.7214    6.9356 H   0  0  0  0  0  0  0  0  0  0  0  0
    3.1517   -5.1535    6.6735 H   0  0  0  0  0  0  0  0  0  0  0  0
    4.8616  -11.4803    2.2902 H   0  0  0  0  0  0  0  0  0  0  0  0
    3.2990  -10.7795    2.0900 H   0  0  0  0  0  0  0  0  0  0  0  0
    3.5831  -11.9215    3.4047 H   0  0  0  0  0  0  0  0  0  0  0  0
    6.1283  -11.2662    3.9514 H   0  0  0  0  0  0  0  0  0  0  0  0
    5.2843  -11.2502    5.3603 H   0  0  0  0  0  0  0  0  0  0  0  0
    1.2206   -7.1508    6.0160 H   0  0  0  0  0  0  0  0  0  0  0  0
  1  2  1  0
  1 47  1  0
  1 48  1  0
  1 49  1  0
  2 19  1  0
  2  3  1  0
  2  4  1  0
  3 50  1  0
  3 51  1  0
  3 52  1  0
  4  5  2  3
  4 53  1  0
  5  6  1  0
  5 54  1  0
  6  7  2  3
  6 55  1  0
  7  8  1  0
  7 56  1  0
  8 18  1  0
  8  9  1  0
  8 57  1  1
  9 10  1  0
  9 58  1  0
  9 59  1  0
 10 44  1  0
 10 11  1  0
 10 60  1  1
 11 15  1  0
 11 12  1  0
 11 61  1  1
 12 13  1  0
 12 62  1  0
 12 63  1  0
 13 14  1  0
 13 64  1  0
 13 65  1  0
 14 15  1  0
 14 66  1  0
 14 67  1  0
 15 16  1  0
 15 68  1  6
 16 17  2  3
 16 97  1  0
 17 18  1  0
 17 21  1  0
 18 19  1  0
 19 20  2  0
 21 28  1  0
 21 43  1  6
 21 22  1  0
 22 23  1  0
 22 69  1  0
 22 70  1  0
 23 24  1  0
 23 71  1  0
 23 72  1  0
 24 46  1  0
 24 25  1  0
 24 73  1  1
 25 26  1  0
 25 74  1  0
 25 75  1  0
 26 27  1  0
 26 76  1  0
 26 77  1  0
 27 28  1  0
 27 44  1  0
 27 78  1  6
 28 29  1  6
 28 30  1  0
 29 79  1  0
 30 31  1  0
 30 80  1  0
 30 81  1  0
 31 32  1  0
 31 38  1  0
 31 82  1  6
 32 37  1  0
 32 33  2  0
 33 34  1  0
 33 83  1  0
 34 35  2  0
 34 84  1  0
 35 36  1  0
 35 85  1  0
 36 37  2  0
 36 86  1  0
 37 87  1  0
 38 43  2  0
 38 39  1  0
 39 40  2  0
 39 88  1  0
 40 41  1  0
 40 89  1  0
 41 42  2  0
 41 90  1  0
 42 43  1  0
 42 91  1  0
 44 45  1  6
 44 46  1  0
 45 92  1  0
 45 93  1  0
 45 94  1  0
 46 95  1  0
 46 96  1  0
M  CHG  2  16   1  44   1
M  END
>  <i_m_ct_stereo_status>  (156) 
1

>  <s_m_source_file>  (156) 
/var/tmp/pbs.5076255.sched01/tmpqm933_o1/456x1pmp19.sdf

>  <i_m_source_file_index>  (156) 
17

>  <i_lp_mmshare_version>  (156) 
48012

>  <i_f3d_flags>  (156) 
0

>  <s_epik_input>  (156) 
Tz1DMUMoW0NIM10pKFtDSDNdKS9bQ0hdPVtDSF1cW0NIXT1bQ0hdL1tDQEhdKE4xL0MyW0NAQF0zNDUpW0NIMl1bQ0hdKFtDQEhdNltDQEhdKC9OPTIpW0NIMl1bQ0gyXVtDSDJdNilbTkBAK103KFtDSDNdKVtDQEhdKFtDSDJdW0NIMl1bQ0BIXShbQ0gyXTcpW0NIMl1bQ0gyXTMpW0NAXTQoW09IXSlbQ0gyXVtDQEBIXShjOFtjSF1bY0hdW2NIXVtjSF1bY0hdOCljOWM1W2NIXVtjSF1bY0hdW2NIXTk=

>  <s_epik_cmdline>  (156) 
J2VwaWtfcHl0aG9uJywgJy1waHQnLCAnMi4wJywgJy1waCcsICc3LjAnLCAnLXRuJywgJzgnLCAnLW1hJywgJzIwMCcsICctaW1hZScsICc8aW5maWxlLm1hZT4nLCAnLW9tYWUnLCAnPG91dGZpbGUubWFlPic=

>  <r_epik_Ionization_Penalty>  (156) 
1.89798

>  <r_epik_Ionization_Penalty_Charging>  (156) 
1.89749

>  <r_epik_Ionization_Penalty_Neutral>  (156) 
0.000490901

>  <r_epik_State_Penalty>  (156) 
2.0185

>  <r_epik_Charging_Adjusted_Penalty>  (156) 
3.91599

>  <i_epik_Tot_Q>  (156) 
2

>  <i_epik_Tot_abs_Q>  (156) 
2

>  <s_epik_Chemistry_Notes>  (156) 
This compound has an imine and may undergo hydrolysis.

>  <s_lp_Force_Field>  (156) 
OPLS3e

>  <r_lp_Energy>  (156) 
296.902

>  <b_lp_Chiralities_Consistent>  (156) 
1

>  <s_lp_Variant>  (156) 
33:0-14

>  <s_i_glide_gridfile>  (156) 
pfpi4k_grid

>  <i_i_glide_lignum>  (156) 
17

>  <i_i_glide_rotatable_bonds>  (156) 
2

>  <r_i_docking_score>  (156) 
-2.15081

>  <r_i_glide_ligand_efficiency>  (156) 
-0.0467568

>  <r_i_glide_ligand_efficiency_sa>  (156) 
-0.167532

>  <r_i_glide_ligand_efficiency_ln>  (156) 
-0.445429

>  <r_i_glide_gscore>  (156) 
-2.15081

>  <r_i_glide_lipo>  (156) 
-0.333794

>  <r_i_glide_hbond>  (156) 
0

>  <r_i_glide_metal>  (156) 
-0

>  <r_i_glide_rewards>  (156) 
0

>  <r_i_glide_evdw>  (156) 
-24.7158

>  <r_i_glide_ecoul>  (156) 
-4.15346

>  <r_i_glide_erotb>  (156) 
0.0552374

>  <r_i_glide_esite>  (156) 
-0.0134492

>  <r_i_glide_emodel>  (156) 
-34.7221

>  <r_i_glide_energy>  (156) 
-28.8693

>  <r_i_glide_einternal>  (156) 
0.21504

>  <r_i_glide_intrahb_reward>  (156) 
-0

>  <i_i_glide_confnum>  (156) 
4

>  <i_i_glide_posenum>  (156) 
9

>  <r_i_glide_eff_state_penalty>  (156) 
0

>  <ligand_id>  (156) 
33

>  <original_smiles>  (156) 
CC1(C)C=CC=CC2CC3C4CCCC4N=C(N2C1=O)C12CCC4CCC(C1(O)CC(c1ccccc1)c1ccccc12)[N+]3(C)C4

>  <smiles>  (156) 
[H]OC12C([H])([H])C([H])(c3c([H])c([H])c([H])c([H])c3[H])c3c([H])c([H])c([H])c([H])c3C13C1=[N+]([H])C4([H])C([H])([H])C([H])([H])C([H])([H])C4([H])C([H])(C([H])([H])C4([H])C([H])=C([H])C([H])=C([H])C(C([H])([H])[H])(C([H])([H])[H])C(=O)N14)[N+]1(C([H])([H])[H])C([H])([H])C([H])(C([H])([H])C3([H])[H])C([H])([H])C([H])([H])C21[H]

$$$$
33:14:0
     RDKit          3D

 97105  0  0  1  0  0  0  0  0999 V2000
    1.1852   -5.5818    8.5045 C   0  0  0  0  0  0  0  0  0  0  0  0
    2.2895   -6.3178    9.3045 C   0  0  0  0  0  0  0  0  0  0  0  0
    3.1386   -5.2041    9.9726 C   0  0  0  0  0  0  0  0  0  0  0  0
    1.5644   -7.0791   10.4428 C   0  0  0  0  0  0  0  0  0  0  0  0
    0.7516   -8.1562   10.3226 C   0  0  0  0  0  0  0  0  0  0  0  0
    0.6158   -8.8270    9.0537 C   0  0  0  0  0  0  0  0  0  0  0  0
    1.6967   -9.4891    8.6239 C   0  0  0  0  0  0  0  0  0  0  0  0
    2.3157   -9.2578    7.2611 C   0  0  1  0  0  0  0  0  0  0  0  0
    1.4897   -9.8178    6.0514 C   0  0  0  0  0  0  0  0  0  0  0  0
    1.9280   -9.3039    4.6318 C   0  0  2  0  0  0  0  0  0  0  0  0
    0.8345   -8.3184    4.0239 C   0  0  2  0  0  0  0  0  0  0  0  0
    0.1848   -8.2787    2.6427 C   0  0  0  0  0  0  0  0  0  0  0  0
   -0.8035   -7.0780    2.7958 C   0  0  0  0  0  0  0  0  0  0  0  0
   -0.4882   -6.3673    4.1453 C   0  0  0  0  0  0  0  0  0  0  0  0
    0.9373   -6.8288    4.3850 C   0  0  1  0  0  0  0  0  0  0  0  0
    1.5129   -6.7287    5.7043 N   0  0  0  0  0  0  0  0  0  0  0  0
    2.7897   -7.1396    5.9860 C   0  0  0  0  0  0  0  0  0  0  0  0
    2.8010   -7.8103    7.1895 N   0  0  0  0  0  0  0  0  0  0  0  0
    3.2804   -7.1883    8.4324 C   0  0  0  0  0  0  0  0  0  0  0  0
    4.3800   -7.5191    8.8680 O   0  0  0  0  0  0  0  0  0  0  0  0
    4.0835   -6.9117    5.0281 C   0  0  1  0  0  0  0  0  0  0  0  0
    5.3527   -7.5304    5.7303 C   0  0  0  0  0  0  0  0  0  0  0  0
    5.5386   -9.0463    6.0519 C   0  0  0  0  0  0  0  0  0  0  0  0
    5.3889  -10.1683    4.9878 C   0  0  2  0  0  0  0  0  0  0  0  0
    6.1820   -9.9494    3.6938 C   0  0  0  0  0  0  0  0  0  0  0  0
    5.2090   -9.7291    2.5388 C   0  0  0  0  0  0  0  0  0  0  0  0
    3.8984   -9.0202    3.0060 C   0  0  2  0  0  0  0  0  0  0  0  0
    4.1032   -7.4601    3.4571 C   0  0  1  0  0  0  0  0  0  0  0  0
    3.1337   -6.8715    2.6373 O   0  0  0  0  0  0  0  0  0  0  0  0
    5.3334   -6.8391    2.6993 C   0  0  0  0  0  0  0  0  0  0  0  0
    5.4505   -5.3055    2.6885 C   0  0  1  0  0  0  0  0  0  0  0  0
    4.8363   -4.6887    1.4238 C   0  0  0  0  0  0  0  0  0  0  0  0
    5.5387   -4.7833    0.2027 C   0  0  0  0  0  0  0  0  0  0  0  0
    5.0016   -4.2417   -0.9777 C   0  0  0  0  0  0  0  0  0  0  0  0
    3.7516   -3.5967   -0.9519 C   0  0  0  0  0  0  0  0  0  0  0  0
    3.0441   -3.4940    0.2584 C   0  0  0  0  0  0  0  0  0  0  0  0
    3.5795   -4.0402    1.4370 C   0  0  0  0  0  0  0  0  0  0  0  0
    5.0010   -4.6602    3.9887 C   0  0  0  0  0  0  0  0  0  0  0  0
    5.2461   -3.2753    4.1374 C   0  0  0  0  0  0  0  0  0  0  0  0
    4.8529   -2.5862    5.2943 C   0  0  0  0  0  0  0  0  0  0  0  0
    4.2046   -3.2821    6.3172 C   0  0  0  0  0  0  0  0  0  0  0  0
    3.9741   -4.6582    6.1758 C   0  0  0  0  0  0  0  0  0  0  0  0
    4.3625   -5.3843    5.0311 C   0  0  0  0  0  0  0  0  0  0  0  0
    3.0305   -9.9839    3.8379 N   0  0  2  0  0  0  0  0  0  0  0  0
    2.3229  -10.9667    2.9538 C   0  0  0  0  0  0  0  0  0  0  0  0
    3.9775  -10.7818    4.7232 C   0  0  0  0  0  0  0  0  0  0  0  0
    0.4813   -6.2632    8.0327 H   0  0  0  0  0  0  0  0  0  0  0  0
    1.5714   -4.9013    7.7500 H   0  0  0  0  0  0  0  0  0  0  0  0
    0.5866   -4.9638    9.1763 H   0  0  0  0  0  0  0  0  0  0  0  0
    3.8921   -5.6130   10.6496 H   0  0  0  0  0  0  0  0  0  0  0  0
    2.5188   -4.5230   10.5597 H   0  0  0  0  0  0  0  0  0  0  0  0
    3.6635   -4.5949    9.2352 H   0  0  0  0  0  0  0  0  0  0  0  0
    1.6657   -6.6477   11.4304 H   0  0  0  0  0  0  0  0  0  0  0  0
    0.2832   -8.5730   11.2038 H   0  0  0  0  0  0  0  0  0  0  0  0
   -0.0641   -8.4089    8.3276 H   0  0  0  0  0  0  0  0  0  0  0  0
    2.4353   -9.7933    9.3603 H   0  0  0  0  0  0  0  0  0  0  0  0
    3.1736   -9.9127    7.3318 H   0  0  0  0  0  0  0  0  0  0  0  0
    1.5205  -10.9033    6.0496 H   0  0  0  0  0  0  0  0  0  0  0  0
    0.4410   -9.6286    6.2542 H   0  0  0  0  0  0  0  0  0  0  0  0
    2.6896   -8.7085    4.9830 H   0  0  0  0  0  0  0  0  0  0  0  0
   -0.0459   -8.6607    4.5623 H   0  0  0  0  0  0  0  0  0  0  0  0
    0.9127   -8.0743    1.8571 H   0  0  0  0  0  0  0  0  0  0  0  0
   -0.3435   -9.2011    2.3948 H   0  0  0  0  0  0  0  0  0  0  0  0
   -0.6669   -6.4001    1.9535 H   0  0  0  0  0  0  0  0  0  0  0  0
   -1.8436   -7.4083    2.7854 H   0  0  0  0  0  0  0  0  0  0  0  0
   -0.5450   -5.2824    4.0853 H   0  0  0  0  0  0  0  0  0  0  0  0
   -1.1572   -6.6891    4.9447 H   0  0  0  0  0  0  0  0  0  0  0  0
    1.4760   -6.1466    3.7556 H   0  0  0  0  0  0  0  0  0  0  0  0
    6.2550   -7.2212    5.2096 H   0  0  0  0  0  0  0  0  0  0  0  0
    5.4803   -7.0184    6.6813 H   0  0  0  0  0  0  0  0  0  0  0  0
    6.5791   -9.1180    6.3822 H   0  0  0  0  0  0  0  0  0  0  0  0
    5.0356   -9.3219    6.9664 H   0  0  0  0  0  0  0  0  0  0  0  0
    5.9142  -10.9941    5.4608 H   0  0  0  0  0  0  0  0  0  0  0  0
    6.8750   -9.1150    3.8055 H   0  0  0  0  0  0  0  0  0  0  0  0
    6.8102  -10.8170    3.4647 H   0  0  0  0  0  0  0  0  0  0  0  0
    5.7031   -9.2373    1.7082 H   0  0  0  0  0  0  0  0  0  0  0  0
    4.9692  -10.7088    2.1255 H   0  0  0  0  0  0  0  0  0  0  0  0
    3.3652   -8.9919    2.0542 H   0  0  0  0  0  0  0  0  0  0  0  0
    3.3249   -7.0725    1.7293 H   0  0  0  0  0  0  0  0  0  0  0  0
    6.2533   -7.1949    3.1513 H   0  0  0  0  0  0  0  0  0  0  0  0
    5.4150   -7.1773    1.6659 H   0  0  0  0  0  0  0  0  0  0  0  0
    6.5166   -5.0797    2.6226 H   0  0  0  0  0  0  0  0  0  0  0  0
    6.4945   -5.2852    0.1683 H   0  0  0  0  0  0  0  0  0  0  0  0
    5.5343   -4.3298   -1.9123 H   0  0  0  0  0  0  0  0  0  0  0  0
    3.3309   -3.1953   -1.8624 H   0  0  0  0  0  0  0  0  0  0  0  0
    2.0885   -2.9924    0.2714 H   0  0  0  0  0  0  0  0  0  0  0  0
    3.0189   -3.9581    2.3568 H   0  0  0  0  0  0  0  0  0  0  0  0
    5.7461   -2.7319    3.3518 H   0  0  0  0  0  0  0  0  0  0  0  0
    5.0521   -1.5296    5.3988 H   0  0  0  0  0  0  0  0  0  0  0  0
    3.8891   -2.7743    7.2167 H   0  0  0  0  0  0  0  0  0  0  0  0
    3.4936   -5.1573    6.9803 H   0  0  0  0  0  0  0  0  0  0  0  0
    3.0129  -11.5732    2.3692 H   0  0  0  0  0  0  0  0  0  0  0  0
    1.6502  -10.4752    2.2527 H   0  0  0  0  0  0  0  0  0  0  0  0
    1.7281  -11.6583    3.5536 H   0  0  0  0  0  0  0  0  0  0  0  0
    4.1926  -11.7247    4.2169 H   0  0  0  0  0  0  0  0  0  0  0  0
    3.5550  -11.1469    5.6507 H   0  0  0  0  0  0  0  0  0  0  0  0
    0.8387   -6.7508    6.4518 H   0  0  0  0  0  0  0  0  0  0  0  0
  1  2  1  0
  1 47  1  0
  1 48  1  0
  1 49  1  0
  2 19  1  0
  2  3  1  0
  2  4  1  0
  3 50  1  0
  3 51  1  0
  3 52  1  0
  4  5  2  3
  4 53  1  0
  5  6  1  0
  5 54  1  0
  6  7  2  3
  6 55  1  0
  7  8  1  0
  7 56  1  0
  8 18  1  0
  8  9  1  0
  8 57  1  1
  9 10  1  0
  9 58  1  0
  9 59  1  0
 10 44  1  0
 10 11  1  0
 10 60  1  1
 11 15  1  0
 11 12  1  0
 11 61  1  1
 12 13  1  0
 12 62  1  0
 12 63  1  0
 13 14  1  0
 13 64  1  0
 13 65  1  0
 14 15  1  0
 14 66  1  0
 14 67  1  0
 15 16  1  0
 15 68  1  6
 16 17  2  3
 16 97  1  0
 17 18  1  0
 17 21  1  0
 18 19  1  0
 19 20  2  0
 21 28  1  0
 21 43  1  6
 21 22  1  0
 22 23  1  0
 22 69  1  0
 22 70  1  0
 23 24  1  0
 23 71  1  0
 23 72  1  0
 24 46  1  0
 24 25  1  0
 24 73  1  1
 25 26  1  0
 25 74  1  0
 25 75  1  0
 26 27  1  0
 26 76  1  0
 26 77  1  0
 27 28  1  0
 27 44  1  0
 27 78  1  6
 28 29  1  6
 28 30  1  0
 29 79  1  0
 30 31  1  0
 30 80  1  0
 30 81  1  0
 31 32  1  0
 31 38  1  0
 31 82  1  6
 32 37  1  0
 32 33  2  0
 33 34  1  0
 33 83  1  0
 34 35  2  0
 34 84  1  0
 35 36  1  0
 35 85  1  0
 36 37  2  0
 36 86  1  0
 37 87  1  0
 38 43  2  0
 38 39  1  0
 39 40  2  0
 39 88  1  0
 40 41  1  0
 40 89  1  0
 41 42  2  0
 41 90  1  0
 42 43  1  0
 42 91  1  0
 44 45  1  6
 44 46  1  0
 45 92  1  0
 45 93  1  0
 45 94  1  0
 46 95  1  0
 46 96  1  0
M  CHG  2  16   1  44   1
M  END
>  <i_m_ct_stereo_status>  (157) 
1

>  <s_m_source_file>  (157) 
/var/tmp/pbs.5076255.sched01/tmpqm933_o1/456x1pmp19.sdf

>  <i_m_source_file_index>  (157) 
18

>  <i_lp_mmshare_version>  (157) 
48012

>  <i_f3d_flags>  (157) 
0

>  <s_epik_input>  (157) 
Tz1DMUMoW0NIM10pKFtDSDNdKS9bQ0hdPVtDSF1cW0NIXT1bQ0hdL1tDQEhdKE4xL0MyW0NAQF0zNDUpW0NIMl1bQ0hdKFtDQEhdNltDQEhdKC9OPTIpW0NIMl1bQ0gyXVtDSDJdNilbTkBAK103KFtDSDNdKVtDQEhdKFtDSDJdW0NIMl1bQ0BIXShbQ0gyXTcpW0NIMl1bQ0gyXTMpW0NAXTQoW09IXSlbQ0gyXVtDQEBIXShjOFtjSF1bY0hdW2NIXVtjSF1bY0hdOCljOWM1W2NIXVtjSF1bY0hdW2NIXTk=

>  <s_epik_cmdline>  (157) 
J2VwaWtfcHl0aG9uJywgJy1waHQnLCAnMi4wJywgJy1waCcsICc3LjAnLCAnLXRuJywgJzgnLCAnLW1hJywgJzIwMCcsICctaW1hZScsICc8aW5maWxlLm1hZT4nLCAnLW9tYWUnLCAnPG91dGZpbGUubWFlPic=

>  <r_epik_Ionization_Penalty>  (157) 
1.89798

>  <r_epik_Ionization_Penalty_Charging>  (157) 
1.89749

>  <r_epik_Ionization_Penalty_Neutral>  (157) 
0.000490901

>  <r_epik_State_Penalty>  (157) 
2.0185

>  <r_epik_Charging_Adjusted_Penalty>  (157) 
3.91599

>  <i_epik_Tot_Q>  (157) 
2

>  <i_epik_Tot_abs_Q>  (157) 
2

>  <s_epik_Chemistry_Notes>  (157) 
This compound has an imine and may undergo hydrolysis.

>  <s_lp_Force_Field>  (157) 
OPLS3e

>  <r_lp_Energy>  (157) 
304.182

>  <b_lp_Chiralities_Consistent>  (157) 
1

>  <s_lp_Variant>  (157) 
33:0-15

>  <s_i_glide_gridfile>  (157) 
pfpi4k_grid

>  <i_i_glide_lignum>  (157) 
18

>  <i_i_glide_rotatable_bonds>  (157) 
2

>  <r_i_docking_score>  (157) 
-1.9969

>  <r_i_glide_ligand_efficiency>  (157) 
-0.0434108

>  <r_i_glide_ligand_efficiency_sa>  (157) 
-0.155543

>  <r_i_glide_ligand_efficiency_ln>  (157) 
-0.413552

>  <r_i_glide_gscore>  (157) 
-1.9969

>  <r_i_glide_lipo>  (157) 
-0.204658

>  <r_i_glide_hbond>  (157) 
0

>  <r_i_glide_metal>  (157) 
-0

>  <r_i_glide_rewards>  (157) 
0

>  <r_i_glide_evdw>  (157) 
-24.3873

>  <r_i_glide_ecoul>  (157) 
-4.07324

>  <r_i_glide_erotb>  (157) 
0.0552374

>  <r_i_glide_esite>  (157) 
-0.0171241

>  <r_i_glide_emodel>  (157) 
-32.7376

>  <r_i_glide_energy>  (157) 
-28.4606

>  <r_i_glide_einternal>  (157) 
0.0309835

>  <r_i_glide_intrahb_reward>  (157) 
-0

>  <i_i_glide_confnum>  (157) 
6

>  <i_i_glide_posenum>  (157) 
1

>  <r_i_glide_eff_state_penalty>  (157) 
0

>  <ligand_id>  (157) 
33

>  <original_smiles>  (157) 
CC1(C)C=CC=CC2CC3C4CCCC4N=C(N2C1=O)C12CCC4CCC(C1(O)CC(c1ccccc1)c1ccccc12)[N+]3(C)C4

>  <smiles>  (157) 
[H]OC12C([H])([H])C([H])(c3c([H])c([H])c([H])c([H])c3[H])c3c([H])c([H])c([H])c([H])c3C13C1=[N+]([H])C4([H])C([H])([H])C([H])([H])C([H])([H])C4([H])C([H])(C([H])([H])C4([H])C([H])=C([H])C([H])=C([H])C(C([H])([H])[H])(C([H])([H])[H])C(=O)N14)[N+]1(C([H])([H])[H])C([H])([H])C([H])(C([H])([H])C3([H])[H])C([H])([H])C([H])([H])C21[H]

$$$$
33:14:1
     RDKit          3D

 97105  0  0  1  0  0  0  0  0999 V2000
   -1.5679    1.2773    7.0021 C   0  0  0  0  0  0  0  0  0  0  0  0
   -1.0151    2.6877    7.3346 C   0  0  0  0  0  0  0  0  0  0  0  0
   -1.5731    3.6163    6.2152 C   0  0  0  0  0  0  0  0  0  0  0  0
   -1.6905    3.1180    8.6534 C   0  0  0  0  0  0  0  0  0  0  0  0
   -1.4626    2.6146    9.8934 C   0  0  0  0  0  0  0  0  0  0  0  0
   -0.3865    1.6771   10.1172 C   0  0  0  0  0  0  0  0  0  0  0  0
    0.8563    2.1644   10.0154 C   0  0  0  0  0  0  0  0  0  0  0  0
    1.8920    1.5586    9.0846 C   0  0  1  0  0  0  0  0  0  0  0  0
    2.4733    0.1778    9.5629 C   0  0  0  0  0  0  0  0  0  0  0  0
    3.3088   -0.6181    8.4770 C   0  0  2  0  0  0  0  0  0  0  0  0
    2.4875   -1.9176    8.0128 C   0  0  2  0  0  0  0  0  0  0  0  0
    2.9381   -3.3657    7.8583 C   0  0  0  0  0  0  0  0  0  0  0  0
    1.6126   -4.0580    7.4009 C   0  0  0  0  0  0  0  0  0  0  0  0
    0.5759   -2.9505    7.0867 C   0  0  0  0  0  0  0  0  0  0  0  0
    1.4875   -1.7585    6.8533 C   0  0  1  0  0  0  0  0  0  0  0  0
    0.9593   -0.4169    6.9079 N   0  0  0  0  0  0  0  0  0  0  0  0
    1.7477    0.7000    6.7170 C   0  0  0  0  0  0  0  0  0  0  0  0
    1.3801    1.6649    7.6512 N   0  0  0  0  0  0  0  0  0  0  0  0
    0.5584    2.8149    7.2950 C   0  0  0  0  0  0  0  0  0  0  0  0
    1.0958    3.9127    7.1806 O   0  0  0  0  0  0  0  0  0  0  0  0
    2.9173    0.8509    5.6128 C   0  0  1  0  0  0  0  0  0  0  0  0
    3.5577    2.2836    5.7281 C   0  0  0  0  0  0  0  0  0  0  0  0
    4.3187    2.8155    6.9841 C   0  0  0  0  0  0  0  0  0  0  0  0
    5.5038    2.0606    7.6440 C   0  0  2  0  0  0  0  0  0  0  0  0
    6.6197    1.6339    6.6894 C   0  0  0  0  0  0  0  0  0  0  0  0
    6.6404    0.1011    6.6044 C   0  0  0  0  0  0  0  0  0  0  0  0
    5.2160   -0.5094    6.8102 C   0  0  2  0  0  0  0  0  0  0  0  0
    4.1956   -0.2132    5.5604 C   0  0  1  0  0  0  0  0  0  0  0  0
    3.8056   -1.5228    5.2838 O   0  0  0  0  0  0  0  0  0  0  0  0
    5.0007   -0.0289    4.2200 C   0  0  0  0  0  0  0  0  0  0  0  0
    4.2176   -0.1266    2.8984 C   0  0  1  0  0  0  0  0  0  0  0  0
    4.2498   -1.5414    2.3147 C   0  0  0  0  0  0  0  0  0  0  0  0
    3.1535   -2.4268    2.4565 C   0  0  0  0  0  0  0  0  0  0  0  0
    3.1989   -3.7300    1.9256 C   0  0  0  0  0  0  0  0  0  0  0  0
    4.3450   -4.1713    1.2369 C   0  0  0  0  0  0  0  0  0  0  0  0
    5.4466   -3.3081    1.0848 C   0  0  0  0  0  0  0  0  0  0  0  0
    5.4057   -1.9942    1.6238 C   0  0  0  0  0  0  0  0  0  0  0  0
    2.8221    0.4545    3.0051 C   0  0  0  0  0  0  0  0  0  0  0  0
    2.0895    0.5684    1.7946 C   0  0  0  0  0  0  0  0  0  0  0  0
    0.7754    1.0557    1.7895 C   0  0  0  0  0  0  0  0  0  0  0  0
    0.1707    1.4427    2.9962 C   0  0  0  0  0  0  0  0  0  0  0  0
    0.9019    1.3445    4.1872 C   0  0  0  0  0  0  0  0  0  0  0  0
    2.2324    0.8616    4.2291 C   0  0  0  0  0  0  0  0  0  0  0  0
    4.7785   -0.3866    8.2688 N   0  0  2  0  0  0  0  0  0  0  0  0
    5.4592   -1.3818    9.1162 C   0  0  0  0  0  0  0  0  0  0  0  0
    5.2144    0.9744    8.7330 C   0  0  0  0  0  0  0  0  0  0  0  0
   -1.2847    0.5488    7.7556 H   0  0  0  0  0  0  0  0  0  0  0  0
   -1.2751    0.9077    6.0252 H   0  0  0  0  0  0  0  0  0  0  0  0
   -2.6604    1.2975    6.9945 H   0  0  0  0  0  0  0  0  0  0  0  0
   -1.3201    4.6625    6.4017 H   0  0  0  0  0  0  0  0  0  0  0  0
   -2.6605    3.5525    6.1379 H   0  0  0  0  0  0  0  0  0  0  0  0
   -1.1701    3.3594    5.2313 H   0  0  0  0  0  0  0  0  0  0  0  0
   -2.4779    3.8539    8.5655 H   0  0  0  0  0  0  0  0  0  0  0  0
   -2.0314    2.9755   10.7364 H   0  0  0  0  0  0  0  0  0  0  0  0
   -0.5705    0.6415    9.8806 H   0  0  0  0  0  0  0  0  0  0  0  0
    0.9872    3.2335   10.1333 H   0  0  0  0  0  0  0  0  0  0  0  0
    2.6954    2.2589    9.2298 H   0  0  0  0  0  0  0  0  0  0  0  0
    3.0948    0.3282   10.4527 H   0  0  0  0  0  0  0  0  0  0  0  0
    1.6506   -0.3988    9.9679 H   0  0  0  0  0  0  0  0  0  0  0  0
    3.1679    0.0783    7.7432 H   0  0  0  0  0  0  0  0  0  0  0  0
    1.8593   -2.0767    8.8826 H   0  0  0  0  0  0  0  0  0  0  0  0
    3.7105   -3.4717    7.0926 H   0  0  0  0  0  0  0  0  0  0  0  0
    3.3120   -3.7957    8.7904 H   0  0  0  0  0  0  0  0  0  0  0  0
    1.7989   -4.6674    6.5128 H   0  0  0  0  0  0  0  0  0  0  0  0
    1.2220   -4.7289    8.1661 H   0  0  0  0  0  0  0  0  0  0  0  0
   -0.0251   -3.1896    6.2056 H   0  0  0  0  0  0  0  0  0  0  0  0
   -0.1044   -2.7776    7.9219 H   0  0  0  0  0  0  0  0  0  0  0  0
    1.7979   -1.9420    5.8408 H   0  0  0  0  0  0  0  0  0  0  0  0
    4.2073    2.4709    4.8816 H   0  0  0  0  0  0  0  0  0  0  0  0
    2.7642    3.0054    5.5471 H   0  0  0  0  0  0  0  0  0  0  0  0
    4.7454    3.7655    6.6458 H   0  0  0  0  0  0  0  0  0  0  0  0
    3.6340    3.1809    7.7357 H   0  0  0  0  0  0  0  0  0  0  0  0
    5.9794    2.8620    8.2199 H   0  0  0  0  0  0  0  0  0  0  0  0
    6.4667    2.0777    5.7112 H   0  0  0  0  0  0  0  0  0  0  0  0
    7.5981    1.9846    7.0230 H   0  0  0  0  0  0  0  0  0  0  0  0
    7.1492   -0.2204    5.6997 H   0  0  0  0  0  0  0  0  0  0  0  0
    7.3079   -0.2483    7.3942 H   0  0  0  0  0  0  0  0  0  0  0  0
    5.4748   -1.5747    6.7169 H   0  0  0  0  0  0  0  0  0  0  0  0
    3.3877   -1.5387    4.4430 H   0  0  0  0  0  0  0  0  0  0  0  0
    5.4501    0.9575    4.2188 H   0  0  0  0  0  0  0  0  0  0  0  0
    5.8491   -0.7004    4.1407 H   0  0  0  0  0  0  0  0  0  0  0  0
    4.7354    0.4993    2.1746 H   0  0  0  0  0  0  0  0  0  0  0  0
    2.2602   -2.1194    2.9675 H   0  0  0  0  0  0  0  0  0  0  0  0
    2.3543   -4.3839    2.0478 H   0  0  0  0  0  0  0  0  0  0  0  0
    4.3756   -5.1660    0.8264 H   0  0  0  0  0  0  0  0  0  0  0  0
    6.3234   -3.6465    0.5591 H   0  0  0  0  0  0  0  0  0  0  0  0
    6.2549   -1.3484    1.5041 H   0  0  0  0  0  0  0  0  0  0  0  0
    2.5290    0.2565    0.8638 H   0  0  0  0  0  0  0  0  0  0  0  0
    0.2165    1.1427    0.8741 H   0  0  0  0  0  0  0  0  0  0  0  0
   -0.8364    1.8267    2.9981 H   0  0  0  0  0  0  0  0  0  0  0  0
    0.4204    1.6652    5.0744 H   0  0  0  0  0  0  0  0  0  0  0  0
    6.5483   -1.2992    9.1140 H   0  0  0  0  0  0  0  0  0  0  0  0
    5.2366   -2.4169    8.8328 H   0  0  0  0  0  0  0  0  0  0  0  0
    5.1542   -1.2733   10.1635 H   0  0  0  0  0  0  0  0  0  0  0  0
    6.1735    0.8754    9.2475 H   0  0  0  0  0  0  0  0  0  0  0  0
    4.6212    1.4276    9.5282 H   0  0  0  0  0  0  0  0  0  0  0  0
    0.1515   -0.3156    7.4873 H   0  0  0  0  0  0  0  0  0  0  0  0
  1  2  1  0
  1 47  1  0
  1 48  1  0
  1 49  1  0
  2 19  1  0
  2  3  1  0
  2  4  1  0
  3 50  1  0
  3 51  1  0
  3 52  1  0
  4  5  2  3
  4 53  1  0
  5  6  1  0
  5 54  1  0
  6  7  2  3
  6 55  1  0
  7  8  1  0
  7 56  1  0
  8 18  1  0
  8  9  1  0
  8 57  1  6
  9 10  1  0
  9 58  1  0
  9 59  1  0
 10 44  1  0
 10 11  1  0
 10 60  1  6
 11 15  1  0
 11 12  1  0
 11 61  1  1
 12 13  1  0
 12 62  1  0
 12 63  1  0
 13 14  1  0
 13 64  1  0
 13 65  1  0
 14 15  1  0
 14 66  1  0
 14 67  1  0
 15 16  1  0
 15 68  1  6
 16 17  2  3
 16 97  1  0
 17 18  1  0
 17 21  1  0
 18 19  1  0
 19 20  2  0
 21 28  1  0
 21 43  1  6
 21 22  1  0
 22 23  1  0
 22 69  1  0
 22 70  1  0
 23 24  1  0
 23 71  1  0
 23 72  1  0
 24 46  1  0
 24 25  1  0
 24 73  1  1
 25 26  1  0
 25 74  1  0
 25 75  1  0
 26 27  1  0
 26 76  1  0
 26 77  1  0
 27 28  1  0
 27 44  1  0
 27 78  1  6
 28 29  1  6
 28 30  1  0
 29 79  1  0
 30 31  1  0
 30 80  1  0
 30 81  1  0
 31 32  1  0
 31 38  1  0
 31 82  1  6
 32 37  1  0
 32 33  2  0
 33 34  1  0
 33 83  1  0
 34 35  2  0
 34 84  1  0
 35 36  1  0
 35 85  1  0
 36 37  2  0
 36 86  1  0
 37 87  1  0
 38 43  2  0
 38 39  1  0
 39 40  2  0
 39 88  1  0
 40 41  1  0
 40 89  1  0
 41 42  2  0
 41 90  1  0
 42 43  1  0
 42 91  1  0
 44 45  1  1
 44 46  1  0
 45 92  1  0
 45 93  1  0
 45 94  1  0
 46 95  1  0
 46 96  1  0
M  CHG  2  16   1  44   1
M  END
>  <i_m_ct_stereo_status>  (158) 
1

>  <s_m_source_file>  (158) 
/var/tmp/pbs.5076255.sched01/tmpqm933_o1/456x1pmp19.sdf

>  <i_m_source_file_index>  (158) 
18

>  <i_lp_mmshare_version>  (158) 
48012

>  <i_f3d_flags>  (158) 
0

>  <s_epik_input>  (158) 
Tz1DMUMoW0NIM10pKFtDSDNdKS9bQ0hdPVtDSF1cW0NIXT1bQ0hdL1tDQEhdKE4xL0MyW0NAQF0zNDUpW0NIMl1bQ0hdKFtDQEhdNltDQEhdKC9OPTIpW0NIMl1bQ0gyXVtDSDJdNilbTkBAK103KFtDSDNdKVtDQEhdKFtDSDJdW0NIMl1bQ0BIXShbQ0gyXTcpW0NIMl1bQ0gyXTMpW0NAXTQoW09IXSlbQ0gyXVtDQEBIXShjOFtjSF1bY0hdW2NIXVtjSF1bY0hdOCljOWM1W2NIXVtjSF1bY0hdW2NIXTk=

>  <s_epik_cmdline>  (158) 
J2VwaWtfcHl0aG9uJywgJy1waHQnLCAnMi4wJywgJy1waCcsICc3LjAnLCAnLXRuJywgJzgnLCAnLW1hJywgJzIwMCcsICctaW1hZScsICc8aW5maWxlLm1hZT4nLCAnLW9tYWUnLCAnPG91dGZpbGUubWFlPic=

>  <r_epik_Ionization_Penalty>  (158) 
1.89798

>  <r_epik_Ionization_Penalty_Charging>  (158) 
1.89749

>  <r_epik_Ionization_Penalty_Neutral>  (158) 
0.000490901

>  <r_epik_State_Penalty>  (158) 
2.0185

>  <r_epik_Charging_Adjusted_Penalty>  (158) 
3.91599

>  <i_epik_Tot_Q>  (158) 
2

>  <i_epik_Tot_abs_Q>  (158) 
2

>  <s_epik_Chemistry_Notes>  (158) 
This compound has an imine and may undergo hydrolysis.

>  <s_lp_Force_Field>  (158) 
OPLS3e

>  <r_lp_Energy>  (158) 
304.182

>  <b_lp_Chiralities_Consistent>  (158) 
1

>  <s_lp_Variant>  (158) 
33:0-15

>  <s_i_glide_gridfile>  (158) 
pfpi4k_grid

>  <i_i_glide_lignum>  (158) 
18

>  <i_i_glide_rotatable_bonds>  (158) 
2

>  <r_i_docking_score>  (158) 
-1.70168

>  <r_i_glide_ligand_efficiency>  (158) 
-0.036993

>  <r_i_glide_ligand_efficiency_sa>  (158) 
-0.132548

>  <r_i_glide_ligand_efficiency_ln>  (158) 
-0.352413

>  <r_i_glide_gscore>  (158) 
-1.70168

>  <r_i_glide_lipo>  (158) 
-0.489466

>  <r_i_glide_hbond>  (158) 
0

>  <r_i_glide_metal>  (158) 
-0

>  <r_i_glide_rewards>  (158) 
0

>  <r_i_glide_evdw>  (158) 
-25.7325

>  <r_i_glide_ecoul>  (158) 
0.174839

>  <r_i_glide_erotb>  (158) 
0.0552374

>  <r_i_glide_esite>  (158) 
-0.00704666

>  <r_i_glide_emodel>  (158) 
-28.8735

>  <r_i_glide_energy>  (158) 
-25.5577

>  <r_i_glide_einternal>  (158) 
0.475656

>  <r_i_glide_intrahb_reward>  (158) 
-0

>  <i_i_glide_confnum>  (158) 
2

>  <i_i_glide_posenum>  (158) 
12

>  <r_i_glide_eff_state_penalty>  (158) 
0

>  <ligand_id>  (158) 
33

>  <original_smiles>  (158) 
CC1(C)C=CC=CC2CC3C4CCCC4N=C(N2C1=O)C12CCC4CCC(C1(O)CC(c1ccccc1)c1ccccc12)[N+]3(C)C4

>  <smiles>  (158) 
[H]OC12C([H])([H])C([H])(c3c([H])c([H])c([H])c([H])c3[H])c3c([H])c([H])c([H])c([H])c3C13C1=[N+]([H])C4([H])C([H])([H])C([H])([H])C([H])([H])C4([H])C([H])(C([H])([H])C4([H])C([H])=C([H])C([H])=C([H])C(C([H])([H])[H])(C([H])([H])[H])C(=O)N14)[N+]1(C([H])([H])[H])C([H])([H])C([H])(C([H])([H])C3([H])[H])C([H])([H])C([H])([H])C21[H]

$$$$
33:14:2
     RDKit          3D

 97105  0  0  1  0  0  0  0  0999 V2000
    8.6095   -6.0406    4.7564 C   0  0  0  0  0  0  0  0  0  0  0  0
    9.3188   -7.2080    5.4924 C   0  0  0  0  0  0  0  0  0  0  0  0
    9.9535   -8.0790    4.3723 C   0  0  0  0  0  0  0  0  0  0  0  0
   10.4885   -6.5733    6.2796 C   0  0  0  0  0  0  0  0  0  0  0  0
   10.4025   -5.7791    7.3746 C   0  0  0  0  0  0  0  0  0  0  0  0
    9.1343   -5.5660    8.0282 C   0  0  0  0  0  0  0  0  0  0  0  0
    8.6160   -6.6225    8.6726 C   0  0  0  0  0  0  0  0  0  0  0  0
    7.2231   -7.1449    8.3843 C   0  0  1  0  0  0  0  0  0  0  0  0
    6.0591   -6.2440    8.9359 C   0  0  0  0  0  0  0  0  0  0  0  0
    4.6132   -6.5926    8.3883 C   0  0  2  0  0  0  0  0  0  0  0  0
    4.1144   -5.4257    7.4035 C   0  0  2  0  0  0  0  0  0  0  0  0
    2.7813   -4.6810    7.3517 C   0  0  0  0  0  0  0  0  0  0  0  0
    3.0279   -3.6829    6.1738 C   0  0  0  0  0  0  0  0  0  0  0  0
    4.3599   -4.0747    5.4803 C   0  0  0  0  0  0  0  0  0  0  0  0
    4.4990   -5.5238    5.9166 C   0  0  1  0  0  0  0  0  0  0  0  0
    5.7758   -6.1861    5.8385 N   0  0  0  0  0  0  0  0  0  0  0  0
    5.9586   -7.4934    6.2322 C   0  0  0  0  0  0  0  0  0  0  0  0
    7.1592   -7.5888    6.9248 N   0  0  0  0  0  0  0  0  0  0  0  0
    8.3619   -8.1443    6.3227 C   0  0  0  0  0  0  0  0  0  0  0  0
    8.7242   -9.2752    6.6524 O   0  0  0  0  0  0  0  0  0  0  0  0
    4.9247   -8.7126    5.9558 C   0  0  1  0  0  0  0  0  0  0  0  0
    5.5246  -10.0354    6.5684 C   0  0  0  0  0  0  0  0  0  0  0  0
    5.8028  -10.2705    8.0884 C   0  0  0  0  0  0  0  0  0  0  0  0
    4.7312  -10.0578    9.1905 C   0  0  2  0  0  0  0  0  0  0  0  0
    3.3940  -10.7624    8.9429 C   0  0  0  0  0  0  0  0  0  0  0  0
    2.3112   -9.7067    8.7107 C   0  0  0  0  0  0  0  0  0  0  0  0
    2.8933   -8.4181    8.0445 C   0  0  2  0  0  0  0  0  0  0  0  0
    3.3430   -8.6419    6.4798 C   0  0  1  0  0  0  0  0  0  0  0  0
    2.6040   -7.5985    5.9147 O   0  0  0  0  0  0  0  0  0  0  0  0
    2.5048   -9.8007    5.8197 C   0  0  0  0  0  0  0  0  0  0  0  0
    2.5251   -9.9041    4.2835 C   0  0  1  0  0  0  0  0  0  0  0  0
    1.3535   -9.1509    3.6425 C   0  0  0  0  0  0  0  0  0  0  0  0
    1.5064   -7.8603    3.0801 C   0  0  0  0  0  0  0  0  0  0  0  0
    0.4134   -7.1766    2.5149 C   0  0  0  0  0  0  0  0  0  0  0  0
   -0.8655   -7.7703    2.5055 C   0  0  0  0  0  0  0  0  0  0  0  0
   -1.0347   -9.0556    3.0602 C   0  0  0  0  0  0  0  0  0  0  0  0
    0.0664   -9.7409    3.6231 C   0  0  0  0  0  0  0  0  0  0  0  0
    3.8695   -9.5399    3.6813 C   0  0  0  0  0  0  0  0  0  0  0  0
    4.0273   -9.7739    2.2932 C   0  0  0  0  0  0  0  0  0  0  0  0
    5.2206   -9.4289    1.6284 C   0  0  0  0  0  0  0  0  0  0  0  0
    6.2734   -8.8560    2.3546 C   0  0  0  0  0  0  0  0  0  0  0  0
    6.1199   -8.6427    3.7369 C   0  0  0  0  0  0  0  0  0  0  0  0
    4.9333   -8.9779    4.4344 C   0  0  0  0  0  0  0  0  0  0  0  0
    3.7422   -7.6305    9.0325 N   0  0  2  0  0  0  0  0  0  0  0  0
    2.8979   -6.8930    9.9879 C   0  0  0  0  0  0  0  0  0  0  0  0
    4.5378   -8.6381    9.8141 C   0  0  0  0  0  0  0  0  0  0  0  0
    8.1793   -5.3120    5.4382 H   0  0  0  0  0  0  0  0  0  0  0  0
    7.8440   -6.3621    4.0529 H   0  0  0  0  0  0  0  0  0  0  0  0
    9.3285   -5.4842    4.1547 H   0  0  0  0  0  0  0  0  0  0  0  0
   10.5736   -8.8821    4.7767 H   0  0  0  0  0  0  0  0  0  0  0  0
   10.5940   -7.4846    3.7155 H   0  0  0  0  0  0  0  0  0  0  0  0
    9.1982   -8.5412    3.7321 H   0  0  0  0  0  0  0  0  0  0  0  0
   11.4738   -6.7301    5.8640 H   0  0  0  0  0  0  0  0  0  0  0  0
   11.3018   -5.3661    7.8084 H   0  0  0  0  0  0  0  0  0  0  0  0
    8.4704   -4.8312    7.6025 H   0  0  0  0  0  0  0  0  0  0  0  0
    9.2981   -7.4124    8.9660 H   0  0  0  0  0  0  0  0  0  0  0  0
    7.2205   -8.0161    9.0198 H   0  0  0  0  0  0  0  0  0  0  0  0
    6.0462   -6.2865   10.0266 H   0  0  0  0  0  0  0  0  0  0  0  0
    6.3379   -5.2113    8.7574 H   0  0  0  0  0  0  0  0  0  0  0  0
    4.9393   -7.3499    7.7801 H   0  0  0  0  0  0  0  0  0  0  0  0
    4.7034   -4.5908    7.7710 H   0  0  0  0  0  0  0  0  0  0  0  0
    1.9529   -5.3509    7.1149 H   0  0  0  0  0  0  0  0  0  0  0  0
    2.5515   -4.1564    8.2806 H   0  0  0  0  0  0  0  0  0  0  0  0
    2.2045   -3.7349    5.4602 H   0  0  0  0  0  0  0  0  0  0  0  0
    3.0823   -2.6514    6.5224 H   0  0  0  0  0  0  0  0  0  0  0  0
    4.3045   -3.9746    4.3957 H   0  0  0  0  0  0  0  0  0  0  0  0
    5.1997   -3.4719    5.8306 H   0  0  0  0  0  0  0  0  0  0  0  0
    3.8449   -6.0098    5.2146 H   0  0  0  0  0  0  0  0  0  0  0  0
    4.9469  -10.8944    6.2361 H   0  0  0  0  0  0  0  0  0  0  0  0
    6.4761  -10.2210    6.0732 H   0  0  0  0  0  0  0  0  0  0  0  0
    6.0502  -11.3335    8.1460 H   0  0  0  0  0  0  0  0  0  0  0  0
    6.7453   -9.8423    8.3877 H   0  0  0  0  0  0  0  0  0  0  0  0
    5.1498  -10.6360   10.0185 H   0  0  0  0  0  0  0  0  0  0  0  0
    3.4669  -11.4421    8.0877 H   0  0  0  0  0  0  0  0  0  0  0  0
    3.1011  -11.3936    9.7828 H   0  0  0  0  0  0  0  0  0  0  0  0
    1.4609  -10.1399    8.1915 H   0  0  0  0  0  0  0  0  0  0  0  0
    1.8928   -9.4596    9.6907 H   0  0  0  0  0  0  0  0  0  0  0  0
    1.9648   -7.8323    7.9978 H   0  0  0  0  0  0  0  0  0  0  0  0
    1.6870   -7.7935    5.9832 H   0  0  0  0  0  0  0  0  0  0  0  0
    2.8850  -10.7567    6.1736 H   0  0  0  0  0  0  0  0  0  0  0  0
    1.4636   -9.8167    6.1318 H   0  0  0  0  0  0  0  0  0  0  0  0
    2.3719  -10.9554    4.0424 H   0  0  0  0  0  0  0  0  0  0  0  0
    2.4696   -7.3819    3.0884 H   0  0  0  0  0  0  0  0  0  0  0  0
    0.5671   -6.2018    2.0943 H   0  0  0  0  0  0  0  0  0  0  0  0
   -1.7135   -7.2647    2.0841 H   0  0  0  0  0  0  0  0  0  0  0  0
   -2.0081   -9.5177    3.0662 H   0  0  0  0  0  0  0  0  0  0  0  0
   -0.0950  -10.7159    4.0578 H   0  0  0  0  0  0  0  0  0  0  0  0
    3.2294  -10.2098    1.7205 H   0  0  0  0  0  0  0  0  0  0  0  0
    5.3262   -9.6168    0.5732 H   0  0  0  0  0  0  0  0  0  0  0  0
    7.1990   -8.5903    1.8707 H   0  0  0  0  0  0  0  0  0  0  0  0
    6.9416   -8.2245    4.2545 H   0  0  0  0  0  0  0  0  0  0  0  0
    2.2360   -7.5334   10.5819 H   0  0  0  0  0  0  0  0  0  0  0  0
    2.2474   -6.1522    9.5130 H   0  0  0  0  0  0  0  0  0  0  0  0
    3.5145   -6.3485   10.7147 H   0  0  0  0  0  0  0  0  0  0  0  0
    4.0064   -8.8474   10.7480 H   0  0  0  0  0  0  0  0  0  0  0  0
    5.4939   -8.2995   10.2141 H   0  0  0  0  0  0  0  0  0  0  0  0
    6.5651   -5.5641    5.8731 H   0  0  0  0  0  0  0  0  0  0  0  0
  1  2  1  0
  1 47  1  0
  1 48  1  0
  1 49  1  0
  2 19  1  0
  2  3  1  0
  2  4  1  0
  3 50  1  0
  3 51  1  0
  3 52  1  0
  4  5  2  3
  4 53  1  0
  5  6  1  0
  5 54  1  0
  6  7  2  3
  6 55  1  0
  7  8  1  0
  7 56  1  0
  8 18  1  0
  8  9  1  0
  8 57  1  1
  9 10  1  0
  9 58  1  0
  9 59  1  0
 10 44  1  0
 10 11  1  0
 10 60  1  6
 11 15  1  0
 11 12  1  0
 11 61  1  1
 12 13  1  0
 12 62  1  0
 12 63  1  0
 13 14  1  0
 13 64  1  0
 13 65  1  0
 14 15  1  0
 14 66  1  0
 14 67  1  0
 15 16  1  0
 15 68  1  6
 16 17  2  3
 16 97  1  0
 17 18  1  0
 17 21  1  0
 18 19  1  0
 19 20  2  0
 21 28  1  0
 21 43  1  6
 21 22  1  0
 22 23  1  0
 22 69  1  0
 22 70  1  0
 23 24  1  0
 23 71  1  0
 23 72  1  0
 24 46  1  0
 24 25  1  0
 24 73  1  1
 25 26  1  0
 25 74  1  0
 25 75  1  0
 26 27  1  0
 26 76  1  0
 26 77  1  0
 27 28  1  0
 27 44  1  0
 27 78  1  6
 28 29  1  6
 28 30  1  0
 29 79  1  0
 30 31  1  0
 30 80  1  0
 30 81  1  0
 31 32  1  0
 31 38  1  0
 31 82  1  1
 32 37  1  0
 32 33  2  0
 33 34  1  0
 33 83  1  0
 34 35  2  0
 34 84  1  0
 35 36  1  0
 35 85  1  0
 36 37  2  0
 36 86  1  0
 37 87  1  0
 38 43  2  0
 38 39  1  0
 39 40  2  0
 39 88  1  0
 40 41  1  0
 40 89  1  0
 41 42  2  0
 41 90  1  0
 42 43  1  0
 42 91  1  0
 44 45  1  1
 44 46  1  0
 45 92  1  0
 45 93  1  0
 45 94  1  0
 46 95  1  0
 46 96  1  0
M  CHG  2  16   1  44   1
M  END
>  <i_m_ct_stereo_status>  (159) 
1

>  <s_m_source_file>  (159) 
/var/tmp/pbs.5076255.sched01/tmpqm933_o1/456x1pmp19.sdf

>  <i_m_source_file_index>  (159) 
18

>  <i_lp_mmshare_version>  (159) 
48012

>  <i_f3d_flags>  (159) 
0

>  <s_epik_input>  (159) 
Tz1DMUMoW0NIM10pKFtDSDNdKS9bQ0hdPVtDSF1cW0NIXT1bQ0hdL1tDQEhdKE4xL0MyW0NAQF0zNDUpW0NIMl1bQ0hdKFtDQEhdNltDQEhdKC9OPTIpW0NIMl1bQ0gyXVtDSDJdNilbTkBAK103KFtDSDNdKVtDQEhdKFtDSDJdW0NIMl1bQ0BIXShbQ0gyXTcpW0NIMl1bQ0gyXTMpW0NAXTQoW09IXSlbQ0gyXVtDQEBIXShjOFtjSF1bY0hdW2NIXVtjSF1bY0hdOCljOWM1W2NIXVtjSF1bY0hdW2NIXTk=

>  <s_epik_cmdline>  (159) 
J2VwaWtfcHl0aG9uJywgJy1waHQnLCAnMi4wJywgJy1waCcsICc3LjAnLCAnLXRuJywgJzgnLCAnLW1hJywgJzIwMCcsICctaW1hZScsICc8aW5maWxlLm1hZT4nLCAnLW9tYWUnLCAnPG91dGZpbGUubWFlPic=

>  <r_epik_Ionization_Penalty>  (159) 
1.89798

>  <r_epik_Ionization_Penalty_Charging>  (159) 
1.89749

>  <r_epik_Ionization_Penalty_Neutral>  (159) 
0.000490901

>  <r_epik_State_Penalty>  (159) 
2.0185

>  <r_epik_Charging_Adjusted_Penalty>  (159) 
3.91599

>  <i_epik_Tot_Q>  (159) 
2

>  <i_epik_Tot_abs_Q>  (159) 
2

>  <s_epik_Chemistry_Notes>  (159) 
This compound has an imine and may undergo hydrolysis.

>  <s_lp_Force_Field>  (159) 
OPLS3e

>  <r_lp_Energy>  (159) 
304.182

>  <b_lp_Chiralities_Consistent>  (159) 
1

>  <s_lp_Variant>  (159) 
33:0-15

>  <s_i_glide_gridfile>  (159) 
pfpi4k_grid

>  <i_i_glide_lignum>  (159) 
18

>  <i_i_glide_rotatable_bonds>  (159) 
2

>  <r_i_docking_score>  (159) 
-1.53339

>  <r_i_glide_ligand_efficiency>  (159) 
-0.0333345

>  <r_i_glide_ligand_efficiency_sa>  (159) 
-0.119439

>  <r_i_glide_ligand_efficiency_ln>  (159) 
-0.317561

>  <r_i_glide_gscore>  (159) 
-1.53339

>  <r_i_glide_lipo>  (159) 
-0.0659477

>  <r_i_glide_hbond>  (159) 
0

>  <r_i_glide_metal>  (159) 
-0

>  <r_i_glide_rewards>  (159) 
0

>  <r_i_glide_evdw>  (159) 
-23.5246

>  <r_i_glide_ecoul>  (159) 
-2.30867

>  <r_i_glide_erotb>  (159) 
0.0552374

>  <r_i_glide_esite>  (159) 
-0.000147956

>  <r_i_glide_emodel>  (159) 
-28.7878

>  <r_i_glide_energy>  (159) 
-25.8332

>  <r_i_glide_einternal>  (159) 
0.414304

>  <r_i_glide_intrahb_reward>  (159) 
-0

>  <i_i_glide_confnum>  (159) 
3

>  <i_i_glide_posenum>  (159) 
2

>  <r_i_glide_eff_state_penalty>  (159) 
0

>  <ligand_id>  (159) 
33

>  <original_smiles>  (159) 
CC1(C)C=CC=CC2CC3C4CCCC4N=C(N2C1=O)C12CCC4CCC(C1(O)CC(c1ccccc1)c1ccccc12)[N+]3(C)C4

>  <smiles>  (159) 
[H]OC12C([H])([H])C([H])(c3c([H])c([H])c([H])c([H])c3[H])c3c([H])c([H])c([H])c([H])c3C13C1=[N+]([H])C4([H])C([H])([H])C([H])([H])C([H])([H])C4([H])C([H])(C([H])([H])C4([H])C([H])=C([H])C([H])=C([H])C(C([H])([H])[H])(C([H])([H])[H])C(=O)N14)[N+]1(C([H])([H])[H])C([H])([H])C([H])(C([H])([H])C3([H])[H])C([H])([H])C([H])([H])C21[H]

$$$$
35:0:0
     RDKit          3D

 55 57  0  0  1  0  0  0  0  0999 V2000
    1.7817   -9.7739    2.5660 C   0  0  0  0  0  0  0  0  0  0  0  0
    2.6951   -9.1070    1.5322 C   0  0  0  0  0  0  0  0  0  0  0  0
    3.9076   -8.4097    2.1691 C   0  0  0  0  0  0  0  0  0  0  0  0
    4.8946   -7.8830    1.1154 C   0  0  0  0  0  0  0  0  0  0  0  0
    4.2737   -6.8764    0.3178 O   0  0  0  0  0  0  0  0  0  0  0  0
    4.2027   -5.5784    0.7784 C   0  0  0  0  0  0  0  0  0  0  0  0
    3.3231   -4.7094    0.1001 C   0  0  0  0  0  0  0  0  0  0  0  0
    3.2341   -3.3507    0.4601 C   0  0  0  0  0  0  0  0  0  0  0  0
    4.0287   -2.8301    1.5063 C   0  0  0  0  0  0  0  0  0  0  0  0
    3.9554   -1.3431    1.8440 C   0  0  1  0  0  0  0  0  0  0  0  0
    4.3031   -0.5078    0.5946 C   0  0  0  0  0  0  0  0  0  0  0  0
    2.5266   -1.0152    2.3202 C   0  0  0  0  0  0  0  0  0  0  0  0
    2.4521    0.1409    3.3091 C   0  0  0  0  0  0  0  0  0  0  0  0
    1.1532    0.7590    3.5416 C   0  0  0  0  0  0  0  0  0  0  0  0
    0.4857    1.2688    2.4238 C   0  0  0  0  0  0  0  0  0  0  0  0
   -0.7441    1.9069    2.5821 C   0  0  0  0  0  0  0  0  0  0  0  0
   -1.3339    2.0594    3.8728 C   0  0  0  0  0  0  0  0  0  0  0  0
   -2.5349    2.7132    4.0946 O   0  0  0  0  0  0  0  0  0  0  0  0
   -3.1564    3.2912    2.9565 C   0  0  0  0  0  0  0  0  0  0  0  0
   -0.6659    1.5247    4.9835 C   0  0  0  0  0  0  0  0  0  0  0  0
    0.5703    0.8642    4.8255 C   0  0  0  0  0  0  0  0  0  0  0  0
    3.5439    0.5552    4.0102 C   0  0  0  0  0  0  0  0  0  0  0  0
    3.5149    1.6338    4.9298 C   0  0  0  0  0  0  0  0  0  0  0  0
    3.4353    2.5264    5.6944 N   0  0  0  0  0  0  0  0  0  0  0  0
    4.8506   -0.0794    3.8551 C   0  0  0  0  0  0  0  0  0  0  0  0
    5.8254    0.1446    4.5718 O   0  0  0  0  0  0  0  0  0  0  0  0
    4.9450   -0.9849    2.8678 N   0  0  0  0  0  0  0  0  0  0  0  0
    4.8858   -3.7180    2.2028 C   0  0  0  0  0  0  0  0  0  0  0  0
    4.9709   -5.0724    1.8476 C   0  0  0  0  0  0  0  0  0  0  0  0
    0.9307  -10.2561    2.0807 H   0  0  0  0  0  0  0  0  0  0  0  0
    1.3912   -9.0423    3.2740 H   0  0  0  0  0  0  0  0  0  0  0  0
    2.3201  -10.5383    3.1274 H   0  0  0  0  0  0  0  0  0  0  0  0
    3.0390   -9.8596    0.8215 H   0  0  0  0  0  0  0  0  0  0  0  0
    2.1090   -8.3898    0.9569 H   0  0  0  0  0  0  0  0  0  0  0  0
    3.5641   -7.6075    2.8288 H   0  0  0  0  0  0  0  0  0  0  0  0
    4.4345   -9.1190    2.8039 H   0  0  0  0  0  0  0  0  0  0  0  0
    5.8378   -7.5742    1.5658 H   0  0  0  0  0  0  0  0  0  0  0  0
    5.1827   -8.6888    0.4464 H   0  0  0  0  0  0  0  0  0  0  0  0
    2.7087   -5.0702   -0.7202 H   0  0  0  0  0  0  0  0  0  0  0  0
    2.5550   -2.7083   -0.0861 H   0  0  0  0  0  0  0  0  0  0  0  0
    3.6268   -0.7004   -0.2384 H   0  0  0  0  0  0  0  0  0  0  0  0
    5.3105   -0.7318    0.2448 H   0  0  0  0  0  0  0  0  0  0  0  0
    4.2450    0.5593    0.7990 H   0  0  0  0  0  0  0  0  0  0  0  0
    1.9070   -0.8261    1.4502 H   0  0  0  0  0  0  0  0  0  0  0  0
    2.0588   -1.8627    2.8209 H   0  0  0  0  0  0  0  0  0  0  0  0
    0.9009    1.2229    1.4348 H   0  0  0  0  0  0  0  0  0  0  0  0
   -1.1528    2.2871    1.6916 H   0  0  0  0  0  0  0  0  0  0  0  0
   -4.1237    3.7363    3.1942 H   0  0  0  0  0  0  0  0  0  0  0  0
   -3.3605    2.5428    2.1841 H   0  0  0  0  0  0  0  0  0  0  0  0
   -2.5102    4.0696    2.5382 H   0  0  0  0  0  0  0  0  0  0  0  0
   -1.0737    1.6347    5.9887 H   0  0  0  0  0  0  0  0  0  0  0  0
    1.1029    0.4648    5.6824 H   0  0  0  0  0  0  0  0  0  0  0  0
    5.8289   -1.4634    2.8022 H   0  0  0  0  0  0  0  0  0  0  0  0
    5.5093   -3.3955    3.0169 H   0  0  0  0  0  0  0  0  0  0  0  0
    5.6652   -5.6666    2.4228 H   0  0  0  0  0  0  0  0  0  0  0  0
  1  2  1  0
  1 30  1  0
  1 31  1  0
  1 32  1  0
  2  3  1  0
  2 33  1  0
  2 34  1  0
  3  4  1  0
  3 35  1  0
  3 36  1  0
  4  5  1  0
  4 37  1  0
  4 38  1  0
  5  6  1  0
  6 29  2  0
  6  7  1  0
  7  8  2  0
  7 39  1  0
  8  9  1  0
  8 40  1  0
  9 10  1  0
  9 28  2  0
 10 27  1  0
 10 11  1  6
 10 12  1  0
 11 41  1  0
 11 42  1  0
 11 43  1  0
 12 13  1  0
 12 44  1  0
 12 45  1  0
 13 14  1  0
 13 22  2  0
 14 21  1  0
 14 15  2  0
 15 16  1  0
 15 46  1  0
 16 17  2  0
 16 47  1  0
 17 18  1  0
 17 20  1  0
 18 19  1  0
 19 48  1  0
 19 49  1  0
 19 50  1  0
 20 21  2  0
 20 51  1  0
 21 52  1  0
 22 23  1  0
 22 25  1  0
 23 24  3  0
 25 26  2  0
 25 27  1  0
 27 53  1  0
 28 29  1  0
 28 54  1  0
 29 55  1  0
M  END
>  <i_m_ct_stereo_status>  (160) 
1

>  <s_m_source_file>  (160) 
/var/tmp/pbs.5076255.sched01/tmpqm933_o1/456x1pmp19.sdf

>  <i_m_source_file_index>  (160) 
21

>  <i_lp_mmshare_version>  (160) 
48012

>  <i_f3d_flags>  (160) 
0

>  <s_epik_input>  (160) 
W0NIM11bQ0gyXVtDSDJdW0NIMl1PYzFbY0hdW2NIXWMoW2NIXVtjSF0xKVtDQEBdMihbQ0gzXSlbQ0gyXUMoPUMoQyNOKUMoPU8pW05IXTIpYzNbY0hdW2NIXWMoT1tDSDNdKVtjSF1bY0hdMw==

>  <s_epik_cmdline>  (160) 
J2VwaWtfcHl0aG9uJywgJy1waHQnLCAnMi4wJywgJy1waCcsICc3LjAnLCAnLXRuJywgJzgnLCAnLW1hJywgJzIwMCcsICctaW1hZScsICc8aW5maWxlLm1hZT4nLCAnLW9tYWUnLCAnPG91dGZpbGUubWFlPic=

>  <r_lp_tautomer_probability>  (160) 
1

>  <r_epik_Ionization_Penalty>  (160) 
0.0017088

>  <r_epik_Ionization_Penalty_Charging>  (160) 
0

>  <r_epik_Ionization_Penalty_Neutral>  (160) 
0.0017088

>  <r_epik_State_Penalty>  (160) 
0.00115492

>  <r_epik_Charging_Adjusted_Penalty>  (160) 
0.00115492

>  <i_epik_Tot_Q>  (160) 
0

>  <i_epik_Tot_abs_Q>  (160) 
0

>  <s_lp_Force_Field>  (160) 
OPLS3e

>  <r_lp_Energy>  (160) 
48.8267

>  <b_lp_Chiralities_Consistent>  (160) 
1

>  <s_lp_Variant>  (160) 
35:0-1

>  <s_i_glide_gridfile>  (160) 
pfpi4k_grid

>  <i_i_glide_lignum>  (160) 
21

>  <i_i_glide_rotatable_bonds>  (160) 
8

>  <r_i_docking_score>  (160) 
-2.36694

>  <r_i_glide_ligand_efficiency>  (160) 
-0.0816185

>  <r_i_glide_ligand_efficiency_sa>  (160) 
-0.250758

>  <r_i_glide_ligand_efficiency_ln>  (160) 
-0.541968

>  <r_i_glide_gscore>  (160) 
-2.36694

>  <r_i_glide_lipo>  (160) 
-0.36129

>  <r_i_glide_hbond>  (160) 
0

>  <r_i_glide_metal>  (160) 
-0

>  <r_i_glide_rewards>  (160) 
-0.850678

>  <r_i_glide_evdw>  (160) 
-30.2025

>  <r_i_glide_ecoul>  (160) 
-1.87302

>  <r_i_glide_erotb>  (160) 
0.639626

>  <r_i_glide_esite>  (160) 
-0.00351855

>  <r_i_glide_emodel>  (160) 
-33.6211

>  <r_i_glide_energy>  (160) 
-32.0755

>  <r_i_glide_einternal>  (160) 
5.94951

>  <r_i_glide_intrahb_reward>  (160) 
-0

>  <i_i_glide_confnum>  (160) 
3

>  <i_i_glide_posenum>  (160) 
12

>  <r_i_glide_eff_state_penalty>  (160) 
0

>  <ligand_id>  (160) 
35

>  <original_smiles>  (160) 
CCCCOc1ccc(C2(C)CC(c3ccc(OC)cc3)=C(C#N)C(=O)N2)cc1

>  <smiles>  (160) 
[H]c1c([H])c(C2=C(C#N)C(=O)N([H])C(c3c([H])c([H])c(OC([H])([H])C([H])([H])C([H])([H])C([H])([H])[H])c([H])c3[H])(C([H])([H])[H])C2([H])[H])c([H])c([H])c1OC([H])([H])[H]

$$$$
35:0:1
     RDKit          3D

 55 57  0  0  1  0  0  0  0  0999 V2000
    1.9901   -7.2112    1.6028 C   0  0  0  0  0  0  0  0  0  0  0  0
    3.2538   -6.4869    1.1238 C   0  0  0  0  0  0  0  0  0  0  0  0
    4.1144   -6.0811    2.3290 C   0  0  0  0  0  0  0  0  0  0  0  0
    5.2901   -5.1502    1.9290 C   0  0  0  0  0  0  0  0  0  0  0  0
    4.8701   -3.9008    1.4043 O   0  0  0  0  0  0  0  0  0  0  0  0
    4.2740   -2.9883    2.2552 C   0  0  0  0  0  0  0  0  0  0  0  0
    3.8386   -1.7800    1.6823 C   0  0  0  0  0  0  0  0  0  0  0  0
    3.1919   -0.8203    2.4767 C   0  0  0  0  0  0  0  0  0  0  0  0
    2.9230   -1.0762    3.8431 C   0  0  0  0  0  0  0  0  0  0  0  0
    2.2454   -0.0089    4.7182 C   0  0  1  0  0  0  0  0  0  0  0  0
    3.3373    0.9762    5.1793 C   0  0  0  0  0  0  0  0  0  0  0  0
    1.1672    0.7418    3.9023 C   0  0  0  0  0  0  0  0  0  0  0  0
    0.0420    1.2917    4.7524 C   0  0  0  0  0  0  0  0  0  0  0  0
   -0.8205    2.3101    4.1515 C   0  0  0  0  0  0  0  0  0  0  0  0
   -0.2894    3.5678    3.8325 C   0  0  0  0  0  0  0  0  0  0  0  0
   -1.1219    4.5495    3.2853 C   0  0  0  0  0  0  0  0  0  0  0  0
   -2.4670    4.2654    2.9966 C   0  0  0  0  0  0  0  0  0  0  0  0
   -3.2338    5.2990    2.4784 O   0  0  0  0  0  0  0  0  0  0  0  0
   -4.5234    4.9962    1.9732 C   0  0  0  0  0  0  0  0  0  0  0  0
   -2.9914    2.9910    3.2984 C   0  0  0  0  0  0  0  0  0  0  0  0
   -2.1713    2.0283    3.8812 C   0  0  0  0  0  0  0  0  0  0  0  0
   -0.2272    0.8256    5.9883 C   0  0  0  0  0  0  0  0  0  0  0  0
   -1.2960    1.3094    6.7603 C   0  0  0  0  0  0  0  0  0  0  0  0
   -2.2251    1.7018    7.3622 N   0  0  0  0  0  0  0  0  0  0  0  0
    0.5627   -0.2367    6.6078 C   0  0  0  0  0  0  0  0  0  0  0  0
    0.2510   -0.7928    7.6535 O   0  0  0  0  0  0  0  0  0  0  0  0
    1.6699   -0.6020    5.9308 N   0  0  0  0  0  0  0  0  0  0  0  0
    3.3579   -2.2963    4.4047 C   0  0  0  0  0  0  0  0  0  0  0  0
    4.0630   -3.2331    3.6292 C   0  0  0  0  0  0  0  0  0  0  0  0
    1.3593   -7.5090    0.7666 H   0  0  0  0  0  0  0  0  0  0  0  0
    1.3896   -6.5741    2.2581 H   0  0  0  0  0  0  0  0  0  0  0  0
    2.2541   -8.1047    2.1708 H   0  0  0  0  0  0  0  0  0  0  0  0
    3.8288   -7.1071    0.4271 H   0  0  0  0  0  0  0  0  0  0  0  0
    2.9568   -5.5898    0.5769 H   0  0  0  0  0  0  0  0  0  0  0  0
    3.4570   -5.5958    3.0726 H   0  0  0  0  0  0  0  0  0  0  0  0
    4.5212   -6.9779    2.8121 H   0  0  0  0  0  0  0  0  0  0  0  0
    5.9776   -4.9741    2.7536 H   0  0  0  0  0  0  0  0  0  0  0  0
    5.9007   -5.6153    1.1588 H   0  0  0  0  0  0  0  0  0  0  0  0
    4.0059   -1.5776    0.6254 H   0  0  0  0  0  0  0  0  0  0  0  0
    2.9165    0.1252    2.0193 H   0  0  0  0  0  0  0  0  0  0  0  0
    3.8397    1.4394    4.3296 H   0  0  0  0  0  0  0  0  0  0  0  0
    4.1102    0.4786    5.7712 H   0  0  0  0  0  0  0  0  0  0  0  0
    2.9181    1.7786    5.7905 H   0  0  0  0  0  0  0  0  0  0  0  0
    1.6406    1.5415    3.3370 H   0  0  0  0  0  0  0  0  0  0  0  0
    0.6935    0.0888    3.1672 H   0  0  0  0  0  0  0  0  0  0  0  0
    0.7603    3.7740    4.0250 H   0  0  0  0  0  0  0  0  0  0  0  0
   -0.6940    5.5134    3.0290 H   0  0  0  0  0  0  0  0  0  0  0  0
   -4.9576    5.9185    1.5801 H   0  0  0  0  0  0  0  0  0  0  0  0
   -5.2130    4.6106    2.7293 H   0  0  0  0  0  0  0  0  0  0  0  0
   -4.4788    4.2703    1.1572 H   0  0  0  0  0  0  0  0  0  0  0  0
   -4.0291    2.7277    3.1131 H   0  0  0  0  0  0  0  0  0  0  0  0
   -2.5664    1.0476    4.1176 H   0  0  0  0  0  0  0  0  0  0  0  0
    2.1917   -1.3584    6.3428 H   0  0  0  0  0  0  0  0  0  0  0  0
    3.1800   -2.5428    5.4434 H   0  0  0  0  0  0  0  0  0  0  0  0
    4.3846   -4.1500    4.1137 H   0  0  0  0  0  0  0  0  0  0  0  0
  1  2  1  0
  1 30  1  0
  1 31  1  0
  1 32  1  0
  2  3  1  0
  2 33  1  0
  2 34  1  0
  3  4  1  0
  3 35  1  0
  3 36  1  0
  4  5  1  0
  4 37  1  0
  4 38  1  0
  5  6  1  0
  6 29  2  0
  6  7  1  0
  7  8  2  0
  7 39  1  0
  8  9  1  0
  8 40  1  0
  9 10  1  0
  9 28  2  0
 10 27  1  0
 10 11  1  1
 10 12  1  0
 11 41  1  0
 11 42  1  0
 11 43  1  0
 12 13  1  0
 12 44  1  0
 12 45  1  0
 13 14  1  0
 13 22  2  0
 14 21  1  0
 14 15  2  0
 15 16  1  0
 15 46  1  0
 16 17  2  0
 16 47  1  0
 17 18  1  0
 17 20  1  0
 18 19  1  0
 19 48  1  0
 19 49  1  0
 19 50  1  0
 20 21  2  0
 20 51  1  0
 21 52  1  0
 22 23  1  0
 22 25  1  0
 23 24  3  0
 25 26  2  0
 25 27  1  0
 27 53  1  0
 28 29  1  0
 28 54  1  0
 29 55  1  0
M  END
>  <i_m_ct_stereo_status>  (161) 
1

>  <s_m_source_file>  (161) 
/var/tmp/pbs.5076255.sched01/tmpqm933_o1/456x1pmp19.sdf

>  <i_m_source_file_index>  (161) 
21

>  <i_lp_mmshare_version>  (161) 
48012

>  <i_f3d_flags>  (161) 
0

>  <s_epik_input>  (161) 
W0NIM11bQ0gyXVtDSDJdW0NIMl1PYzFbY0hdW2NIXWMoW2NIXVtjSF0xKVtDQEBdMihbQ0gzXSlbQ0gyXUMoPUMoQyNOKUMoPU8pW05IXTIpYzNbY0hdW2NIXWMoT1tDSDNdKVtjSF1bY0hdMw==

>  <s_epik_cmdline>  (161) 
J2VwaWtfcHl0aG9uJywgJy1waHQnLCAnMi4wJywgJy1waCcsICc3LjAnLCAnLXRuJywgJzgnLCAnLW1hJywgJzIwMCcsICctaW1hZScsICc8aW5maWxlLm1hZT4nLCAnLW9tYWUnLCAnPG91dGZpbGUubWFlPic=

>  <r_lp_tautomer_probability>  (161) 
1

>  <r_epik_Ionization_Penalty>  (161) 
0.0017088

>  <r_epik_Ionization_Penalty_Charging>  (161) 
0

>  <r_epik_Ionization_Penalty_Neutral>  (161) 
0.0017088

>  <r_epik_State_Penalty>  (161) 
0.00115492

>  <r_epik_Charging_Adjusted_Penalty>  (161) 
0.00115492

>  <i_epik_Tot_Q>  (161) 
0

>  <i_epik_Tot_abs_Q>  (161) 
0

>  <s_lp_Force_Field>  (161) 
OPLS3e

>  <r_lp_Energy>  (161) 
48.8267

>  <b_lp_Chiralities_Consistent>  (161) 
1

>  <s_lp_Variant>  (161) 
35:0-1

>  <s_i_glide_gridfile>  (161) 
pfpi4k_grid

>  <i_i_glide_lignum>  (161) 
21

>  <i_i_glide_rotatable_bonds>  (161) 
8

>  <r_i_docking_score>  (161) 
-2.06783

>  <r_i_glide_ligand_efficiency>  (161) 
-0.0713043

>  <r_i_glide_ligand_efficiency_sa>  (161) 
-0.219069

>  <r_i_glide_ligand_efficiency_ln>  (161) 
-0.47348

>  <r_i_glide_gscore>  (161) 
-2.06783

>  <r_i_glide_lipo>  (161) 
-0.0791353

>  <r_i_glide_hbond>  (161) 
-0.136442

>  <r_i_glide_metal>  (161) 
-0

>  <r_i_glide_rewards>  (161) 
-0.746762

>  <r_i_glide_evdw>  (161) 
-19.7083

>  <r_i_glide_ecoul>  (161) 
-4.67941

>  <r_i_glide_erotb>  (161) 
0.639626

>  <r_i_glide_esite>  (161) 
-0.0577877

>  <r_i_glide_emodel>  (161) 
-26.7852

>  <r_i_glide_energy>  (161) 
-24.3877

>  <r_i_glide_einternal>  (161) 
2.69798

>  <r_i_glide_intrahb_reward>  (161) 
-0

>  <i_i_glide_confnum>  (161) 
3

>  <i_i_glide_posenum>  (161) 
2

>  <r_i_glide_eff_state_penalty>  (161) 
0

>  <ligand_id>  (161) 
35

>  <original_smiles>  (161) 
CCCCOc1ccc(C2(C)CC(c3ccc(OC)cc3)=C(C#N)C(=O)N2)cc1

>  <smiles>  (161) 
[H]c1c([H])c(C2=C(C#N)C(=O)N([H])C(c3c([H])c([H])c(OC([H])([H])C([H])([H])C([H])([H])C([H])([H])[H])c([H])c3[H])(C([H])([H])[H])C2([H])[H])c([H])c([H])c1OC([H])([H])[H]

$$$$
35:0:2
     RDKit          3D

 55 57  0  0  1  0  0  0  0  0999 V2000
    6.8728   -9.2247    2.0629 C   0  0  0  0  0  0  0  0  0  0  0  0
    5.4953   -9.7710    1.6576 C   0  0  0  0  0  0  0  0  0  0  0  0
    4.5994   -8.7667    0.9067 C   0  0  0  0  0  0  0  0  0  0  0  0
    4.4098   -7.4425    1.6396 C   0  0  0  0  0  0  0  0  0  0  0  0
    3.8114   -6.5198    0.7484 O   0  0  0  0  0  0  0  0  0  0  0  0
    3.7587   -5.2134    1.1551 C   0  0  0  0  0  0  0  0  0  0  0  0
    3.1784   -4.3241    0.2448 C   0  0  0  0  0  0  0  0  0  0  0  0
    3.0311   -2.9680    0.5749 C   0  0  0  0  0  0  0  0  0  0  0  0
    3.5052   -2.4529    1.8035 C   0  0  0  0  0  0  0  0  0  0  0  0
    3.3785   -0.9509    2.1176 C   0  0  1  0  0  0  0  0  0  0  0  0
    3.7702   -0.1007    0.8865 C   0  0  0  0  0  0  0  0  0  0  0  0
    1.9208   -0.6492    2.5189 C   0  0  0  0  0  0  0  0  0  0  0  0
    1.7788    0.5367    3.4799 C   0  0  0  0  0  0  0  0  0  0  0  0
    0.4514    1.1240    3.6341 C   0  0  0  0  0  0  0  0  0  0  0  0
   -0.2579    1.4468    2.4793 C   0  0  0  0  0  0  0  0  0  0  0  0
   -1.5167    2.0363    2.5867 C   0  0  0  0  0  0  0  0  0  0  0  0
   -2.0973    2.3590    3.8378 C   0  0  0  0  0  0  0  0  0  0  0  0
   -3.3435    2.9383    3.9389 O   0  0  0  0  0  0  0  0  0  0  0  0
   -3.9691    3.3836    2.7352 C   0  0  0  0  0  0  0  0  0  0  0  0
   -1.3878    2.0222    5.0040 C   0  0  0  0  0  0  0  0  0  0  0  0
   -0.1307    1.3771    4.8965 C   0  0  0  0  0  0  0  0  0  0  0  0
    2.8342    1.0106    4.1936 C   0  0  0  0  0  0  0  0  0  0  0  0
    2.7158    2.1139    5.0838 C   0  0  0  0  0  0  0  0  0  0  0  0
    2.6251    3.0164    5.8160 N   0  0  0  0  0  0  0  0  0  0  0  0
    4.1611    0.3928    4.1191 C   0  0  0  0  0  0  0  0  0  0  0  0
    5.0852    0.6555    4.8795 O   0  0  0  0  0  0  0  0  0  0  0  0
    4.3079   -0.5626    3.1831 N   0  0  0  0  0  0  0  0  0  0  0  0
    4.0864   -3.3616    2.7246 C   0  0  0  0  0  0  0  0  0  0  0  0
    4.2176   -4.7289    2.4073 C   0  0  0  0  0  0  0  0  0  0  0  0
    7.4529  -10.0155    2.5419 H   0  0  0  0  0  0  0  0  0  0  0  0
    6.8117   -8.4056    2.7796 H   0  0  0  0  0  0  0  0  0  0  0  0
    7.4117   -8.8677    1.1835 H   0  0  0  0  0  0  0  0  0  0  0  0
    5.6459  -10.6456    1.0200 H   0  0  0  0  0  0  0  0  0  0  0  0
    4.9646  -10.1326    2.5398 H   0  0  0  0  0  0  0  0  0  0  0  0
    5.0161   -8.5689   -0.0797 H   0  0  0  0  0  0  0  0  0  0  0  0
    3.6260   -9.2217    0.7105 H   0  0  0  0  0  0  0  0  0  0  0  0
    3.7820   -7.5615    2.5209 H   0  0  0  0  0  0  0  0  0  0  0  0
    5.3727   -7.0211    1.9304 H   0  0  0  0  0  0  0  0  0  0  0  0
    2.8480   -4.6786   -0.7204 H   0  0  0  0  0  0  0  0  0  0  0  0
    2.5454   -2.3411   -0.1526 H   0  0  0  0  0  0  0  0  0  0  0  0
    3.1175   -0.2755    0.0341 H   0  0  0  0  0  0  0  0  0  0  0  0
    4.7903   -0.3060    0.5643 H   0  0  0  0  0  0  0  0  0  0  0  0
    3.7023    0.9694    1.0940 H   0  0  0  0  0  0  0  0  0  0  0  0
    1.3572   -0.5241    1.6085 H   0  0  0  0  0  0  0  0  0  0  0  0
    1.4567   -1.4956    3.0213 H   0  0  0  0  0  0  0  0  0  0  0  0
    0.1245    1.2855    1.4814 H   0  0  0  0  0  0  0  0  0  0  0  0
   -2.0496    2.1965    1.6837 H   0  0  0  0  0  0  0  0  0  0  0  0
   -4.9562    3.8462    2.9107 H   0  0  0  0  0  0  0  0  0  0  0  0
   -4.1406    2.5450    2.0583 H   0  0  0  0  0  0  0  0  0  0  0  0
   -3.3479    4.1345    2.2412 H   0  0  0  0  0  0  0  0  0  0  0  0
   -1.8152    2.2637    5.9679 H   0  0  0  0  0  0  0  0  0  0  0  0
    0.3768    1.1184    5.8030 H   0  0  0  0  0  0  0  0  0  0  0  0
    5.2097   -1.0107    3.1667 H   0  0  0  0  0  0  0  0  0  0  0  0
    4.4302   -3.0322    3.6917 H   0  0  0  0  0  0  0  0  0  0  0  0
    4.6789   -5.3664    3.1490 H   0  0  0  0  0  0  0  0  0  0  0  0
  1  2  1  0
  1 30  1  0
  1 31  1  0
  1 32  1  0
  2  3  1  0
  2 33  1  0
  2 34  1  0
  3  4  1  0
  3 35  1  0
  3 36  1  0
  4  5  1  0
  4 37  1  0
  4 38  1  0
  5  6  1  0
  6 29  2  0
  6  7  1  0
  7  8  2  0
  7 39  1  0
  8  9  1  0
  8 40  1  0
  9 10  1  0
  9 28  2  0
 10 27  1  0
 10 11  1  6
 10 12  1  0
 11 41  1  0
 11 42  1  0
 11 43  1  0
 12 13  1  0
 12 44  1  0
 12 45  1  0
 13 14  1  0
 13 22  2  0
 14 21  1  0
 14 15  2  0
 15 16  1  0
 15 46  1  0
 16 17  2  0
 16 47  1  0
 17 18  1  0
 17 20  1  0
 18 19  1  0
 19 48  1  0
 19 49  1  0
 19 50  1  0
 20 21  2  0
 20 51  1  0
 21 52  1  0
 22 23  1  0
 22 25  1  0
 23 24  3  0
 25 26  2  0
 25 27  1  0
 27 53  1  0
 28 29  1  0
 28 54  1  0
 29 55  1  0
M  END
>  <i_m_ct_stereo_status>  (162) 
1

>  <s_m_source_file>  (162) 
/var/tmp/pbs.5076255.sched01/tmpqm933_o1/456x1pmp19.sdf

>  <i_m_source_file_index>  (162) 
21

>  <i_lp_mmshare_version>  (162) 
48012

>  <i_f3d_flags>  (162) 
0

>  <s_epik_input>  (162) 
W0NIM11bQ0gyXVtDSDJdW0NIMl1PYzFbY0hdW2NIXWMoW2NIXVtjSF0xKVtDQEBdMihbQ0gzXSlbQ0gyXUMoPUMoQyNOKUMoPU8pW05IXTIpYzNbY0hdW2NIXWMoT1tDSDNdKVtjSF1bY0hdMw==

>  <s_epik_cmdline>  (162) 
J2VwaWtfcHl0aG9uJywgJy1waHQnLCAnMi4wJywgJy1waCcsICc3LjAnLCAnLXRuJywgJzgnLCAnLW1hJywgJzIwMCcsICctaW1hZScsICc8aW5maWxlLm1hZT4nLCAnLW9tYWUnLCAnPG91dGZpbGUubWFlPic=

>  <r_lp_tautomer_probability>  (162) 
1

>  <r_epik_Ionization_Penalty>  (162) 
0.0017088

>  <r_epik_Ionization_Penalty_Charging>  (162) 
0

>  <r_epik_Ionization_Penalty_Neutral>  (162) 
0.0017088

>  <r_epik_State_Penalty>  (162) 
0.00115492

>  <r_epik_Charging_Adjusted_Penalty>  (162) 
0.00115492

>  <i_epik_Tot_Q>  (162) 
0

>  <i_epik_Tot_abs_Q>  (162) 
0

>  <s_lp_Force_Field>  (162) 
OPLS3e

>  <r_lp_Energy>  (162) 
48.8267

>  <b_lp_Chiralities_Consistent>  (162) 
1

>  <s_lp_Variant>  (162) 
35:0-1

>  <s_i_glide_gridfile>  (162) 
pfpi4k_grid

>  <i_i_glide_lignum>  (162) 
21

>  <i_i_glide_rotatable_bonds>  (162) 
8

>  <r_i_docking_score>  (162) 
-2.03669

>  <r_i_glide_ligand_efficiency>  (162) 
-0.0702308

>  <r_i_glide_ligand_efficiency_sa>  (162) 
-0.215771

>  <r_i_glide_ligand_efficiency_ln>  (162) 
-0.466351

>  <r_i_glide_gscore>  (162) 
-2.03669

>  <r_i_glide_lipo>  (162) 
-0.259456

>  <r_i_glide_hbond>  (162) 
0

>  <r_i_glide_metal>  (162) 
-0

>  <r_i_glide_rewards>  (162) 
-0.751044

>  <r_i_glide_evdw>  (162) 
-26.8256

>  <r_i_glide_ecoul>  (162) 
-2.15339

>  <r_i_glide_erotb>  (162) 
0.639626

>  <r_i_glide_esite>  (162) 
-0.00153134

>  <r_i_glide_emodel>  (162) 
-28.4002

>  <r_i_glide_energy>  (162) 
-28.979

>  <r_i_glide_einternal>  (162) 
8.06765

>  <r_i_glide_intrahb_reward>  (162) 
-0

>  <i_i_glide_confnum>  (162) 
4

>  <i_i_glide_posenum>  (162) 
37

>  <r_i_glide_eff_state_penalty>  (162) 
0

>  <ligand_id>  (162) 
35

>  <original_smiles>  (162) 
CCCCOc1ccc(C2(C)CC(c3ccc(OC)cc3)=C(C#N)C(=O)N2)cc1

>  <smiles>  (162) 
[H]c1c([H])c(C2=C(C#N)C(=O)N([H])C(c3c([H])c([H])c(OC([H])([H])C([H])([H])C([H])([H])C([H])([H])[H])c([H])c3[H])(C([H])([H])[H])C2([H])[H])c([H])c([H])c1OC([H])([H])[H]

$$$$
36:0:0
     RDKit          3D

 50 53  0  0  1  0  0  0  0  0999 V2000
    4.5515   -6.9708    5.6800 C   0  0  0  0  0  0  0  0  0  0  0  0
    4.6672   -6.7952    4.3555 C   0  0  0  0  0  0  0  0  0  0  0  0
    3.6881   -6.1149    3.4297 C   0  0  0  0  0  0  0  0  0  0  0  0
    4.0780   -6.5786    2.0066 C   0  0  1  0  0  0  0  0  0  0  0  0
    3.8447   -5.5311    0.8855 C   0  0  1  0  0  0  0  0  0  0  0  0
    2.3718   -5.1769    0.6681 C   0  0  0  0  0  0  0  0  0  0  0  0
    2.2427   -4.1465   -0.4303 C   0  0  0  0  0  0  0  0  0  0  0  0
    3.2371   -3.3428   -0.8495 C   0  0  0  0  0  0  0  0  0  0  0  0
    3.0658   -2.4936   -2.0974 C   0  0  0  0  0  0  0  0  0  0  0  0
    4.0349   -2.9722   -3.1865 C   0  0  1  0  0  0  0  0  0  0  0  0
    3.9608   -2.0894   -4.2907 O   0  0  0  0  0  0  0  0  0  0  0  0
    5.4841   -3.0657   -2.6693 C   0  0  0  0  0  0  0  0  0  0  0  0
    5.6013   -3.8367   -1.3319 C   0  0  0  0  0  0  0  0  0  0  0  0
    4.6440   -3.3351   -0.2258 C   0  0  1  0  0  0  0  0  0  0  0  0
    5.0151   -1.8897    0.1956 C   0  0  0  0  0  0  0  0  0  0  0  0
    4.6803   -4.2412    1.0626 C   0  0  2  0  0  0  0  0  0  0  0  0
    6.0728   -4.5462    1.6764 C   0  0  0  0  0  0  0  0  0  0  0  0
    6.5219   -6.0065    1.4662 C   0  0  0  0  0  0  0  0  0  0  0  0
    5.5457   -7.0693    2.0516 C   0  0  2  0  0  0  0  0  0  0  0  0
    5.7186   -8.3974    1.2858 C   0  0  0  0  0  0  0  0  0  0  0  0
    5.7656   -7.3197    3.5454 C   0  0  0  0  0  0  0  0  0  0  0  0
    6.7452   -7.9504    3.9650 O   0  0  0  0  0  0  0  0  0  0  0  0
    5.2934   -7.5159    6.2447 H   0  0  0  0  0  0  0  0  0  0  0  0
    3.7082   -6.5872    6.2281 H   0  0  0  0  0  0  0  0  0  0  0  0
    2.6613   -6.3816    3.6855 H   0  0  0  0  0  0  0  0  0  0  0  0
    3.8099   -5.0430    3.5784 H   0  0  0  0  0  0  0  0  0  0  0  0
    3.4488   -7.4420    1.7800 H   0  0  0  0  0  0  0  0  0  0  0  0
    4.1768   -6.0172   -0.0283 H   0  0  0  0  0  0  0  0  0  0  0  0
    1.8388   -6.0743    0.3587 H   0  0  0  0  0  0  0  0  0  0  0  0
    1.9026   -4.8069    1.5786 H   0  0  0  0  0  0  0  0  0  0  0  0
    1.3039   -4.1246   -0.9516 H   0  0  0  0  0  0  0  0  0  0  0  0
    2.0418   -2.5637   -2.4598 H   0  0  0  0  0  0  0  0  0  0  0  0
    3.2271   -1.4449   -1.8595 H   0  0  0  0  0  0  0  0  0  0  0  0
    3.7176   -3.9622   -3.5232 H   0  0  0  0  0  0  0  0  0  0  0  0
    3.0442   -1.9491   -4.4981 H   0  0  0  0  0  0  0  0  0  0  0  0
    6.1054   -3.5552   -3.4202 H   0  0  0  0  0  0  0  0  0  0  0  0
    5.8969   -2.0665   -2.5419 H   0  0  0  0  0  0  0  0  0  0  0  0
    5.3834   -4.8860   -1.5296 H   0  0  0  0  0  0  0  0  0  0  0  0
    6.6351   -3.7995   -0.9896 H   0  0  0  0  0  0  0  0  0  0  0  0
    5.9878   -1.8440    0.6816 H   0  0  0  0  0  0  0  0  0  0  0  0
    4.2789   -1.4830    0.8863 H   0  0  0  0  0  0  0  0  0  0  0  0
    5.0581   -1.2014   -0.6466 H   0  0  0  0  0  0  0  0  0  0  0  0
    4.1691   -3.6573    1.8185 H   0  0  0  0  0  0  0  0  0  0  0  0
    6.8381   -3.8838    1.2802 H   0  0  0  0  0  0  0  0  0  0  0  0
    6.0554   -4.3312    2.7561 H   0  0  0  0  0  0  0  0  0  0  0  0
    6.6490   -6.1693    0.3851 H   0  0  0  0  0  0  0  0  0  0  0  0
    7.5099   -6.1261    1.9007 H   0  0  0  0  0  0  0  0  0  0  0  0
    5.3627   -8.2985    0.2615 H   0  0  0  0  0  0  0  0  0  0  0  0
    5.1492   -9.2095    1.7377 H   0  0  0  0  0  0  0  0  0  0  0  0
    6.7638   -8.7071    1.2512 H   0  0  0  0  0  0  0  0  0  0  0  0
  1  2  2  0
  1 23  1  0
  1 24  1  0
  2 21  1  0
  2  3  1  0
  3  4  1  0
  3 25  1  0
  3 26  1  0
  4 19  1  0
  4  5  1  0
  4 27  1  6
  5 16  1  0
  5  6  1  0
  5 28  1  6
  6  7  1  0
  6 29  1  0
  6 30  1  0
  7  8  2  0
  7 31  1  0
  8 14  1  0
  8  9  1  0
  9 10  1  0
  9 32  1  0
  9 33  1  0
 10 11  1  0
 10 12  1  0
 10 34  1  6
 11 35  1  0
 12 13  1  0
 12 36  1  0
 12 37  1  0
 13 14  1  0
 13 38  1  0
 13 39  1  0
 14 15  1  1
 14 16  1  0
 15 40  1  0
 15 41  1  0
 15 42  1  0
 16 17  1  0
 16 43  1  1
 17 18  1  0
 17 44  1  0
 17 45  1  0
 18 19  1  0
 18 46  1  0
 18 47  1  0
 19 20  1  6
 19 21  1  0
 20 48  1  0
 20 49  1  0
 20 50  1  0
 21 22  2  0
M  END
>  <i_m_ct_stereo_status>  (163) 
1

>  <s_m_source_file>  (163) 
/var/tmp/pbs.5076255.sched01/tmpqm933_o1/456x1pmp19.sdf

>  <i_m_source_file_index>  (163) 
22

>  <i_lp_mmshare_version>  (163) 
48012

>  <i_f3d_flags>  (163) 
0

>  <s_epik_input>  (163) 
W0NIMl09QyhbQ0gyXTEpQyg9TylbQ0BdKFtDSDNdKShbQ0gyXVtDSDJdW0NASF0yMylbQ0BASF0xW0NASF0yW0NIMl1bQ0hdPUMoW0NAQF0zNFtDSDNdKVtDSDJdW0NAQEhdKFtPSF0pW0NIMl1bQ0gyXTQ=

>  <s_epik_cmdline>  (163) 
J2VwaWtfcHl0aG9uJywgJy1waHQnLCAnMi4wJywgJy1waCcsICc3LjAnLCAnLXRuJywgJzgnLCAnLW1hJywgJzIwMCcsICctaW1hZScsICc8aW5maWxlLm1hZT4nLCAnLW9tYWUnLCAnPG91dGZpbGUubWFlPic=

>  <r_lp_tautomer_probability>  (163) 
1

>  <r_epik_Ionization_Penalty>  (163) 
1.10061e-06

>  <r_epik_Ionization_Penalty_Charging>  (163) 
0

>  <r_epik_Ionization_Penalty_Neutral>  (163) 
1.10061e-06

>  <r_epik_State_Penalty>  (163) 
-0

>  <r_epik_Charging_Adjusted_Penalty>  (163) 
0

>  <i_epik_Tot_Q>  (163) 
0

>  <i_epik_Tot_abs_Q>  (163) 
0

>  <s_lp_Force_Field>  (163) 
OPLS3e

>  <r_lp_Energy>  (163) 
24.1247

>  <b_lp_Chiralities_Consistent>  (163) 
1

>  <s_lp_Variant>  (163) 
36:0-1

>  <s_i_glide_gridfile>  (163) 
pfpi4k_grid

>  <i_i_glide_lignum>  (163) 
22

>  <i_i_glide_rotatable_bonds>  (163) 
1

>  <r_i_docking_score>  (163) 
-4.26887

>  <r_i_glide_ligand_efficiency>  (163) 
-0.19404

>  <r_i_glide_ligand_efficiency_sa>  (163) 
-0.543706

>  <r_i_glide_ligand_efficiency_ln>  (163) 
-1.04347

>  <r_i_glide_gscore>  (163) 
-4.26887

>  <r_i_glide_lipo>  (163) 
-0.847425

>  <r_i_glide_hbond>  (163) 
-0.32

>  <r_i_glide_metal>  (163) 
-0

>  <r_i_glide_rewards>  (163) 
-1.36067

>  <r_i_glide_evdw>  (163) 
-22.9885

>  <r_i_glide_ecoul>  (163) 
-3.94234

>  <r_i_glide_erotb>  (163) 
0

>  <r_i_glide_esite>  (163) 
0

>  <r_i_glide_emodel>  (163) 
-34.0855

>  <r_i_glide_energy>  (163) 
-26.9308

>  <r_i_glide_einternal>  (163) 
0.471944

>  <r_i_glide_intrahb_reward>  (163) 
-0

>  <i_i_glide_confnum>  (163) 
1

>  <i_i_glide_posenum>  (163) 
16

>  <r_i_glide_eff_state_penalty>  (163) 
0

>  <ligand_id>  (163) 
36

>  <original_smiles>  (163) 
C=C1CC2C3CC=C4CC(O)CCC4(C)C3CCC2(C)C1=O

>  <smiles>  (163) 
[H]OC1([H])C([H])([H])C2=C([H])C([H])([H])C3([H])C4([H])C([H])([H])C(=C([H])[H])C(=O)C4(C([H])([H])[H])C([H])([H])C([H])([H])C3([H])C2(C([H])([H])[H])C([H])([H])C1([H])[H]

$$$$
36:0:1
     RDKit          3D

 50 53  0  0  1  0  0  0  0  0999 V2000
    4.2013   -7.2327    5.6394 C   0  0  0  0  0  0  0  0  0  0  0  0
    4.3963   -7.0068    4.3297 C   0  0  0  0  0  0  0  0  0  0  0  0
    3.4682   -6.3052    3.3712 C   0  0  0  0  0  0  0  0  0  0  0  0
    3.9529   -6.7128    1.9574 C   0  0  1  0  0  0  0  0  0  0  0  0
    3.7786   -5.6265    0.8660 C   0  0  1  0  0  0  0  0  0  0  0  0
    2.3174   -5.2764    0.5690 C   0  0  0  0  0  0  0  0  0  0  0  0
    2.2430   -4.1985   -0.4949 C   0  0  0  0  0  0  0  0  0  0  0  0
    3.2498   -3.3772   -0.8252 C   0  0  0  0  0  0  0  0  0  0  0  0
    3.1565   -2.4850   -2.0542 C   0  0  0  0  0  0  0  0  0  0  0  0
    4.2024   -2.9150   -3.0929 C   0  0  1  0  0  0  0  0  0  0  0  0
    4.2059   -2.0020   -4.1748 O   0  0  0  0  0  0  0  0  0  0  0  0
    5.6154   -3.0162   -2.4857 C   0  0  0  0  0  0  0  0  0  0  0  0
    5.6444   -3.8376   -1.1751 C   0  0  0  0  0  0  0  0  0  0  0  0
    4.6207   -3.3804   -0.1136 C   0  0  1  0  0  0  0  0  0  0  0  0
    4.9514   -1.9523    0.3793 C   0  0  0  0  0  0  0  0  0  0  0  0
    4.5851   -4.3358    1.1371 C   0  0  2  0  0  0  0  0  0  0  0  0
    5.9430   -4.6522    1.8283 C   0  0  0  0  0  0  0  0  0  0  0  0
    6.4178   -6.1006    1.5889 C   0  0  0  0  0  0  0  0  0  0  0  0
    5.4216   -7.1929    2.0801 C   0  0  2  0  0  0  0  0  0  0  0  0
    5.6580   -8.4913    1.2850 C   0  0  0  0  0  0  0  0  0  0  0  0
    5.5513   -7.4929    3.5774 C   0  0  0  0  0  0  0  0  0  0  0  0
    6.5103   -8.1220    4.0309 O   0  0  0  0  0  0  0  0  0  0  0  0
    4.9139   -7.7917    6.2295 H   0  0  0  0  0  0  0  0  0  0  0  0
    3.3205   -6.8793    6.1472 H   0  0  0  0  0  0  0  0  0  0  0  0
    2.4317   -6.5905    3.5513 H   0  0  0  0  0  0  0  0  0  0  0  0
    3.5676   -5.2377    3.5644 H   0  0  0  0  0  0  0  0  0  0  0  0
    3.3483   -7.5728    1.6614 H   0  0  0  0  0  0  0  0  0  0  0  0
    4.1705   -6.0773   -0.0454 H   0  0  0  0  0  0  0  0  0  0  0  0
    1.8131   -6.1646    0.1929 H   0  0  0  0  0  0  0  0  0  0  0  0
    1.8004   -4.9455    1.4673 H   0  0  0  0  0  0  0  0  0  0  0  0
    1.3295   -4.1670   -1.0669 H   0  0  0  0  0  0  0  0  0  0  0  0
    2.1577   -2.5516   -2.4849 H   0  0  0  0  0  0  0  0  0  0  0  0
    3.2832   -1.4454   -1.7618 H   0  0  0  0  0  0  0  0  0  0  0  0
    3.9222   -3.8949   -3.4842 H   0  0  0  0  0  0  0  0  0  0  0  0
    4.1381   -1.1238   -3.8262 H   0  0  0  0  0  0  0  0  0  0  0  0
    6.2806   -3.4809   -3.2132 H   0  0  0  0  0  0  0  0  0  0  0  0
    6.0187   -2.0213   -2.3059 H   0  0  0  0  0  0  0  0  0  0  0  0
    5.4148   -4.8704   -1.4311 H   0  0  0  0  0  0  0  0  0  0  0  0
    6.6572   -3.8215   -0.7691 H   0  0  0  0  0  0  0  0  0  0  0  0
    5.8953   -1.9171    0.9245 H   0  0  0  0  0  0  0  0  0  0  0  0
    4.1718   -1.5767    1.0394 H   0  0  0  0  0  0  0  0  0  0  0  0
    5.0378   -1.2319   -0.4319 H   0  0  0  0  0  0  0  0  0  0  0  0
    4.0220   -3.7847    1.8850 H   0  0  0  0  0  0  0  0  0  0  0  0
    6.7224   -3.9704    1.5037 H   0  0  0  0  0  0  0  0  0  0  0  0
    5.8547   -4.4796    2.9073 H   0  0  0  0  0  0  0  0  0  0  0  0
    6.6123   -6.2236    0.5172 H   0  0  0  0  0  0  0  0  0  0  0  0
    7.3803   -6.2285    2.0791 H   0  0  0  0  0  0  0  0  0  0  0  0
    5.3690   -8.3598    0.2423 H   0  0  0  0  0  0  0  0  0  0  0  0
    5.0682   -9.3237    1.6685 H   0  0  0  0  0  0  0  0  0  0  0  0
    6.7060   -8.7908    1.3116 H   0  0  0  0  0  0  0  0  0  0  0  0
  1  2  2  0
  1 23  1  0
  1 24  1  0
  2 21  1  0
  2  3  1  0
  3  4  1  0
  3 25  1  0
  3 26  1  0
  4 19  1  0
  4  5  1  0
  4 27  1  6
  5 16  1  0
  5  6  1  0
  5 28  1  6
  6  7  1  0
  6 29  1  0
  6 30  1  0
  7  8  2  0
  7 31  1  0
  8 14  1  0
  8  9  1  0
  9 10  1  0
  9 32  1  0
  9 33  1  0
 10 11  1  0
 10 12  1  0
 10 34  1  6
 11 35  1  0
 12 13  1  0
 12 36  1  0
 12 37  1  0
 13 14  1  0
 13 38  1  0
 13 39  1  0
 14 15  1  1
 14 16  1  0
 15 40  1  0
 15 41  1  0
 15 42  1  0
 16 17  1  0
 16 43  1  1
 17 18  1  0
 17 44  1  0
 17 45  1  0
 18 19  1  0
 18 46  1  0
 18 47  1  0
 19 20  1  6
 19 21  1  0
 20 48  1  0
 20 49  1  0
 20 50  1  0
 21 22  2  0
M  END
>  <i_m_ct_stereo_status>  (164) 
1

>  <s_m_source_file>  (164) 
/var/tmp/pbs.5076255.sched01/tmpqm933_o1/456x1pmp19.sdf

>  <i_m_source_file_index>  (164) 
22

>  <i_lp_mmshare_version>  (164) 
48012

>  <i_f3d_flags>  (164) 
0

>  <s_epik_input>  (164) 
W0NIMl09QyhbQ0gyXTEpQyg9TylbQ0BdKFtDSDNdKShbQ0gyXVtDSDJdW0NASF0yMylbQ0BASF0xW0NASF0yW0NIMl1bQ0hdPUMoW0NAQF0zNFtDSDNdKVtDSDJdW0NAQEhdKFtPSF0pW0NIMl1bQ0gyXTQ=

>  <s_epik_cmdline>  (164) 
J2VwaWtfcHl0aG9uJywgJy1waHQnLCAnMi4wJywgJy1waCcsICc3LjAnLCAnLXRuJywgJzgnLCAnLW1hJywgJzIwMCcsICctaW1hZScsICc8aW5maWxlLm1hZT4nLCAnLW9tYWUnLCAnPG91dGZpbGUubWFlPic=

>  <r_lp_tautomer_probability>  (164) 
1

>  <r_epik_Ionization_Penalty>  (164) 
1.10061e-06

>  <r_epik_Ionization_Penalty_Charging>  (164) 
0

>  <r_epik_Ionization_Penalty_Neutral>  (164) 
1.10061e-06

>  <r_epik_State_Penalty>  (164) 
-0

>  <r_epik_Charging_Adjusted_Penalty>  (164) 
0

>  <i_epik_Tot_Q>  (164) 
0

>  <i_epik_Tot_abs_Q>  (164) 
0

>  <s_lp_Force_Field>  (164) 
OPLS3e

>  <r_lp_Energy>  (164) 
24.1247

>  <b_lp_Chiralities_Consistent>  (164) 
1

>  <s_lp_Variant>  (164) 
36:0-1

>  <s_i_glide_gridfile>  (164) 
pfpi4k_grid

>  <i_i_glide_lignum>  (164) 
22

>  <i_i_glide_rotatable_bonds>  (164) 
1

>  <r_i_docking_score>  (164) 
-4.13276

>  <r_i_glide_ligand_efficiency>  (164) 
-0.187853

>  <r_i_glide_ligand_efficiency_sa>  (164) 
-0.526371

>  <r_i_glide_ligand_efficiency_ln>  (164) 
-1.0102

>  <r_i_glide_gscore>  (164) 
-4.13276

>  <r_i_glide_lipo>  (164) 
-0.790738

>  <r_i_glide_hbond>  (164) 
-0.32

>  <r_i_glide_metal>  (164) 
-0

>  <r_i_glide_rewards>  (164) 
-1.36067

>  <r_i_glide_evdw>  (164) 
-23.3446

>  <r_i_glide_ecoul>  (164) 
-3.29415

>  <r_i_glide_erotb>  (164) 
0

>  <r_i_glide_esite>  (164) 
0

>  <r_i_glide_emodel>  (164) 
-33.534

>  <r_i_glide_energy>  (164) 
-26.6388

>  <r_i_glide_einternal>  (164) 
0.352484

>  <r_i_glide_intrahb_reward>  (164) 
-0

>  <i_i_glide_confnum>  (164) 
2

>  <i_i_glide_posenum>  (164) 
24

>  <r_i_glide_eff_state_penalty>  (164) 
0

>  <ligand_id>  (164) 
36

>  <original_smiles>  (164) 
C=C1CC2C3CC=C4CC(O)CCC4(C)C3CCC2(C)C1=O

>  <smiles>  (164) 
[H]OC1([H])C([H])([H])C2=C([H])C([H])([H])C3([H])C4([H])C([H])([H])C(=C([H])[H])C(=O)C4(C([H])([H])[H])C([H])([H])C([H])([H])C3([H])C2(C([H])([H])[H])C([H])([H])C1([H])[H]

$$$$
36:0:2
     RDKit          3D

 50 53  0  0  1  0  0  0  0  0999 V2000
    4.9343   -4.2313    6.4535 C   0  0  0  0  0  0  0  0  0  0  0  0
    4.3158   -3.8540    5.3213 C   0  0  0  0  0  0  0  0  0  0  0  0
    4.8437   -2.9086    4.2729 C   0  0  0  0  0  0  0  0  0  0  0  0
    3.6088   -2.4819    3.4447 C   0  0  1  0  0  0  0  0  0  0  0  0
    3.8725   -2.2185    1.9476 C   0  0  1  0  0  0  0  0  0  0  0  0
    4.7973   -1.0298    1.6898 C   0  0  0  0  0  0  0  0  0  0  0  0
    5.0212   -0.8559    0.2046 C   0  0  0  0  0  0  0  0  0  0  0  0
    4.7876   -1.8034   -0.7234 C   0  0  0  0  0  0  0  0  0  0  0  0
    4.8224   -1.4685   -2.2085 C   0  0  0  0  0  0  0  0  0  0  0  0
    3.4231   -1.6713   -2.8175 C   0  0  1  0  0  0  0  0  0  0  0  0
    3.4889   -1.5062   -4.2209 O   0  0  0  0  0  0  0  0  0  0  0  0
    2.8374   -3.0550   -2.4916 C   0  0  0  0  0  0  0  0  0  0  0  0
    2.9270   -3.4117   -0.9864 C   0  0  0  0  0  0  0  0  0  0  0  0
    4.3431   -3.2359   -0.3808 C   0  0  1  0  0  0  0  0  0  0  0  0
    5.3312   -4.2419   -1.0210 C   0  0  0  0  0  0  0  0  0  0  0  0
    4.3747   -3.4609    1.1759 C   0  0  2  0  0  0  0  0  0  0  0  0
    3.7400   -4.7727    1.7156 C   0  0  0  0  0  0  0  0  0  0  0  0
    2.4116   -4.5314    2.4546 C   0  0  0  0  0  0  0  0  0  0  0  0
    2.5038   -3.5563    3.6617 C   0  0  2  0  0  0  0  0  0  0  0  0
    1.1201   -2.9134    3.9024 C   0  0  0  0  0  0  0  0  0  0  0  0
    2.9616   -4.2551    4.9509 C   0  0  0  0  0  0  0  0  0  0  0  0
    2.2259   -5.0051    5.5942 O   0  0  0  0  0  0  0  0  0  0  0  0
    4.4551   -4.8851    7.1678 H   0  0  0  0  0  0  0  0  0  0  0  0
    5.9278   -3.8873    6.7000 H   0  0  0  0  0  0  0  0  0  0  0  0
    5.3444   -2.0503    4.7231 H   0  0  0  0  0  0  0  0  0  0  0  0
    5.5744   -3.4568    3.6792 H   0  0  0  0  0  0  0  0  0  0  0  0
    3.2434   -1.5533    3.8853 H   0  0  0  0  0  0  0  0  0  0  0  0
    2.9005   -1.9472    1.5296 H   0  0  0  0  0  0  0  0  0  0  0  0
    4.3218   -0.1227    2.0642 H   0  0  0  0  0  0  0  0  0  0  0  0
    5.7607   -1.1268    2.1900 H   0  0  0  0  0  0  0  0  0  0  0  0
    5.3188    0.1320   -0.0965 H   0  0  0  0  0  0  0  0  0  0  0  0
    5.1368   -0.4322   -2.3553 H   0  0  0  0  0  0  0  0  0  0  0  0
    5.5606   -2.0870   -2.7195 H   0  0  0  0  0  0  0  0  0  0  0  0
    2.7595   -0.9027   -2.4146 H   0  0  0  0  0  0  0  0  0  0  0  0
    2.6042   -1.5291   -4.5699 H   0  0  0  0  0  0  0  0  0  0  0  0
    1.7895   -3.0851   -2.7990 H   0  0  0  0  0  0  0  0  0  0  0  0
    3.3437   -3.8249   -3.0822 H   0  0  0  0  0  0  0  0  0  0  0  0
    2.2285   -2.7654   -0.4535 H   0  0  0  0  0  0  0  0  0  0  0  0
    2.5728   -4.4295   -0.8416 H   0  0  0  0  0  0  0  0  0  0  0  0
    5.0810   -5.2727   -0.7733 H   0  0  0  0  0  0  0  0  0  0  0  0
    6.3537   -4.0577   -0.6893 H   0  0  0  0  0  0  0  0  0  0  0  0
    5.3468   -4.1910   -2.1106 H   0  0  0  0  0  0  0  0  0  0  0  0
    5.4345   -3.5549    1.4228 H   0  0  0  0  0  0  0  0  0  0  0  0
    3.5716   -5.4928    0.9156 H   0  0  0  0  0  0  0  0  0  0  0  0
    4.4325   -5.2718    2.3908 H   0  0  0  0  0  0  0  0  0  0  0  0
    1.7193   -4.1280    1.7245 H   0  0  0  0  0  0  0  0  0  0  0  0
    1.9875   -5.4878    2.7654 H   0  0  0  0  0  0  0  0  0  0  0  0
    0.8414   -2.2653    3.0722 H   0  0  0  0  0  0  0  0  0  0  0  0
    1.1067   -2.3077    4.8109 H   0  0  0  0  0  0  0  0  0  0  0  0
    0.3378   -3.6677    4.0077 H   0  0  0  0  0  0  0  0  0  0  0  0
  1  2  2  0
  1 23  1  0
  1 24  1  0
  2 21  1  0
  2  3  1  0
  3  4  1  0
  3 25  1  0
  3 26  1  0
  4 19  1  0
  4  5  1  0
  4 27  1  1
  5 16  1  0
  5  6  1  0
  5 28  1  6
  6  7  1  0
  6 29  1  0
  6 30  1  0
  7  8  2  0
  7 31  1  0
  8 14  1  0
  8  9  1  0
  9 10  1  0
  9 32  1  0
  9 33  1  0
 10 11  1  0
 10 12  1  0
 10 34  1  1
 11 35  1  0
 12 13  1  0
 12 36  1  0
 12 37  1  0
 13 14  1  0
 13 38  1  0
 13 39  1  0
 14 15  1  6
 14 16  1  0
 15 40  1  0
 15 41  1  0
 15 42  1  0
 16 17  1  0
 16 43  1  1
 17 18  1  0
 17 44  1  0
 17 45  1  0
 18 19  1  0
 18 46  1  0
 18 47  1  0
 19 20  1  1
 19 21  1  0
 20 48  1  0
 20 49  1  0
 20 50  1  0
 21 22  2  0
M  END
>  <i_m_ct_stereo_status>  (165) 
1

>  <s_m_source_file>  (165) 
/var/tmp/pbs.5076255.sched01/tmpqm933_o1/456x1pmp19.sdf

>  <i_m_source_file_index>  (165) 
22

>  <i_lp_mmshare_version>  (165) 
48012

>  <i_f3d_flags>  (165) 
0

>  <s_epik_input>  (165) 
W0NIMl09QyhbQ0gyXTEpQyg9TylbQ0BdKFtDSDNdKShbQ0gyXVtDSDJdW0NASF0yMylbQ0BASF0xW0NASF0yW0NIMl1bQ0hdPUMoW0NAQF0zNFtDSDNdKVtDSDJdW0NAQEhdKFtPSF0pW0NIMl1bQ0gyXTQ=

>  <s_epik_cmdline>  (165) 
J2VwaWtfcHl0aG9uJywgJy1waHQnLCAnMi4wJywgJy1waCcsICc3LjAnLCAnLXRuJywgJzgnLCAnLW1hJywgJzIwMCcsICctaW1hZScsICc8aW5maWxlLm1hZT4nLCAnLW9tYWUnLCAnPG91dGZpbGUubWFlPic=

>  <r_lp_tautomer_probability>  (165) 
1

>  <r_epik_Ionization_Penalty>  (165) 
1.10061e-06

>  <r_epik_Ionization_Penalty_Charging>  (165) 
0

>  <r_epik_Ionization_Penalty_Neutral>  (165) 
1.10061e-06

>  <r_epik_State_Penalty>  (165) 
-0

>  <r_epik_Charging_Adjusted_Penalty>  (165) 
0

>  <i_epik_Tot_Q>  (165) 
0

>  <i_epik_Tot_abs_Q>  (165) 
0

>  <s_lp_Force_Field>  (165) 
OPLS3e

>  <r_lp_Energy>  (165) 
24.1247

>  <b_lp_Chiralities_Consistent>  (165) 
1

>  <s_lp_Variant>  (165) 
36:0-1

>  <s_i_glide_gridfile>  (165) 
pfpi4k_grid

>  <i_i_glide_lignum>  (165) 
22

>  <i_i_glide_rotatable_bonds>  (165) 
1

>  <r_i_docking_score>  (165) 
-3.8248

>  <r_i_glide_ligand_efficiency>  (165) 
-0.173855

>  <r_i_glide_ligand_efficiency_sa>  (165) 
-0.487148

>  <r_i_glide_ligand_efficiency_ln>  (165) 
-0.934921

>  <r_i_glide_gscore>  (165) 
-3.8248

>  <r_i_glide_lipo>  (165) 
-0.351271

>  <r_i_glide_hbond>  (165) 
-0.225005

>  <r_i_glide_metal>  (165) 
-0

>  <r_i_glide_rewards>  (165) 
-1.36067

>  <r_i_glide_evdw>  (165) 
-24.3939

>  <r_i_glide_ecoul>  (165) 
-4.45441

>  <r_i_glide_erotb>  (165) 
0

>  <r_i_glide_esite>  (165) 
0

>  <r_i_glide_emodel>  (165) 
-35.3121

>  <r_i_glide_energy>  (165) 
-28.8483

>  <r_i_glide_einternal>  (165) 
0.326476

>  <r_i_glide_intrahb_reward>  (165) 
-0

>  <i_i_glide_confnum>  (165) 
2

>  <i_i_glide_posenum>  (165) 
8

>  <r_i_glide_eff_state_penalty>  (165) 
0

>  <ligand_id>  (165) 
36

>  <original_smiles>  (165) 
C=C1CC2C3CC=C4CC(O)CCC4(C)C3CCC2(C)C1=O

>  <smiles>  (165) 
[H]OC1([H])C([H])([H])C2=C([H])C([H])([H])C3([H])C4([H])C([H])([H])C(=C([H])[H])C(=O)C4(C([H])([H])[H])C([H])([H])C([H])([H])C3([H])C2(C([H])([H])[H])C([H])([H])C1([H])[H]

$$$$
37:0:0
     RDKit          3D

 17 18  0  0  1  0  0  0  0  0999 V2000
   -3.4957    3.2742    8.7616 C   0  0  0  0  0  0  0  0  0  0  0  0
   -2.3396    2.3708    8.3169 C   0  0  0  0  0  0  0  0  0  0  0  0
   -2.0808    2.4043    6.8861 N   0  0  0  0  0  0  0  0  0  0  0  0
   -1.5110    3.6049    5.7415 S   0  0  0  0  0  0  0  0  0  0  0  0
   -1.2112    2.0414    5.0029 C   0  0  0  0  0  0  0  0  0  0  0  0
   -0.5885    1.5491    3.8990 N   0  0  0  0  0  0  0  0  0  0  0  0
   -0.5712    0.1870    3.9600 C   0  0  0  0  0  0  0  0  0  0  0  0
   -1.1353   -0.6024    5.0097 C   0  0  0  0  0  0  0  0  0  0  0  0
   -1.7451   -0.0886    6.1123 N   0  0  0  0  0  0  0  0  0  0  0  0
   -1.7650    1.2604    6.1178 C   0  0  0  0  0  0  0  0  0  0  0  0
   -3.5817    3.2605    9.8496 H   0  0  0  0  0  0  0  0  0  0  0  0
   -4.4563    2.9464    8.3603 H   0  0  0  0  0  0  0  0  0  0  0  0
   -3.3336    4.3080    8.4650 H   0  0  0  0  0  0  0  0  0  0  0  0
   -1.4285    2.7051    8.8102 H   0  0  0  0  0  0  0  0  0  0  0  0
   -2.5070    1.3445    8.6408 H   0  0  0  0  0  0  0  0  0  0  0  0
   -0.0813   -0.2843    3.1277 H   0  0  0  0  0  0  0  0  0  0  0  0
   -1.0702   -1.6814    4.9529 H   0  0  0  0  0  0  0  0  0  0  0  0
  1  2  1  0
  1 11  1  0
  1 12  1  0
  1 13  1  0
  2  3  1  0
  2 14  1  0
  2 15  1  0
  3 10  1  0
  3  4  1  0
  4  5  1  0
  5 10  2  0
  5  6  1  0
  6  7  2  0
  7  8  1  0
  7 16  1  0
  8  9  2  0
  8 17  1  0
  9 10  1  0
M  END
>  <i_m_ct_stereo_status>  (166) 
1

>  <s_m_source_file>  (166) 
/var/tmp/pbs.5076255.sched01/tmpqm933_o1/456x1pmp19.sdf

>  <i_m_source_file_index>  (166) 
23

>  <i_lp_mmshare_version>  (166) 
48012

>  <i_f3d_flags>  (166) 
0

>  <s_epik_input>  (166) 
W0NIM11bQ0gyXW4oczEpYyhjMTIpbltjSF1bY0hdbjI=

>  <s_epik_cmdline>  (166) 
J2VwaWtfcHl0aG9uJywgJy1waHQnLCAnMi4wJywgJy1waCcsICc3LjAnLCAnLXRuJywgJzgnLCAnLW1hJywgJzIwMCcsICctaW1hZScsICc8aW5maWxlLm1hZT4nLCAnLW9tYWUnLCAnPG91dGZpbGUubWFlPic=

>  <r_lp_tautomer_probability>  (166) 
1

>  <r_epik_Ionization_Penalty>  (166) 
1.38211e-07

>  <r_epik_Ionization_Penalty_Charging>  (166) 
0

>  <r_epik_Ionization_Penalty_Neutral>  (166) 
1.38211e-07

>  <r_epik_State_Penalty>  (166) 
-0

>  <r_epik_Charging_Adjusted_Penalty>  (166) 
0

>  <i_epik_Tot_Q>  (166) 
0

>  <i_epik_Tot_abs_Q>  (166) 
0

>  <s_lp_Force_Field>  (166) 
OPLS3e

>  <r_lp_Energy>  (166) 
23.5925

>  <b_lp_Chiralities_Consistent>  (166) 
1

>  <s_lp_Variant>  (166) 
37:0-1

>  <s_i_glide_gridfile>  (166) 
pfpi4k_grid

>  <i_i_glide_lignum>  (166) 
23

>  <i_i_glide_rotatable_bonds>  (166) 
1

>  <r_i_docking_score>  (166) 
-3.5402

>  <r_i_glide_ligand_efficiency>  (166) 
-0.35402

>  <r_i_glide_ligand_efficiency_sa>  (166) 
-0.762713

>  <r_i_glide_ligand_efficiency_ln>  (166) 
-1.07195

>  <r_i_glide_gscore>  (166) 
-3.5402

>  <r_i_glide_lipo>  (166) 
-0.0180665

>  <r_i_glide_hbond>  (166) 
-0.156533

>  <r_i_glide_metal>  (166) 
-0

>  <r_i_glide_rewards>  (166) 
-2.29791

>  <r_i_glide_evdw>  (166) 
-13.2771

>  <r_i_glide_ecoul>  (166) 
-2.40728

>  <r_i_glide_erotb>  (166) 
0

>  <r_i_glide_esite>  (166) 
-0.0427474

>  <r_i_glide_emodel>  (166) 
-18.4382

>  <r_i_glide_energy>  (166) 
-15.6843

>  <r_i_glide_einternal>  (166) 
0.328143

>  <r_i_glide_intrahb_reward>  (166) 
-0

>  <i_i_glide_confnum>  (166) 
2

>  <i_i_glide_posenum>  (166) 
10

>  <r_i_glide_eff_state_penalty>  (166) 
0

>  <ligand_id>  (166) 
37

>  <original_smiles>  (166) 
CCn1sc2nccnc21

>  <smiles>  (166) 
[H]c1nc2sn(C([H])([H])C([H])([H])[H])c2nc1[H]

$$$$
37:0:1
     RDKit          3D

 17 18  0  0  1  0  0  0  0  0999 V2000
   -1.5378    3.6344    6.8975 C   0  0  0  0  0  0  0  0  0  0  0  0
   -2.6511    2.9803    6.0826 C   0  0  0  0  0  0  0  0  0  0  0  0
   -2.0478    2.2776    4.9694 N   0  0  0  0  0  0  0  0  0  0  0  0
   -1.2779    2.7306    3.4555 S   0  0  0  0  0  0  0  0  0  0  0  0
   -0.8037    1.0692    3.8014 C   0  0  0  0  0  0  0  0  0  0  0  0
    0.0537    0.1490    3.2886 N   0  0  0  0  0  0  0  0  0  0  0  0
    0.0710   -0.9421    4.1080 C   0  0  0  0  0  0  0  0  0  0  0  0
   -0.7103   -1.1067    5.2983 C   0  0  0  0  0  0  0  0  0  0  0  0
   -1.5522   -0.1599    5.8162 N   0  0  0  0  0  0  0  0  0  0  0  0
   -1.5780    0.9568    5.0471 C   0  0  0  0  0  0  0  0  0  0  0  0
   -1.9266    4.2266    7.7255 H   0  0  0  0  0  0  0  0  0  0  0  0
   -0.9406    4.2873    6.2580 H   0  0  0  0  0  0  0  0  0  0  0  0
   -0.8630    2.8773    7.2984 H   0  0  0  0  0  0  0  0  0  0  0  0
   -3.2330    2.2867    6.6967 H   0  0  0  0  0  0  0  0  0  0  0  0
   -3.3422    3.7250    5.7025 H   0  0  0  0  0  0  0  0  0  0  0  0
    0.7380   -1.7271    3.7875 H   0  0  0  0  0  0  0  0  0  0  0  0
   -0.6324   -2.0276    5.8554 H   0  0  0  0  0  0  0  0  0  0  0  0
  1  2  1  0
  1 11  1  0
  1 12  1  0
  1 13  1  0
  2  3  1  0
  2 14  1  0
  2 15  1  0
  3 10  1  0
  3  4  1  0
  4  5  1  0
  5 10  2  0
  5  6  1  0
  6  7  2  0
  7  8  1  0
  7 16  1  0
  8  9  2  0
  8 17  1  0
  9 10  1  0
M  END
>  <i_m_ct_stereo_status>  (167) 
1

>  <s_m_source_file>  (167) 
/var/tmp/pbs.5076255.sched01/tmpqm933_o1/456x1pmp19.sdf

>  <i_m_source_file_index>  (167) 
23

>  <i_lp_mmshare_version>  (167) 
48012

>  <i_f3d_flags>  (167) 
0

>  <s_epik_input>  (167) 
W0NIM11bQ0gyXW4oczEpYyhjMTIpbltjSF1bY0hdbjI=

>  <s_epik_cmdline>  (167) 
J2VwaWtfcHl0aG9uJywgJy1waHQnLCAnMi4wJywgJy1waCcsICc3LjAnLCAnLXRuJywgJzgnLCAnLW1hJywgJzIwMCcsICctaW1hZScsICc8aW5maWxlLm1hZT4nLCAnLW9tYWUnLCAnPG91dGZpbGUubWFlPic=

>  <r_lp_tautomer_probability>  (167) 
1

>  <r_epik_Ionization_Penalty>  (167) 
1.38211e-07

>  <r_epik_Ionization_Penalty_Charging>  (167) 
0

>  <r_epik_Ionization_Penalty_Neutral>  (167) 
1.38211e-07

>  <r_epik_State_Penalty>  (167) 
-0

>  <r_epik_Charging_Adjusted_Penalty>  (167) 
0

>  <i_epik_Tot_Q>  (167) 
0

>  <i_epik_Tot_abs_Q>  (167) 
0

>  <s_lp_Force_Field>  (167) 
OPLS3e

>  <r_lp_Energy>  (167) 
23.5925

>  <b_lp_Chiralities_Consistent>  (167) 
1

>  <s_lp_Variant>  (167) 
37:0-1

>  <s_i_glide_gridfile>  (167) 
pfpi4k_grid

>  <i_i_glide_lignum>  (167) 
23

>  <i_i_glide_rotatable_bonds>  (167) 
1

>  <r_i_docking_score>  (167) 
-3.40542

>  <r_i_glide_ligand_efficiency>  (167) 
-0.340542

>  <r_i_glide_ligand_efficiency_sa>  (167) 
-0.733676

>  <r_i_glide_ligand_efficiency_ln>  (167) 
-1.03114

>  <r_i_glide_gscore>  (167) 
-3.40542

>  <r_i_glide_lipo>  (167) 
-0.142355

>  <r_i_glide_hbond>  (167) 
-0.049469

>  <r_i_glide_metal>  (167) 
-0

>  <r_i_glide_rewards>  (167) 
-2.25

>  <r_i_glide_evdw>  (167) 
-13.5241

>  <r_i_glide_ecoul>  (167) 
-1.64666

>  <r_i_glide_erotb>  (167) 
0

>  <r_i_glide_esite>  (167) 
-0.0403928

>  <r_i_glide_emodel>  (167) 
-17.4544

>  <r_i_glide_energy>  (167) 
-15.1708

>  <r_i_glide_einternal>  (167) 
1.26931

>  <r_i_glide_intrahb_reward>  (167) 
-0

>  <i_i_glide_confnum>  (167) 
2

>  <i_i_glide_posenum>  (167) 
34

>  <r_i_glide_eff_state_penalty>  (167) 
0

>  <ligand_id>  (167) 
37

>  <original_smiles>  (167) 
CCn1sc2nccnc21

>  <smiles>  (167) 
[H]c1nc2sn(C([H])([H])C([H])([H])[H])c2nc1[H]

$$$$
37:0:2
     RDKit          3D

 17 18  0  0  1  0  0  0  0  0999 V2000
    3.9437   -0.6493   -4.8088 C   0  0  0  0  0  0  0  0  0  0  0  0
    3.8779   -0.1333   -3.3735 C   0  0  0  0  0  0  0  0  0  0  0  0
    4.1689   -1.1121   -2.3502 N   0  0  0  0  0  0  0  0  0  0  0  0
    5.0589   -1.1054   -0.8322 S   0  0  0  0  0  0  0  0  0  0  0  0
    3.9119   -2.4319   -0.7308 C   0  0  0  0  0  0  0  0  0  0  0  0
    3.5128   -3.3176    0.2186 N   0  0  0  0  0  0  0  0  0  0  0  0
    2.4507   -4.0119   -0.2768 C   0  0  0  0  0  0  0  0  0  0  0  0
    1.8499   -3.8372   -1.5617 C   0  0  0  0  0  0  0  0  0  0  0  0
    2.2819   -2.9499   -2.5048 N   0  0  0  0  0  0  0  0  0  0  0  0
    3.3288   -2.2178   -2.0637 C   0  0  0  0  0  0  0  0  0  0  0  0
    3.7165    0.1661   -5.4965 H   0  0  0  0  0  0  0  0  0  0  0  0
    3.2260   -1.4430   -5.0003 H   0  0  0  0  0  0  0  0  0  0  0  0
    4.9307   -1.0293   -5.0432 H   0  0  0  0  0  0  0  0  0  0  0  0
    4.5549    0.7052   -3.2402 H   0  0  0  0  0  0  0  0  0  0  0  0
    2.8698    0.2258   -3.1921 H   0  0  0  0  0  0  0  0  0  0  0  0
    2.0498   -4.7240    0.4207 H   0  0  0  0  0  0  0  0  0  0  0  0
    1.0062   -4.4561   -1.8315 H   0  0  0  0  0  0  0  0  0  0  0  0
  1  2  1  0
  1 11  1  0
  1 12  1  0
  1 13  1  0
  2  3  1  0
  2 14  1  0
  2 15  1  0
  3 10  1  0
  3  4  1  0
  4  5  1  0
  5 10  2  0
  5  6  1  0
  6  7  2  0
  7  8  1  0
  7 16  1  0
  8  9  2  0
  8 17  1  0
  9 10  1  0
M  END
>  <i_m_ct_stereo_status>  (168) 
1

>  <s_m_source_file>  (168) 
/var/tmp/pbs.5076255.sched01/tmpqm933_o1/456x1pmp19.sdf

>  <i_m_source_file_index>  (168) 
23

>  <i_lp_mmshare_version>  (168) 
48012

>  <i_f3d_flags>  (168) 
0

>  <s_epik_input>  (168) 
W0NIM11bQ0gyXW4oczEpYyhjMTIpbltjSF1bY0hdbjI=

>  <s_epik_cmdline>  (168) 
J2VwaWtfcHl0aG9uJywgJy1waHQnLCAnMi4wJywgJy1waCcsICc3LjAnLCAnLXRuJywgJzgnLCAnLW1hJywgJzIwMCcsICctaW1hZScsICc8aW5maWxlLm1hZT4nLCAnLW9tYWUnLCAnPG91dGZpbGUubWFlPic=

>  <r_lp_tautomer_probability>  (168) 
1

>  <r_epik_Ionization_Penalty>  (168) 
1.38211e-07

>  <r_epik_Ionization_Penalty_Charging>  (168) 
0

>  <r_epik_Ionization_Penalty_Neutral>  (168) 
1.38211e-07

>  <r_epik_State_Penalty>  (168) 
-0

>  <r_epik_Charging_Adjusted_Penalty>  (168) 
0

>  <i_epik_Tot_Q>  (168) 
0

>  <i_epik_Tot_abs_Q>  (168) 
0

>  <s_lp_Force_Field>  (168) 
OPLS3e

>  <r_lp_Energy>  (168) 
23.5925

>  <b_lp_Chiralities_Consistent>  (168) 
1

>  <s_lp_Variant>  (168) 
37:0-1

>  <s_i_glide_gridfile>  (168) 
pfpi4k_grid

>  <i_i_glide_lignum>  (168) 
23

>  <i_i_glide_rotatable_bonds>  (168) 
1

>  <r_i_docking_score>  (168) 
-3.32189

>  <r_i_glide_ligand_efficiency>  (168) 
-0.332189

>  <r_i_glide_ligand_efficiency_sa>  (168) 
-0.715681

>  <r_i_glide_ligand_efficiency_ln>  (168) 
-1.00585

>  <r_i_glide_gscore>  (168) 
-3.32189

>  <r_i_glide_lipo>  (168) 
-0.260503

>  <r_i_glide_hbond>  (168) 
0

>  <r_i_glide_metal>  (168) 
-0

>  <r_i_glide_rewards>  (168) 
-2.25

>  <r_i_glide_evdw>  (168) 
-15.1617

>  <r_i_glide_ecoul>  (168) 
0.137872

>  <r_i_glide_erotb>  (168) 
0

>  <r_i_glide_esite>  (168) 
-0.0739861

>  <r_i_glide_emodel>  (168) 
-17.1848

>  <r_i_glide_energy>  (168) 
-15.0239

>  <r_i_glide_einternal>  (168) 
0.799498

>  <r_i_glide_intrahb_reward>  (168) 
-0

>  <i_i_glide_confnum>  (168) 
2

>  <i_i_glide_posenum>  (168) 
4

>  <r_i_glide_eff_state_penalty>  (168) 
0

>  <ligand_id>  (168) 
37

>  <original_smiles>  (168) 
CCn1sc2nccnc21

>  <smiles>  (168) 
[H]c1nc2sn(C([H])([H])C([H])([H])[H])c2nc1[H]

$$$$
38:0:0
     RDKit          3D

 78 84  0  0  1  0  0  0  0  0999 V2000
   -0.6962   -4.8823    7.0140 C   0  0  0  0  0  0  0  0  0  0  0  0
   -0.9971   -3.4364    6.6832 C   0  0  0  0  0  0  0  0  0  0  0  0
   -2.1414   -3.0506    6.4749 O   0  0  0  0  0  0  0  0  0  0  0  0
    0.0936   -2.6582    6.6437 O   0  0  0  0  0  0  0  0  0  0  0  0
   -0.0294   -1.2764    6.3292 C   0  0  2  0  0  0  0  0  0  0  0  0
   -0.1730   -1.0139    4.7880 C   0  0  0  0  0  0  0  0  0  0  0  0
    0.8143   -0.0011    4.0463 C   0  0  1  0  0  0  0  0  0  0  0  0
   -0.0155    0.5540    3.0278 O   0  0  0  0  0  0  0  0  0  0  0  0
    1.8934    1.0634    4.7993 C   0  0  2  0  0  0  0  0  0  0  0  0
    2.6711    1.5821    3.6011 C   0  0  1  0  0  0  0  0  0  0  0  0
    3.4136    2.7503    3.8998 O   0  0  0  0  0  0  0  0  0  0  0  0
    3.6448    0.4411    3.1079 C   0  0  0  0  0  0  0  0  0  0  0  0
    3.6687   -1.0844    3.5923 C   0  0  0  0  0  0  0  0  0  0  0  0
    2.8161   -1.7864    4.7292 C   0  0  0  0  0  0  0  0  0  0  0  0
    2.2940   -2.8545    4.4246 O   0  0  0  0  0  0  0  0  0  0  0  0
    2.6250   -1.2503    6.2215 C   0  0  1  0  0  0  0  0  0  0  0  0
    3.3853   -2.3537    7.0449 C   0  0  1  0  0  0  0  0  0  0  0  0
    2.8407   -3.6623    7.0235 O   0  0  0  0  0  0  0  0  0  0  0  0
    4.9207   -2.3326    6.6219 C   0  0  1  0  0  0  0  0  0  0  0  0
    5.2470   -3.3567    5.6900 O   0  0  0  0  0  0  0  0  0  0  0  0
    5.5348   -0.9098    6.1553 C   0  0  0  0  0  0  0  0  0  0  0  0
    4.6296    0.3725    5.8457 C   0  0  1  0  0  0  0  0  0  0  0  0
    5.5557    1.5349    6.1733 C   0  0  0  0  0  0  0  0  0  0  0  0
    3.5208   -0.1815    6.5460 C   0  0  1  0  0  0  0  0  0  0  0  0
    3.0699    0.9881    6.0515 C   0  0  1  0  0  0  0  0  0  0  0  0
    2.5394    1.4764    7.4924 C   0  0  0  0  0  0  0  0  0  0  0  0
    1.4399    0.4267    8.0357 C   0  0  1  0  0  0  0  0  0  0  0  0
    0.2112    1.0312    8.8621 C   0  0  0  0  0  0  0  0  0  0  0  0
   -0.6193    2.3335    8.4659 C   0  0  1  0  0  0  0  0  0  0  0  0
   -1.5502    2.6748    9.6562 C   0  0  0  0  0  0  0  0  0  0  0  0
    0.2517    3.4461    8.4129 O   0  0  0  0  0  0  0  0  0  0  0  0
   -1.5261    2.1953    7.1782 C   0  0  0  0  0  0  0  0  0  0  0  0
   -2.4716    1.4175    7.2385 O   0  0  0  0  0  0  0  0  0  0  0  0
   -1.2120    2.9623    5.7997 C   0  0  1  0  0  0  0  0  0  0  0  0
   -2.4825    3.1018    4.9509 C   0  0  0  0  0  0  0  0  0  0  0  0
   -0.7552    4.2775    6.0406 O   0  0  0  0  0  0  0  0  0  0  0  0
   -0.3204    2.2581    4.9434 O   0  0  0  0  0  0  0  0  0  0  0  0
    0.8441    1.8041    5.5552 C   0  0  1  0  0  0  0  0  0  0  0  0
    0.4932    0.7189    6.3945 O   0  0  0  0  0  0  0  0  0  0  0  0
    1.1967   -0.5289    6.7866 C   0  0  2  0  0  0  0  0  0  0  0  0
   -0.2009   -4.9480    7.9788 H   0  0  0  0  0  0  0  0  0  0  0  0
   -0.0468   -5.3035    6.2453 H   0  0  0  0  0  0  0  0  0  0  0  0
   -1.6217   -5.4505    7.0433 H   0  0  0  0  0  0  0  0  0  0  0  0
   -0.9129   -0.8680    6.8280 H   0  0  0  0  0  0  0  0  0  0  0  0
   -0.1491   -1.9596    4.2518 H   0  0  0  0  0  0  0  0  0  0  0  0
   -1.1970   -0.6669    4.6380 H   0  0  0  0  0  0  0  0  0  0  0  0
    1.3131   -0.5830    3.2958 H   0  0  0  0  0  0  0  0  0  0  0  0
    0.5053    1.0537    2.4203 H   0  0  0  0  0  0  0  0  0  0  0  0
    2.0239    1.8766    2.7831 H   0  0  0  0  0  0  0  0  0  0  0  0
    3.9638    2.9338    3.1496 H   0  0  0  0  0  0  0  0  0  0  0  0
    3.5528    0.4159    2.0195 H   0  0  0  0  0  0  0  0  0  0  0  0
    4.6626    0.8031    3.2597 H   0  0  0  0  0  0  0  0  0  0  0  0
    3.3912   -1.6487    2.7061 H   0  0  0  0  0  0  0  0  0  0  0  0
    4.7093   -1.3618    3.7351 H   0  0  0  0  0  0  0  0  0  0  0  0
    3.3240   -2.1164    8.1103 H   0  0  0  0  0  0  0  0  0  0  0  0
    2.8311   -3.9591    6.1257 H   0  0  0  0  0  0  0  0  0  0  0  0
    5.4691   -2.6233    7.5097 H   0  0  0  0  0  0  0  0  0  0  0  0
    4.7465   -3.2586    4.8956 H   0  0  0  0  0  0  0  0  0  0  0  0
    6.2630   -0.6450    6.9305 H   0  0  0  0  0  0  0  0  0  0  0  0
    6.1758   -1.0496    5.2874 H   0  0  0  0  0  0  0  0  0  0  0  0
    5.0773    2.4623    5.8834 H   0  0  0  0  0  0  0  0  0  0  0  0
    6.4858    1.4509    5.6126 H   0  0  0  0  0  0  0  0  0  0  0  0
    5.7874    1.5967    7.2389 H   0  0  0  0  0  0  0  0  0  0  0  0
    3.8537   -0.2419    7.5818 H   0  0  0  0  0  0  0  0  0  0  0  0
    3.3515    1.5367    8.2103 H   0  0  0  0  0  0  0  0  0  0  0  0
    2.2795    2.5228    7.5513 H   0  0  0  0  0  0  0  0  0  0  0  0
    1.9395   -0.2176    8.7632 H   0  0  0  0  0  0  0  0  0  0  0  0
   -0.4987    0.2207    9.0254 H   0  0  0  0  0  0  0  0  0  0  0  0
    0.6116    1.2304    9.8559 H   0  0  0  0  0  0  0  0  0  0  0  0
   -2.2377    1.8634    9.8848 H   0  0  0  0  0  0  0  0  0  0  0  0
   -2.1507    3.5650    9.4671 H   0  0  0  0  0  0  0  0  0  0  0  0
   -0.9881    2.8611   10.5713 H   0  0  0  0  0  0  0  0  0  0  0  0
    0.6849    3.5156    9.2498 H   0  0  0  0  0  0  0  0  0  0  0  0
   -2.2710    3.6708    4.0492 H   0  0  0  0  0  0  0  0  0  0  0  0
   -3.2687    3.5926    5.5272 H   0  0  0  0  0  0  0  0  0  0  0  0
   -2.8345    2.1242    4.6293 H   0  0  0  0  0  0  0  0  0  0  0  0
   -0.0125    4.2212    6.6314 H   0  0  0  0  0  0  0  0  0  0  0  0
    1.2386    2.7359    5.9385 H   0  0  0  0  0  0  0  0  0  0  0  0
  1  2  1  0
  1 41  1  0
  1 42  1  0
  1 43  1  0
  2  3  2  0
  2  4  1  0
  4  5  1  0
  5 40  1  0
  5  6  1  0
  5 44  1  1
  6  7  1  0
  6 45  1  0
  6 46  1  0
  7  8  1  0
  7  9  1  0
  7 47  1  6
  8 48  1  0
  9 25  1  1
  9 38  1  0
  9 10  1  0
 10 11  1  0
 10 12  1  0
 10 49  1  6
 11 50  1  0
 12 13  1  0
 12 51  1  0
 12 52  1  0
 13 14  1  0
 13 53  1  0
 13 54  1  0
 14 15  2  0
 16 14  1  6
 16 24  1  0
 16 40  1  0
 16 17  1  0
 17 18  1  0
 17 19  1  0
 17 55  1  1
 18 56  1  0
 19 20  1  0
 19 21  1  0
 19 57  1  1
 20 58  1  0
 21 22  1  0
 21 59  1  0
 21 60  1  0
 22 25  1  0
 22 23  1  6
 22 24  1  0
 23 61  1  0
 23 62  1  0
 23 63  1  0
 24 25  1  0
 24 64  1  1
 25 26  1  1
 26 27  1  0
 26 65  1  0
 26 66  1  0
 27 40  1  0
 27 28  1  0
 27 67  1  1
 28 29  1  0
 28 68  1  0
 28 69  1  0
 29 30  1  0
 29 31  1  6
 29 32  1  0
 30 70  1  0
 30 71  1  0
 30 72  1  0
 31 73  1  0
 32 33  2  0
 32 34  1  0
 34 35  1  0
 34 36  1  1
 34 37  1  0
 35 74  1  0
 35 75  1  0
 35 76  1  0
 36 77  1  0
 37 38  1  0
 38 39  1  0
 38 78  1  1
 40 39  1  6
M  END
>  <i_m_ct_stereo_status>  (169) 
1

>  <s_m_source_file>  (169) 
/var/tmp/pbs.5076255.sched01/tmpqm933_o1/456x1pmp19.sdf

>  <i_m_source_file_index>  (169) 
24

>  <i_lp_mmshare_version>  (169) 
48012

>  <i_f3d_flags>  (169) 
0

>  <s_epik_input>  (169) 
W09IXVtDQEhdMVtDSDJdW0NIMl1DKD1PKVtDQEBdKFtDQEBIXShbT0hdKVtDQEBIXShbT0hdKVtDSDJdMikoW0NASF0zW0NAXTIoW0NIM10pW0NAQF0zNFtDQEBdMTU2KVtDQEBdNyhbQ0BIXShPQyg9TylbQ0gzXSlbQ0gyXVtDQEhdNVtPSF0pW0NAQEhdKFtDSDJdNClbQ0gyXVtDQEBdKFtDSDNdKShbT0hdKUMoPU8pW0NAQF0oW0NIM10pKFtPSF0pT1tDQEhdNk83

>  <s_epik_cmdline>  (169) 
J2VwaWtfcHl0aG9uJywgJy1waHQnLCAnMi4wJywgJy1waCcsICc3LjAnLCAnLXRuJywgJzgnLCAnLW1hJywgJzIwMCcsICctaW1hZScsICc8aW5maWxlLm1hZT4nLCAnLW9tYWUnLCAnPG91dGZpbGUubWFlPic=

>  <r_lp_tautomer_probability>  (169) 
1

>  <r_epik_Ionization_Penalty>  (169) 
4.17723e-07

>  <r_epik_Ionization_Penalty_Charging>  (169) 
0

>  <r_epik_Ionization_Penalty_Neutral>  (169) 
4.17723e-07

>  <r_epik_State_Penalty>  (169) 
-0

>  <r_epik_Charging_Adjusted_Penalty>  (169) 
0

>  <i_epik_Tot_Q>  (169) 
0

>  <i_epik_Tot_abs_Q>  (169) 
0

>  <s_epik_Chemistry_Notes>  (169) 
This compound has an ester and may undergo hydrolysis at high or low pH. This compound contains an acetal/aminal-like group ( X-CH(R)-Y where X, Y are N, S, or O) that may be acid/base labile, releasing an aldehyde.

>  <s_lp_Force_Field>  (169) 
OPLS3e

>  <r_lp_Energy>  (169) 
403.112

>  <b_lp_Chiralities_Consistent>  (169) 
1

>  <s_lp_Variant>  (169) 
38:0-1

>  <s_i_glide_gridfile>  (169) 
pfpi4k_grid

>  <i_i_glide_lignum>  (169) 
24

>  <i_i_glide_rotatable_bonds>  (169) 
8

>  <r_i_docking_score>  (169) 
-3.79253

>  <r_i_glide_ligand_efficiency>  (169) 
-0.0948132

>  <r_i_glide_ligand_efficiency_sa>  (169) 
-0.324257

>  <r_i_glide_ligand_efficiency_ln>  (169) 
-0.808835

>  <r_i_glide_gscore>  (169) 
-3.79253

>  <r_i_glide_lipo>  (169) 
-0.0910202

>  <r_i_glide_hbond>  (169) 
-0.462927

>  <r_i_glide_metal>  (169) 
-0

>  <r_i_glide_rewards>  (169) 
-1.00496

>  <r_i_glide_evdw>  (169) 
-23.9603

>  <r_i_glide_ecoul>  (169) 
-6.99115

>  <r_i_glide_erotb>  (169) 
0.0648683

>  <r_i_glide_esite>  (169) 
-0.0518024

>  <r_i_glide_emodel>  (169) 
-49.8063

>  <r_i_glide_energy>  (169) 
-30.9515

>  <r_i_glide_einternal>  (169) 
2.47293

>  <r_i_glide_intrahb_reward>  (169) 
-1

>  <i_i_glide_confnum>  (169) 
3

>  <i_i_glide_posenum>  (169) 
4

>  <r_i_glide_eff_state_penalty>  (169) 
0

>  <ligand_id>  (169) 
38

>  <original_smiles>  (169) 
CC(=O)OC1CC(O)C23C(O)CCC(=O)C45C(O)C(O)CC6(C)C4C62CC2CC(C)(O)C(=O)C(C)(O)OC3OC215

>  <smiles>  (169) 
[H]OC1(C([H])([H])[H])OC2([H])OC34C([H])(OC(=O)C([H])([H])[H])C([H])([H])C([H])(O[H])C25C([H])(O[H])C([H])([H])C([H])([H])C(=O)C32C([H])(O[H])C([H])(O[H])C([H])([H])C3(C([H])([H])[H])C2([H])C53C([H])([H])C4([H])C([H])([H])C(O[H])(C([H])([H])[H])C1=O

$$$$
38:0:1
     RDKit          3D

 78 84  0  0  1  0  0  0  0  0999 V2000
   -0.2000   -8.4632    2.5868 C   0  0  0  0  0  0  0  0  0  0  0  0
    0.5347   -7.1981    2.1750 C   0  0  0  0  0  0  0  0  0  0  0  0
    0.0133   -6.3476    1.4474 O   0  0  0  0  0  0  0  0  0  0  0  0
    1.7683   -7.1355    2.6968 O   0  0  0  0  0  0  0  0  0  0  0  0
    2.6179   -6.0269    2.4343 C   0  0  2  0  0  0  0  0  0  0  0  0
    3.2724   -6.0880    1.0059 C   0  0  0  0  0  0  0  0  0  0  0  0
    4.8648   -5.9535    0.8425 C   0  0  1  0  0  0  0  0  0  0  0  0
    5.0163   -5.2638   -0.3947 O   0  0  0  0  0  0  0  0  0  0  0  0
    5.9608   -5.4837    2.0542 C   0  0  2  0  0  0  0  0  0  0  0  0
    7.2899   -5.7424    1.3478 C   0  0  1  0  0  0  0  0  0  0  0  0
    8.3934   -5.0791    1.9345 O   0  0  0  0  0  0  0  0  0  0  0  0
    7.5541   -7.2997    1.3192 C   0  0  0  0  0  0  0  0  0  0  0  0
    6.4874   -8.4549    1.6790 C   0  0  0  0  0  0  0  0  0  0  0  0
    5.0226   -8.3166    2.2742 C   0  0  0  0  0  0  0  0  0  0  0  0
    4.1389   -8.9395    1.6865 O   0  0  0  0  0  0  0  0  0  0  0  0
    4.5990   -7.4487    3.5483 C   0  0  1  0  0  0  0  0  0  0  0  0
    4.1932   -8.5696    4.5734 C   0  0  1  0  0  0  0  0  0  0  0  0
    3.0723   -9.3775    4.2450 O   0  0  0  0  0  0  0  0  0  0  0  0
    5.4783   -9.4510    4.8972 C   0  0  1  0  0  0  0  0  0  0  0  0
    5.4766  -10.6397    4.1293 O   0  0  0  0  0  0  0  0  0  0  0  0
    6.9178   -8.7233    4.7986 C   0  0  0  0  0  0  0  0  0  0  0  0
    7.1229   -7.2531    4.1924 C   0  0  1  0  0  0  0  0  0  0  0  0
    8.3324   -6.7057    4.9432 C   0  0  0  0  0  0  0  0  0  0  0  0
    5.7316   -6.9692    4.3078 C   0  0  1  0  0  0  0  0  0  0  0  0
    6.2658   -5.8855    3.7017 C   0  0  1  0  0  0  0  0  0  0  0  0
    5.5958   -4.8804    4.7788 C   0  0  0  0  0  0  0  0  0  0  0  0
    3.9907   -5.0341    4.7050 C   0  0  1  0  0  0  0  0  0  0  0  0
    3.1225   -3.7073    4.9172 C   0  0  0  0  0  0  0  0  0  0  0  0
    3.4176   -2.2906    4.2491 C   0  0  1  0  0  0  0  0  0  0  0  0
    2.4738   -1.2522    4.9027 C   0  0  0  0  0  0  0  0  0  0  0  0
    4.6912   -1.8432    4.6754 O   0  0  0  0  0  0  0  0  0  0  0  0
    3.2206   -2.2089    2.6860 C   0  0  0  0  0  0  0  0  0  0  0  0
    2.0642   -2.3003    2.2644 O   0  0  0  0  0  0  0  0  0  0  0  0
    4.4081   -2.0504    1.6237 C   0  0  1  0  0  0  0  0  0  0  0  0
    3.8873   -1.4714    0.2980 C   0  0  0  0  0  0  0  0  0  0  0  0
    5.3916   -1.1565    2.0995 O   0  0  0  0  0  0  0  0  0  0  0  0
    4.9954   -3.2907    1.2375 O   0  0  0  0  0  0  0  0  0  0  0  0
    5.3272   -4.1500    2.2868 C   0  0  1  0  0  0  0  0  0  0  0  0
    4.1234   -4.6655    2.8214 O   0  0  0  0  0  0  0  0  0  0  0  0
    3.7589   -5.9697    3.4352 C   0  0  2  0  0  0  0  0  0  0  0  0
   -0.2702   -8.5252    3.6732 H   0  0  0  0  0  0  0  0  0  0  0  0
    0.3436   -9.3381    2.2300 H   0  0  0  0  0  0  0  0  0  0  0  0
   -1.2056   -8.4891    2.1662 H   0  0  0  0  0  0  0  0  0  0  0  0
    2.0183   -5.1137    2.5050 H   0  0  0  0  0  0  0  0  0  0  0  0
    2.9669   -7.0085    0.5114 H   0  0  0  0  0  0  0  0  0  0  0  0
    2.7839   -5.3059    0.4203 H   0  0  0  0  0  0  0  0  0  0  0  0
    5.1757   -6.8651    0.3572 H   0  0  0  0  0  0  0  0  0  0  0  0
    4.4198   -5.6367   -1.0355 H   0  0  0  0  0  0  0  0  0  0  0  0
    7.2827   -5.3604    0.3277 H   0  0  0  0  0  0  0  0  0  0  0  0
    8.5118   -5.4109    2.8121 H   0  0  0  0  0  0  0  0  0  0  0  0
    7.9293   -7.5157    0.3217 H   0  0  0  0  0  0  0  0  0  0  0  0
    8.4466   -7.5051    1.9130 H   0  0  0  0  0  0  0  0  0  0  0  0
    6.3186   -8.9823    0.7415 H   0  0  0  0  0  0  0  0  0  0  0  0
    7.0074   -9.2050    2.2679 H   0  0  0  0  0  0  0  0  0  0  0  0
    3.8565   -8.1050    5.5026 H   0  0  0  0  0  0  0  0  0  0  0  0
    3.2413   -9.7954    3.4102 H   0  0  0  0  0  0  0  0  0  0  0  0
    5.3546   -9.8024    5.9209 H   0  0  0  0  0  0  0  0  0  0  0  0
    4.6884  -11.1223    4.3429 H   0  0  0  0  0  0  0  0  0  0  0  0
    7.2798   -8.7140    5.8272 H   0  0  0  0  0  0  0  0  0  0  0  0
    7.6288   -9.3895    4.3097 H   0  0  0  0  0  0  0  0  0  0  0  0
    8.6414   -5.7510    4.5280 H   0  0  0  0  0  0  0  0  0  0  0  0
    9.1803   -7.3878    4.8609 H   0  0  0  0  0  0  0  0  0  0  0  0
    8.1115   -6.5484    5.9971 H   0  0  0  0  0  0  0  0  0  0  0  0
    5.5430   -6.9667    5.3839 H   0  0  0  0  0  0  0  0  0  0  0  0
    5.9344   -5.0817    5.7932 H   0  0  0  0  0  0  0  0  0  0  0  0
    5.9667   -3.8688    4.7463 H   0  0  0  0  0  0  0  0  0  0  0  0
    3.6915   -5.6590    5.5487 H   0  0  0  0  0  0  0  0  0  0  0  0
    2.0811   -3.9636    4.7009 H   0  0  0  0  0  0  0  0  0  0  0  0
    3.1380   -3.5301    5.9941 H   0  0  0  0  0  0  0  0  0  0  0  0
    1.4225   -1.5076    4.7532 H   0  0  0  0  0  0  0  0  0  0  0  0
    2.6270   -0.2497    4.4992 H   0  0  0  0  0  0  0  0  0  0  0  0
    2.6361   -1.1892    5.9803 H   0  0  0  0  0  0  0  0  0  0  0  0
    4.8240   -0.9699    4.3366 H   0  0  0  0  0  0  0  0  0  0  0  0
    4.7089   -1.3324   -0.4062 H   0  0  0  0  0  0  0  0  0  0  0  0
    3.3960   -0.5121    0.4676 H   0  0  0  0  0  0  0  0  0  0  0  0
    3.1641   -2.1535   -0.1554 H   0  0  0  0  0  0  0  0  0  0  0  0
    6.0144   -1.0313    1.4048 H   0  0  0  0  0  0  0  0  0  0  0  0
    5.9846   -3.5058    2.8530 H   0  0  0  0  0  0  0  0  0  0  0  0
  1  2  1  0
  1 41  1  0
  1 42  1  0
  1 43  1  0
  2  3  2  0
  2  4  1  0
  4  5  1  0
  5 40  1  0
  5  6  1  0
  5 44  1  6
  6  7  1  0
  6 45  1  0
  6 46  1  0
  7  8  1  0
  7  9  1  0
  7 47  1  6
  8 48  1  0
  9 25  1  1
  9 38  1  0
  9 10  1  0
 10 11  1  0
 10 12  1  0
 10 49  1  6
 11 50  1  0
 12 13  1  0
 12 51  1  0
 12 52  1  0
 13 14  1  0
 13 53  1  0
 13 54  1  0
 14 15  2  0
 16 14  1  6
 16 24  1  0
 16 40  1  0
 16 17  1  0
 17 18  1  0
 17 19  1  0
 17 55  1  1
 18 56  1  0
 19 20  1  0
 19 21  1  0
 19 57  1  1
 20 58  1  0
 21 22  1  0
 21 59  1  0
 21 60  1  0
 22 25  1  0
 22 23  1  6
 22 24  1  0
 23 61  1  0
 23 62  1  0
 23 63  1  0
 24 25  1  0
 24 64  1  1
 25 26  1  1
 26 27  1  0
 26 65  1  0
 26 66  1  0
 27 40  1  0
 27 28  1  0
 27 67  1  1
 28 29  1  0
 28 68  1  0
 28 69  1  0
 29 30  1  0
 29 31  1  6
 29 32  1  0
 30 70  1  0
 30 71  1  0
 30 72  1  0
 31 73  1  0
 32 33  2  0
 32 34  1  0
 34 35  1  0
 34 36  1  1
 34 37  1  0
 35 74  1  0
 35 75  1  0
 35 76  1  0
 36 77  1  0
 37 38  1  0
 38 39  1  0
 38 78  1  1
 40 39  1  6
M  END
>  <i_m_ct_stereo_status>  (170) 
1

>  <s_m_source_file>  (170) 
/var/tmp/pbs.5076255.sched01/tmpqm933_o1/456x1pmp19.sdf

>  <i_m_source_file_index>  (170) 
24

>  <i_lp_mmshare_version>  (170) 
48012

>  <i_f3d_flags>  (170) 
0

>  <s_epik_input>  (170) 
W09IXVtDQEhdMVtDSDJdW0NIMl1DKD1PKVtDQEBdKFtDQEBIXShbT0hdKVtDQEBIXShbT0hdKVtDSDJdMikoW0NASF0zW0NAXTIoW0NIM10pW0NAQF0zNFtDQEBdMTU2KVtDQEBdNyhbQ0BIXShPQyg9TylbQ0gzXSlbQ0gyXVtDQEhdNVtPSF0pW0NAQEhdKFtDSDJdNClbQ0gyXVtDQEBdKFtDSDNdKShbT0hdKUMoPU8pW0NAQF0oW0NIM10pKFtPSF0pT1tDQEhdNk83

>  <s_epik_cmdline>  (170) 
J2VwaWtfcHl0aG9uJywgJy1waHQnLCAnMi4wJywgJy1waCcsICc3LjAnLCAnLXRuJywgJzgnLCAnLW1hJywgJzIwMCcsICctaW1hZScsICc8aW5maWxlLm1hZT4nLCAnLW9tYWUnLCAnPG91dGZpbGUubWFlPic=

>  <r_lp_tautomer_probability>  (170) 
1

>  <r_epik_Ionization_Penalty>  (170) 
4.17723e-07

>  <r_epik_Ionization_Penalty_Charging>  (170) 
0

>  <r_epik_Ionization_Penalty_Neutral>  (170) 
4.17723e-07

>  <r_epik_State_Penalty>  (170) 
-0

>  <r_epik_Charging_Adjusted_Penalty>  (170) 
0

>  <i_epik_Tot_Q>  (170) 
0

>  <i_epik_Tot_abs_Q>  (170) 
0

>  <s_epik_Chemistry_Notes>  (170) 
This compound has an ester and may undergo hydrolysis at high or low pH. This compound contains an acetal/aminal-like group ( X-CH(R)-Y where X, Y are N, S, or O) that may be acid/base labile, releasing an aldehyde.

>  <s_lp_Force_Field>  (170) 
OPLS3e

>  <r_lp_Energy>  (170) 
403.112

>  <b_lp_Chiralities_Consistent>  (170) 
1

>  <s_lp_Variant>  (170) 
38:0-1

>  <s_i_glide_gridfile>  (170) 
pfpi4k_grid

>  <i_i_glide_lignum>  (170) 
24

>  <i_i_glide_rotatable_bonds>  (170) 
8

>  <r_i_docking_score>  (170) 
-3.4723

>  <r_i_glide_ligand_efficiency>  (170) 
-0.0868074

>  <r_i_glide_ligand_efficiency_sa>  (170) 
-0.296877

>  <r_i_glide_ligand_efficiency_ln>  (170) 
-0.740539

>  <r_i_glide_gscore>  (170) 
-3.4723

>  <r_i_glide_lipo>  (170) 
-0.376664

>  <r_i_glide_hbond>  (170) 
-0.279935

>  <r_i_glide_metal>  (170) 
-0

>  <r_i_glide_rewards>  (170) 
-0.567099

>  <r_i_glide_evdw>  (170) 
-31.2738

>  <r_i_glide_ecoul>  (170) 
-4.59169

>  <r_i_glide_erotb>  (170) 
0.0648683

>  <r_i_glide_esite>  (170) 
-0.0610226

>  <r_i_glide_emodel>  (170) 
-48.9459

>  <r_i_glide_energy>  (170) 
-35.8655

>  <r_i_glide_einternal>  (170) 
2.52766

>  <r_i_glide_intrahb_reward>  (170) 
-0.5

>  <i_i_glide_confnum>  (170) 
3

>  <i_i_glide_posenum>  (170) 
22

>  <r_i_glide_eff_state_penalty>  (170) 
0

>  <ligand_id>  (170) 
38

>  <original_smiles>  (170) 
CC(=O)OC1CC(O)C23C(O)CCC(=O)C45C(O)C(O)CC6(C)C4C62CC2CC(C)(O)C(=O)C(C)(O)OC3OC215

>  <smiles>  (170) 
[H]OC1(C([H])([H])[H])OC2([H])OC34C([H])(OC(=O)C([H])([H])[H])C([H])([H])C([H])(O[H])C25C([H])(O[H])C([H])([H])C([H])([H])C(=O)C32C([H])(O[H])C([H])(O[H])C([H])([H])C3(C([H])([H])[H])C2([H])C53C([H])([H])C4([H])C([H])([H])C(O[H])(C([H])([H])[H])C1=O

$$$$
38:0:2
     RDKit          3D

 78 84  0  0  1  0  0  0  0  0999 V2000
    1.5202   -2.2721    8.6722 C   0  0  0  0  0  0  0  0  0  0  0  0
    1.3204   -0.7617    8.6976 C   0  0  0  0  0  0  0  0  0  0  0  0
    2.0419   -0.0325    9.3758 O   0  0  0  0  0  0  0  0  0  0  0  0
    0.3050   -0.3551    7.9089 O   0  0  0  0  0  0  0  0  0  0  0  0
    0.0380    1.0367    7.7672 C   0  0  2  0  0  0  0  0  0  0  0  0
   -1.4099    1.2959    7.2203 C   0  0  0  0  0  0  0  0  0  0  0  0
   -1.6507    2.2748    5.9741 C   0  0  1  0  0  0  0  0  0  0  0  0
   -2.9136    2.8772    6.2673 O   0  0  0  0  0  0  0  0  0  0  0  0
   -0.4953    3.3025    5.2759 C   0  0  2  0  0  0  0  0  0  0  0  0
   -1.2530    3.7826    4.0412 C   0  0  1  0  0  0  0  0  0  0  0  0
   -0.7324    4.9664    3.4634 O   0  0  0  0  0  0  0  0  0  0  0  0
   -1.3104    2.6050    2.9867 C   0  0  0  0  0  0  0  0  0  0  0  0
   -0.8621    1.0823    3.2270 C   0  0  0  0  0  0  0  0  0  0  0  0
   -0.2045    0.4188    4.5113 C   0  0  0  0  0  0  0  0  0  0  0  0
   -0.7459   -0.6083    4.9187 O   0  0  0  0  0  0  0  0  0  0  0  0
    1.0801    0.9644    5.2951 C   0  0  1  0  0  0  0  0  0  0  0  0
    2.1370   -0.1553    4.9849 C   0  0  1  0  0  0  0  0  0  0  0  0
    1.8663   -1.4520    5.4805 O   0  0  0  0  0  0  0  0  0  0  0  0
    2.4115   -0.1796    3.4141 C   0  0  1  0  0  0  0  0  0  0  0  0
    1.6282   -1.1731    2.7728 O   0  0  0  0  0  0  0  0  0  0  0  0
    2.2457    1.2176    2.6208 C   0  0  0  0  0  0  0  0  0  0  0  0
    1.6073    2.5308    3.2767 C   0  0  1  0  0  0  0  0  0  0  0  0
    2.3081    3.6784    2.5670 C   0  0  0  0  0  0  0  0  0  0  0  0
    1.7775    2.0097    4.5912 C   0  0  1  0  0  0  0  0  0  0  0  0
    1.1383    3.1919    4.7572 C   0  0  1  0  0  0  0  0  0  0  0  0
    2.2294    3.7031    5.8339 C   0  0  0  0  0  0  0  0  0  0  0  0
    2.2331    2.6919    7.0946 C   0  0  1  0  0  0  0  0  0  0  0  0
    2.4604    3.3362    8.5428 C   0  0  0  0  0  0  0  0  0  0  0  0
    1.7568    4.6577    9.0888 C   0  0  1  0  0  0  0  0  0  0  0  0
    2.4365    5.0305   10.4311 C   0  0  0  0  0  0  0  0  0  0  0  0
    2.1102    5.7414    8.2560 O   0  0  0  0  0  0  0  0  0  0  0  0
    0.2026    4.5579    9.3549 C   0  0  0  0  0  0  0  0  0  0  0  0
   -0.1669    3.8413   10.2797 O   0  0  0  0  0  0  0  0  0  0  0  0
   -0.9154    5.2932    8.4692 C   0  0  1  0  0  0  0  0  0  0  0  0
   -2.2253    5.4427    9.2624 C   0  0  0  0  0  0  0  0  0  0  0  0
   -0.5223    6.5983    8.1099 O   0  0  0  0  0  0  0  0  0  0  0  0
   -1.3069    4.5518    7.3151 O   0  0  0  0  0  0  0  0  0  0  0  0
   -0.2551    4.0790    6.5291 C   0  0  1  0  0  0  0  0  0  0  0  0
    0.3505    3.0101    7.2356 O   0  0  0  0  0  0  0  0  0  0  0  0
    0.9894    1.7369    6.8110 C   0  0  2  0  0  0  0  0  0  0  0  0
    1.7373   -2.6135    7.6619 H   0  0  0  0  0  0  0  0  0  0  0  0
    0.6215   -2.7796    9.0189 H   0  0  0  0  0  0  0  0  0  0  0  0
    2.3577   -2.5580    9.3084 H   0  0  0  0  0  0  0  0  0  0  0  0
    0.0940    1.4863    8.7636 H   0  0  0  0  0  0  0  0  0  0  0  0
   -1.8638    0.3450    6.9606 H   0  0  0  0  0  0  0  0  0  0  0  0
   -1.9910    1.6556    8.0703 H   0  0  0  0  0  0  0  0  0  0  0  0
   -2.1365    1.6630    5.2270 H   0  0  0  0  0  0  0  0  0  0  0  0
   -3.2900    3.1991    5.4657 H   0  0  0  0  0  0  0  0  0  0  0  0
   -2.2715    4.0696    4.2886 H   0  0  0  0  0  0  0  0  0  0  0  0
   -0.2579    4.7430    2.6634 H   0  0  0  0  0  0  0  0  0  0  0  0
   -2.3368    2.5696    2.6160 H   0  0  0  0  0  0  0  0  0  0  0  0
   -0.7651    2.9285    2.1023 H   0  0  0  0  0  0  0  0  0  0  0  0
   -1.7837    0.5177    3.1089 H   0  0  0  0  0  0  0  0  0  0  0  0
   -0.2847    0.7696    2.3585 H   0  0  0  0  0  0  0  0  0  0  0  0
    3.0739    0.0796    5.4975 H   0  0  0  0  0  0  0  0  0  0  0  0
    1.0724   -1.7509    5.0621 H   0  0  0  0  0  0  0  0  0  0  0  0
    3.4457   -0.5066    3.2949 H   0  0  0  0  0  0  0  0  0  0  0  0
    1.8381   -1.1759    1.8500 H   0  0  0  0  0  0  0  0  0  0  0  0
    3.2603    1.4598    2.2961 H   0  0  0  0  0  0  0  0  0  0  0  0
    1.7332    1.0427    1.6723 H   0  0  0  0  0  0  0  0  0  0  0  0
    1.8525    4.6274    2.8388 H   0  0  0  0  0  0  0  0  0  0  0  0
    2.2077    3.5774    1.4902 H   0  0  0  0  0  0  0  0  0  0  0  0
    3.3698    3.7270    2.8050 H   0  0  0  0  0  0  0  0  0  0  0  0
    2.8656    1.9468    4.7221 H   0  0  0  0  0  0  0  0  0  0  0  0
    3.2332    3.7533    5.4106 H   0  0  0  0  0  0  0  0  0  0  0  0
    2.1622    4.7548    6.0675 H   0  0  0  0  0  0  0  0  0  0  0  0
    3.0952    2.0348    6.9819 H   0  0  0  0  0  0  0  0  0  0  0  0
    2.2888    2.5516    9.2819 H   0  0  0  0  0  0  0  0  0  0  0  0
    3.5331    3.5216    8.6047 H   0  0  0  0  0  0  0  0  0  0  0  0
    2.3347    4.2400   11.1751 H   0  0  0  0  0  0  0  0  0  0  0  0
    2.0119    5.9392   10.8614 H   0  0  0  0  0  0  0  0  0  0  0  0
    3.5049    5.2091   10.3065 H   0  0  0  0  0  0  0  0  0  0  0  0
    3.0486    5.7509    8.1576 H   0  0  0  0  0  0  0  0  0  0  0  0
   -2.9592    5.9882    8.6665 H   0  0  0  0  0  0  0  0  0  0  0  0
   -2.0499    5.9880   10.1901 H   0  0  0  0  0  0  0  0  0  0  0  0
   -2.6398    4.4630    9.5038 H   0  0  0  0  0  0  0  0  0  0  0  0
   -0.4847    7.1133    8.9005 H   0  0  0  0  0  0  0  0  0  0  0  0
    0.2656    5.0048    6.3166 H   0  0  0  0  0  0  0  0  0  0  0  0
  1  2  1  0
  1 41  1  0
  1 42  1  0
  1 43  1  0
  2  3  2  0
  2  4  1  0
  4  5  1  0
  5 40  1  0
  5  6  1  0
  5 44  1  1
  6  7  1  0
  6 45  1  0
  6 46  1  0
  7  8  1  0
  7  9  1  0
  7 47  1  6
  8 48  1  0
  9 25  1  6
  9 38  1  0
  9 10  1  0
 10 11  1  0
 10 12  1  0
 10 49  1  1
 11 50  1  0
 12 13  1  0
 12 51  1  0
 12 52  1  0
 13 14  1  0
 13 53  1  0
 13 54  1  0
 14 15  2  0
 16 14  1  6
 16 24  1  0
 16 40  1  0
 16 17  1  0
 17 18  1  0
 17 19  1  0
 17 55  1  1
 18 56  1  0
 19 20  1  0
 19 21  1  0
 19 57  1  1
 20 58  1  0
 21 22  1  0
 21 59  1  0
 21 60  1  0
 22 25  1  0
 22 23  1  6
 22 24  1  0
 23 61  1  0
 23 62  1  0
 23 63  1  0
 24 25  1  0
 24 64  1  1
 25 26  1  1
 26 27  1  0
 26 65  1  0
 26 66  1  0
 27 40  1  0
 27 28  1  0
 27 67  1  6
 28 29  1  0
 28 68  1  0
 28 69  1  0
 29 30  1  0
 29 31  1  6
 29 32  1  0
 30 70  1  0
 30 71  1  0
 30 72  1  0
 31 73  1  0
 32 33  2  0
 32 34  1  0
 34 35  1  0
 34 36  1  6
 34 37  1  0
 35 74  1  0
 35 75  1  0
 35 76  1  0
 36 77  1  0
 37 38  1  0
 38 39  1  0
 38 78  1  6
 40 39  1  6
M  END
>  <i_m_ct_stereo_status>  (171) 
1

>  <s_m_source_file>  (171) 
/var/tmp/pbs.5076255.sched01/tmpqm933_o1/456x1pmp19.sdf

>  <i_m_source_file_index>  (171) 
24

>  <i_lp_mmshare_version>  (171) 
48012

>  <i_f3d_flags>  (171) 
0

>  <s_epik_input>  (171) 
W09IXVtDQEhdMVtDSDJdW0NIMl1DKD1PKVtDQEBdKFtDQEBIXShbT0hdKVtDQEBIXShbT0hdKVtDSDJdMikoW0NASF0zW0NAXTIoW0NIM10pW0NAQF0zNFtDQEBdMTU2KVtDQEBdNyhbQ0BIXShPQyg9TylbQ0gzXSlbQ0gyXVtDQEhdNVtPSF0pW0NAQEhdKFtDSDJdNClbQ0gyXVtDQEBdKFtDSDNdKShbT0hdKUMoPU8pW0NAQF0oW0NIM10pKFtPSF0pT1tDQEhdNk83

>  <s_epik_cmdline>  (171) 
J2VwaWtfcHl0aG9uJywgJy1waHQnLCAnMi4wJywgJy1waCcsICc3LjAnLCAnLXRuJywgJzgnLCAnLW1hJywgJzIwMCcsICctaW1hZScsICc8aW5maWxlLm1hZT4nLCAnLW9tYWUnLCAnPG91dGZpbGUubWFlPic=

>  <r_lp_tautomer_probability>  (171) 
1

>  <r_epik_Ionization_Penalty>  (171) 
4.17723e-07

>  <r_epik_Ionization_Penalty_Charging>  (171) 
0

>  <r_epik_Ionization_Penalty_Neutral>  (171) 
4.17723e-07

>  <r_epik_State_Penalty>  (171) 
-0

>  <r_epik_Charging_Adjusted_Penalty>  (171) 
0

>  <i_epik_Tot_Q>  (171) 
0

>  <i_epik_Tot_abs_Q>  (171) 
0

>  <s_epik_Chemistry_Notes>  (171) 
This compound has an ester and may undergo hydrolysis at high or low pH. This compound contains an acetal/aminal-like group ( X-CH(R)-Y where X, Y are N, S, or O) that may be acid/base labile, releasing an aldehyde.

>  <s_lp_Force_Field>  (171) 
OPLS3e

>  <r_lp_Energy>  (171) 
403.112

>  <b_lp_Chiralities_Consistent>  (171) 
1

>  <s_lp_Variant>  (171) 
38:0-1

>  <s_i_glide_gridfile>  (171) 
pfpi4k_grid

>  <i_i_glide_lignum>  (171) 
24

>  <i_i_glide_rotatable_bonds>  (171) 
8

>  <r_i_docking_score>  (171) 
-3.08499

>  <r_i_glide_ligand_efficiency>  (171) 
-0.0771247

>  <r_i_glide_ligand_efficiency_sa>  (171) 
-0.263763

>  <r_i_glide_ligand_efficiency_ln>  (171) 
-0.657937

>  <r_i_glide_gscore>  (171) 
-3.08499

>  <r_i_glide_lipo>  (171) 
-0.0210882

>  <r_i_glide_hbond>  (171) 
-0.234538

>  <r_i_glide_metal>  (171) 
-0

>  <r_i_glide_rewards>  (171) 
-0.5

>  <r_i_glide_evdw>  (171) 
-28.1675

>  <r_i_glide_ecoul>  (171) 
-6.42087

>  <r_i_glide_erotb>  (171) 
0.0648683

>  <r_i_glide_esite>  (171) 
-0.0227245

>  <r_i_glide_emodel>  (171) 
-44.7279

>  <r_i_glide_energy>  (171) 
-34.5884

>  <r_i_glide_einternal>  (171) 
5.37568

>  <r_i_glide_intrahb_reward>  (171) 
-0.5

>  <i_i_glide_confnum>  (171) 
3

>  <i_i_glide_posenum>  (171) 
12

>  <r_i_glide_eff_state_penalty>  (171) 
0

>  <ligand_id>  (171) 
38

>  <original_smiles>  (171) 
CC(=O)OC1CC(O)C23C(O)CCC(=O)C45C(O)C(O)CC6(C)C4C62CC2CC(C)(O)C(=O)C(C)(O)OC3OC215

>  <smiles>  (171) 
[H]OC1(C([H])([H])[H])OC2([H])OC34C([H])(OC(=O)C([H])([H])[H])C([H])([H])C([H])(O[H])C25C([H])(O[H])C([H])([H])C([H])([H])C(=O)C32C([H])(O[H])C([H])(O[H])C([H])([H])C3(C([H])([H])[H])C2([H])C53C([H])([H])C4([H])C([H])([H])C(O[H])(C([H])([H])[H])C1=O

$$$$
39:0:0
     RDKit          3D

 65 70  0  0  1  0  0  0  0  0999 V2000
    3.3595    0.2986    1.7290 C   0  0  0  0  0  0  0  0  0  0  0  0
    4.6993   -0.1801    1.7768 O   0  0  0  0  0  0  0  0  0  0  0  0
    4.7593   -1.5322    2.0686 C   0  0  0  0  0  0  0  0  0  0  0  0
    4.2804   -2.2765    0.9864 O   0  0  0  0  0  0  0  0  0  0  0  0
    3.8662   -3.6286    1.1923 C   0  0  2  0  0  0  0  0  0  0  0  0
    2.5586   -3.5813    2.0309 C   0  0  0  0  0  0  0  0  0  0  0  0
    1.8966   -4.9110    2.4133 C   0  0  1  0  0  0  0  0  0  0  0  0
    1.5754   -5.5393    1.1916 O   0  0  0  0  0  0  0  0  0  0  0  0
    2.6712   -5.7967    3.4433 C   0  0  1  0  0  0  0  0  0  0  0  0
    3.1148   -4.9360    4.6624 C   0  0  0  0  0  0  0  0  0  0  0  0
    1.8516   -6.9745    4.0197 C   0  0  1  0  0  0  0  0  0  0  0  0
    0.3275   -7.0041    4.3102 C   0  0  0  0  0  0  0  0  0  0  0  0
   -0.1084   -8.3503    3.6425 C   0  0  2  0  0  0  0  0  0  0  0  0
   -1.6200   -8.5781    3.5155 C   0  0  0  0  0  0  0  0  0  0  0  0
    0.6920   -9.5186    4.2159 C   0  0  0  0  0  0  0  0  0  0  0  0
    1.9510   -9.4092    3.7916 C   0  0  0  0  0  0  0  0  0  0  0  0
    3.1142  -10.3664    3.9305 C   0  0  0  0  0  0  0  0  0  0  0  0
    2.0066   -8.1039    3.0122 C   0  0  1  0  0  0  0  0  0  0  0  0
    0.6335   -8.2043    2.3240 C   0  0  0  0  0  0  0  0  0  0  0  0
    3.1612   -7.8051    2.2450 O   0  0  0  0  0  0  0  0  0  0  0  0
    3.8330   -6.6420    2.7908 C   0  0  2  0  0  0  0  0  0  0  0  0
    4.8721   -7.2257    3.7752 C   0  0  2  0  0  0  0  0  0  0  0  0
    6.1290   -6.3772    3.9768 C   0  0  0  0  0  0  0  0  0  0  0  0
    6.0999   -6.6387    2.4654 C   0  0  1  0  0  0  0  0  0  0  0  0
    5.6505   -7.9595    2.8050 O   0  0  0  0  0  0  0  0  0  0  0  0
    4.8600   -6.0326    1.7719 C   0  0  1  0  0  0  0  0  0  0  0  0
    4.6813   -6.6181    0.3475 C   0  0  0  0  0  0  0  0  0  0  0  0
    5.0600   -4.4636    1.7204 C   0  0  1  0  0  0  0  0  0  0  0  0
    6.3732   -4.1073    0.9460 C   0  0  0  0  0  0  0  0  0  0  0  0
    3.3772    1.3748    1.6130 H   0  0  0  0  0  0  0  0  0  0  0  0
    2.8333    0.0662    2.6547 H   0  0  0  0  0  0  0  0  0  0  0  0
    2.8224   -0.1389    0.8885 H   0  0  0  0  0  0  0  0  0  0  0  0
    5.8115   -1.7487    2.2450 H   0  0  0  0  0  0  0  0  0  0  0  0
    4.2022   -1.7131    2.9922 H   0  0  0  0  0  0  0  0  0  0  0  0
    3.6072   -4.0146    0.2050 H   0  0  0  0  0  0  0  0  0  0  0  0
    2.6602   -3.0064    2.9442 H   0  0  0  0  0  0  0  0  0  0  0  0
    1.8325   -3.0122    1.4404 H   0  0  0  0  0  0  0  0  0  0  0  0
    0.9583   -4.6283    2.8907 H   0  0  0  0  0  0  0  0  0  0  0  0
    2.3834   -5.8375    0.7901 H   0  0  0  0  0  0  0  0  0  0  0  0
    3.5826   -5.5146    5.4642 H   0  0  0  0  0  0  0  0  0  0  0  0
    2.2582   -4.4348    5.1164 H   0  0  0  0  0  0  0  0  0  0  0  0
    3.8289   -4.1499    4.4179 H   0  0  0  0  0  0  0  0  0  0  0  0
    2.3320   -7.2922    4.9422 H   0  0  0  0  0  0  0  0  0  0  0  0
    0.1106   -7.0067    5.3821 H   0  0  0  0  0  0  0  0  0  0  0  0
   -0.2125   -6.1712    3.8648 H   0  0  0  0  0  0  0  0  0  0  0  0
   -2.0957   -7.7557    2.9872 H   0  0  0  0  0  0  0  0  0  0  0  0
   -2.0925   -8.6576    4.4935 H   0  0  0  0  0  0  0  0  0  0  0  0
   -1.8362   -9.4929    2.9652 H   0  0  0  0  0  0  0  0  0  0  0  0
    0.2608  -10.3515    4.7670 H   0  0  0  0  0  0  0  0  0  0  0  0
    3.5552  -10.5331    2.9514 H   0  0  0  0  0  0  0  0  0  0  0  0
    2.7714  -11.3250    4.3196 H   0  0  0  0  0  0  0  0  0  0  0  0
    3.8779   -9.9703    4.5940 H   0  0  0  0  0  0  0  0  0  0  0  0
    0.5670   -9.0862    1.6912 H   0  0  0  0  0  0  0  0  0  0  0  0
    0.2712   -7.3655    1.7500 H   0  0  0  0  0  0  0  0  0  0  0  0
    4.5437   -7.8120    4.6299 H   0  0  0  0  0  0  0  0  0  0  0  0
    5.9675   -5.3567    4.3103 H   0  0  0  0  0  0  0  0  0  0  0  0
    6.9351   -6.8865    4.4931 H   0  0  0  0  0  0  0  0  0  0  0  0
    7.0588   -6.6252    1.9531 H   0  0  0  0  0  0  0  0  0  0  0  0
    5.4606   -6.2816   -0.3230 H   0  0  0  0  0  0  0  0  0  0  0  0
    3.7336   -6.3406   -0.1053 H   0  0  0  0  0  0  0  0  0  0  0  0
    4.7349   -7.7045    0.3564 H   0  0  0  0  0  0  0  0  0  0  0  0
    5.2098   -4.1237    2.7355 H   0  0  0  0  0  0  0  0  0  0  0  0
    6.3241   -4.3901   -0.1072 H   0  0  0  0  0  0  0  0  0  0  0  0
    7.2488   -4.6014    1.3637 H   0  0  0  0  0  0  0  0  0  0  0  0
    6.6294   -3.0548    0.9512 H   0  0  0  0  0  0  0  0  0  0  0  0
  1  2  1  0
  1 30  1  0
  1 31  1  0
  1 32  1  0
  2  3  1  0
  3  4  1  0
  3 33  1  0
  3 34  1  0
  4  5  1  0
  5 28  1  0
  5  6  1  0
  5 35  1  6
  6  7  1  0
  6 36  1  0
  6 37  1  0
  7  8  1  0
  7  9  1  0
  7 38  1  1
  8 39  1  0
  9 21  1  0
  9 10  1  1
  9 11  1  0
 10 40  1  0
 10 41  1  0
 10 42  1  0
 11 18  1  0
 11 12  1  0
 11 43  1  1
 12 13  1  0
 12 44  1  0
 12 45  1  0
 13 19  1  0
 13 14  1  6
 13 15  1  0
 14 46  1  0
 14 47  1  0
 14 48  1  0
 15 16  2  0
 15 49  1  0
 16 17  1  0
 16 18  1  0
 17 50  1  0
 17 51  1  0
 17 52  1  0
 18 19  1  0
 18 20  1  6
 19 53  1  0
 19 54  1  0
 21 20  1  6
 21 26  1  0
 21 22  1  0
 22 25  1  0
 22 23  1  0
 22 55  1  1
 23 24  1  0
 23 56  1  0
 23 57  1  0
 24 25  1  0
 24 26  1  0
 24 58  1  6
 26 27  1  6
 26 28  1  0
 27 59  1  0
 27 60  1  0
 27 61  1  0
 28 29  1  0
 28 62  1  1
 29 63  1  0
 29 64  1  0
 29 65  1  0
M  END
>  <i_m_ct_stereo_status>  (172) 
1

>  <s_m_source_file>  (172) 
/var/tmp/pbs.5076255.sched01/tmpqm933_o1/456x1pmp19.sdf

>  <i_m_source_file_index>  (172) 
25

>  <i_lp_mmshare_version>  (172) 
48012

>  <i_f3d_flags>  (172) 
0

>  <s_epik_input>  (172) 
W0NIM11PW0NIMl1PW0NASF0oW0NIMl1bQ0BIXTFbT0hdKVtDQEhdKFtDSDNdKVtDQEBdMihbQ0gzXSlbQ0BIXShPMylbQ0gyXVtDQEhdM1tDQEBdMihPNClbQ0BdMShbQ0gzXSlbQ0BIXShbQ0BAXTQ1NilbQ0gyXVtDQEBdKFtDSDNdKShbQ0gyXTYpW0NIXT1DNVtDSDNd

>  <s_epik_cmdline>  (172) 
J2VwaWtfcHl0aG9uJywgJy1waHQnLCAnMi4wJywgJy1waCcsICc3LjAnLCAnLXRuJywgJzgnLCAnLW1hJywgJzIwMCcsICctaW1hZScsICc8aW5maWxlLm1hZT4nLCAnLW9tYWUnLCAnPG91dGZpbGUubWFlPic=

>  <r_lp_tautomer_probability>  (172) 
1

>  <r_epik_Ionization_Penalty>  (172) 
9.40182e-08

>  <r_epik_Ionization_Penalty_Charging>  (172) 
0

>  <r_epik_Ionization_Penalty_Neutral>  (172) 
9.40182e-08

>  <r_epik_State_Penalty>  (172) 
-0

>  <r_epik_Charging_Adjusted_Penalty>  (172) 
0

>  <i_epik_Tot_Q>  (172) 
0

>  <i_epik_Tot_abs_Q>  (172) 
0

>  <s_epik_Chemistry_Notes>  (172) 
This compound contains an acetal/aminal-like group ( X-CH(R)-Y where X, Y are N, S, or O) that may be acid/base labile, releasing an aldehyde.

>  <s_lp_Force_Field>  (172) 
OPLS3e

>  <r_lp_Energy>  (172) 
95.6381

>  <b_lp_Chiralities_Consistent>  (172) 
1

>  <s_lp_Variant>  (172) 
39:0-1

>  <s_i_glide_gridfile>  (172) 
pfpi4k_grid

>  <i_i_glide_lignum>  (172) 
25

>  <i_i_glide_rotatable_bonds>  (172) 
4

>  <r_i_docking_score>  (172) 
-2.52362

>  <r_i_glide_ligand_efficiency>  (172) 
-0.0870213

>  <r_i_glide_ligand_efficiency_sa>  (172) 
-0.267357

>  <r_i_glide_ligand_efficiency_ln>  (172) 
-0.577845

>  <r_i_glide_gscore>  (172) 
-2.52362

>  <r_i_glide_lipo>  (172) 
-0.386744

>  <r_i_glide_hbond>  (172) 
-0.0470632

>  <r_i_glide_metal>  (172) 
-0

>  <r_i_glide_rewards>  (172) 
-0.728466

>  <r_i_glide_evdw>  (172) 
-19.7015

>  <r_i_glide_ecoul>  (172) 
-4.10894

>  <r_i_glide_erotb>  (172) 
0.240071

>  <r_i_glide_esite>  (172) 
0

>  <r_i_glide_emodel>  (172) 
-24.1614

>  <r_i_glide_energy>  (172) 
-23.8105

>  <r_i_glide_einternal>  (172) 
7.95247

>  <r_i_glide_intrahb_reward>  (172) 
-0

>  <i_i_glide_confnum>  (172) 
5

>  <i_i_glide_posenum>  (172) 
9

>  <r_i_glide_eff_state_penalty>  (172) 
0

>  <ligand_id>  (172) 
39

>  <original_smiles>  (172) 
COCOC1CC(O)C2(C)C3CC4(C)C=C(C)C3(C4)OC23C2CC(O2)C3(C)C1C

>  <smiles>  (172) 
[H]OC1([H])C([H])([H])C([H])(OC([H])([H])OC([H])([H])[H])C([H])(C([H])([H])[H])C2(C([H])([H])[H])C3([H])OC([H])(C3([H])[H])C23OC24C(C([H])([H])[H])=C([H])C(C([H])([H])[H])(C2([H])[H])C([H])([H])C4([H])C13C([H])([H])[H]

$$$$
39:0:1
     RDKit          3D

 65 70  0  0  1  0  0  0  0  0999 V2000
    6.0458   -0.5077    0.5824 C   0  0  0  0  0  0  0  0  0  0  0  0
    5.2845   -0.6724    1.7670 O   0  0  0  0  0  0  0  0  0  0  0  0
    5.0383   -2.0011    2.0793 C   0  0  0  0  0  0  0  0  0  0  0  0
    4.3325   -2.6135    1.0366 O   0  0  0  0  0  0  0  0  0  0  0  0
    3.8468   -3.9490    1.1983 C   0  0  2  0  0  0  0  0  0  0  0  0
    2.6755   -3.8551    2.2077 C   0  0  0  0  0  0  0  0  0  0  0  0
    1.9358   -5.1502    2.5777 C   0  0  1  0  0  0  0  0  0  0  0  0
    1.4262   -5.6608    1.3644 O   0  0  0  0  0  0  0  0  0  0  0  0
    2.7457   -6.1730    3.4385 C   0  0  1  0  0  0  0  0  0  0  0  0
    3.4065   -5.4508    4.6478 C   0  0  0  0  0  0  0  0  0  0  0  0
    1.8976   -7.3188    4.0315 C   0  0  1  0  0  0  0  0  0  0  0  0
    0.4248   -7.2458    4.5077 C   0  0  0  0  0  0  0  0  0  0  0  0
   -0.2084   -8.4909    3.8106 C   0  0  2  0  0  0  0  0  0  0  0  0
   -1.7374   -8.5818    3.8556 C   0  0  0  0  0  0  0  0  0  0  0  0
    0.5513   -9.7681    4.1954 C   0  0  0  0  0  0  0  0  0  0  0  0
    1.7443   -9.7286    3.6205 C   0  0  0  0  0  0  0  0  0  0  0  0
    2.8307  -10.7933    3.5501 C   0  0  0  0  0  0  0  0  0  0  0  0
    1.8275   -8.3763    2.9389 C   0  0  1  0  0  0  0  0  0  0  0  0
    0.3773   -8.3077    2.4237 C   0  0  0  0  0  0  0  0  0  0  0  0
    2.8994   -8.1123    2.0531 O   0  0  0  0  0  0  0  0  0  0  0  0
    3.7424   -7.0575    2.5910 C   0  0  2  0  0  0  0  0  0  0  0  0
    4.8337   -7.8040    3.3924 C   0  0  2  0  0  0  0  0  0  0  0  0
    6.1758   -7.0776    3.4941 C   0  0  0  0  0  0  0  0  0  0  0  0
    5.9467   -7.2185    1.9836 C   0  0  1  0  0  0  0  0  0  0  0  0
    5.4178   -8.5227    2.2821 O   0  0  0  0  0  0  0  0  0  0  0  0
    4.6968   -6.4564    1.4935 C   0  0  1  0  0  0  0  0  0  0  0  0
    4.2945   -6.9149    0.0716 C   0  0  0  0  0  0  0  0  0  0  0  0
    5.0146   -4.9148    1.5216 C   0  0  1  0  0  0  0  0  0  0  0  0
    6.2537   -4.5896    0.6269 C   0  0  0  0  0  0  0  0  0  0  0  0
    6.2143    0.5489    0.4467 H   0  0  0  0  0  0  0  0  0  0  0  0
    5.5011   -0.8571   -0.2917 H   0  0  0  0  0  0  0  0  0  0  0  0
    7.0092   -1.0186    0.6370 H   0  0  0  0  0  0  0  0  0  0  0  0
    5.9963   -2.5126    2.2245 H   0  0  0  0  0  0  0  0  0  0  0  0
    4.4287   -1.9954    2.9914 H   0  0  0  0  0  0  0  0  0  0  0  0
    3.4340   -4.2358    0.2321 H   0  0  0  0  0  0  0  0  0  0  0  0
    2.9780   -3.3565    3.1266 H   0  0  0  0  0  0  0  0  0  0  0  0
    1.9354   -3.1820    1.7599 H   0  0  0  0  0  0  0  0  0  0  0  0
    1.0879   -4.8256    3.1832 H   0  0  0  0  0  0  0  0  0  0  0  0
    2.1547   -6.0183    0.8682 H   0  0  0  0  0  0  0  0  0  0  0  0
    3.9122   -6.1266    5.3441 H   0  0  0  0  0  0  0  0  0  0  0  0
    2.6608   -4.9166    5.2381 H   0  0  0  0  0  0  0  0  0  0  0  0
    4.1565   -4.7104    4.3714 H   0  0  0  0  0  0  0  0  0  0  0  0
    2.4507   -7.7490    4.8623 H   0  0  0  0  0  0  0  0  0  0  0  0
    0.3328   -7.3172    5.5954 H   0  0  0  0  0  0  0  0  0  0  0  0
   -0.0919   -6.3413    4.1901 H   0  0  0  0  0  0  0  0  0  0  0  0
   -2.1959   -7.6871    3.4403 H   0  0  0  0  0  0  0  0  0  0  0  0
   -2.0937   -8.6774    4.8808 H   0  0  0  0  0  0  0  0  0  0  0  0
   -2.1070   -9.4367    3.2854 H   0  0  0  0  0  0  0  0  0  0  0  0
    0.1194  -10.6019    4.7426 H   0  0  0  0  0  0  0  0  0  0  0  0
    3.1327  -10.9174    2.5154 H   0  0  0  0  0  0  0  0  0  0  0  0
    2.4448  -11.7428    3.9144 H   0  0  0  0  0  0  0  0  0  0  0  0
    3.6959  -10.5114    4.1412 H   0  0  0  0  0  0  0  0  0  0  0  0
    0.1440   -9.1323    1.7525 H   0  0  0  0  0  0  0  0  0  0  0  0
    0.0256   -7.4012    1.9574 H   0  0  0  0  0  0  0  0  0  0  0  0
    4.5516   -8.4278    4.2401 H   0  0  0  0  0  0  0  0  0  0  0  0
    6.1468   -6.0751    3.9128 H   0  0  0  0  0  0  0  0  0  0  0  0
    6.9854   -7.6892    3.8683 H   0  0  0  0  0  0  0  0  0  0  0  0
    6.8337   -7.2419    1.3503 H   0  0  0  0  0  0  0  0  0  0  0  0
    5.0046   -6.6040   -0.6876 H   0  0  0  0  0  0  0  0  0  0  0  0
    3.3347   -6.4995   -0.2201 H   0  0  0  0  0  0  0  0  0  0  0  0
    4.2355   -8.0029    0.0050 H   0  0  0  0  0  0  0  0  0  0  0  0
    5.3115   -4.6752    2.5330 H   0  0  0  0  0  0  0  0  0  0  0  0
    6.0598   -4.7782   -0.4328 H   0  0  0  0  0  0  0  0  0  0  0  0
    7.1310   -5.1848    0.8870 H   0  0  0  0  0  0  0  0  0  0  0  0
    6.5701   -3.5539    0.7231 H   0  0  0  0  0  0  0  0  0  0  0  0
  1  2  1  0
  1 30  1  0
  1 31  1  0
  1 32  1  0
  2  3  1  0
  3  4  1  0
  3 33  1  0
  3 34  1  0
  4  5  1  0
  5 28  1  0
  5  6  1  0
  5 35  1  6
  6  7  1  0
  6 36  1  0
  6 37  1  0
  7  8  1  0
  7  9  1  0
  7 38  1  1
  8 39  1  0
  9 21  1  0
  9 10  1  1
  9 11  1  0
 10 40  1  0
 10 41  1  0
 10 42  1  0
 11 18  1  0
 11 12  1  0
 11 43  1  1
 12 13  1  0
 12 44  1  0
 12 45  1  0
 13 19  1  0
 13 14  1  6
 13 15  1  0
 14 46  1  0
 14 47  1  0
 14 48  1  0
 15 16  2  0
 15 49  1  0
 16 17  1  0
 16 18  1  0
 17 50  1  0
 17 51  1  0
 17 52  1  0
 18 19  1  0
 18 20  1  6
 19 53  1  0
 19 54  1  0
 21 20  1  6
 21 26  1  0
 21 22  1  0
 22 25  1  0
 22 23  1  0
 22 55  1  1
 23 24  1  0
 23 56  1  0
 23 57  1  0
 24 25  1  0
 24 26  1  0
 24 58  1  6
 26 27  1  6
 26 28  1  0
 27 59  1  0
 27 60  1  0
 27 61  1  0
 28 29  1  0
 28 62  1  1
 29 63  1  0
 29 64  1  0
 29 65  1  0
M  END
>  <i_m_ct_stereo_status>  (173) 
1

>  <s_m_source_file>  (173) 
/var/tmp/pbs.5076255.sched01/tmpqm933_o1/456x1pmp19.sdf

>  <i_m_source_file_index>  (173) 
25

>  <i_lp_mmshare_version>  (173) 
48012

>  <i_f3d_flags>  (173) 
0

>  <s_epik_input>  (173) 
W0NIM11PW0NIMl1PW0NASF0oW0NIMl1bQ0BIXTFbT0hdKVtDQEhdKFtDSDNdKVtDQEBdMihbQ0gzXSlbQ0BIXShPMylbQ0gyXVtDQEhdM1tDQEBdMihPNClbQ0BdMShbQ0gzXSlbQ0BIXShbQ0BAXTQ1NilbQ0gyXVtDQEBdKFtDSDNdKShbQ0gyXTYpW0NIXT1DNVtDSDNd

>  <s_epik_cmdline>  (173) 
J2VwaWtfcHl0aG9uJywgJy1waHQnLCAnMi4wJywgJy1waCcsICc3LjAnLCAnLXRuJywgJzgnLCAnLW1hJywgJzIwMCcsICctaW1hZScsICc8aW5maWxlLm1hZT4nLCAnLW9tYWUnLCAnPG91dGZpbGUubWFlPic=

>  <r_lp_tautomer_probability>  (173) 
1

>  <r_epik_Ionization_Penalty>  (173) 
9.40182e-08

>  <r_epik_Ionization_Penalty_Charging>  (173) 
0

>  <r_epik_Ionization_Penalty_Neutral>  (173) 
9.40182e-08

>  <r_epik_State_Penalty>  (173) 
-0

>  <r_epik_Charging_Adjusted_Penalty>  (173) 
0

>  <i_epik_Tot_Q>  (173) 
0

>  <i_epik_Tot_abs_Q>  (173) 
0

>  <s_epik_Chemistry_Notes>  (173) 
This compound contains an acetal/aminal-like group ( X-CH(R)-Y where X, Y are N, S, or O) that may be acid/base labile, releasing an aldehyde.

>  <s_lp_Force_Field>  (173) 
OPLS3e

>  <r_lp_Energy>  (173) 
95.6381

>  <b_lp_Chiralities_Consistent>  (173) 
1

>  <s_lp_Variant>  (173) 
39:0-1

>  <s_i_glide_gridfile>  (173) 
pfpi4k_grid

>  <i_i_glide_lignum>  (173) 
25

>  <i_i_glide_rotatable_bonds>  (173) 
4

>  <r_i_docking_score>  (173) 
-2.51625

>  <r_i_glide_ligand_efficiency>  (173) 
-0.0867673

>  <r_i_glide_ligand_efficiency_sa>  (173) 
-0.266577

>  <r_i_glide_ligand_efficiency_ln>  (173) 
-0.576158

>  <r_i_glide_gscore>  (173) 
-2.51625

>  <r_i_glide_lipo>  (173) 
-0.479384

>  <r_i_glide_hbond>  (173) 
0

>  <r_i_glide_metal>  (173) 
-0

>  <r_i_glide_rewards>  (173) 
-0.741327

>  <r_i_glide_evdw>  (173) 
-20.2073

>  <r_i_glide_ecoul>  (173) 
-3.50163

>  <r_i_glide_erotb>  (173) 
0.240071

>  <r_i_glide_esite>  (173) 
0

>  <r_i_glide_emodel>  (173) 
-23.8886

>  <r_i_glide_energy>  (173) 
-23.709

>  <r_i_glide_einternal>  (173) 
7.78904

>  <r_i_glide_intrahb_reward>  (173) 
-0

>  <i_i_glide_confnum>  (173) 
5

>  <i_i_glide_posenum>  (173) 
24

>  <r_i_glide_eff_state_penalty>  (173) 
0

>  <ligand_id>  (173) 
39

>  <original_smiles>  (173) 
COCOC1CC(O)C2(C)C3CC4(C)C=C(C)C3(C4)OC23C2CC(O2)C3(C)C1C

>  <smiles>  (173) 
[H]OC1([H])C([H])([H])C([H])(OC([H])([H])OC([H])([H])[H])C([H])(C([H])([H])[H])C2(C([H])([H])[H])C3([H])OC([H])(C3([H])[H])C23OC24C(C([H])([H])[H])=C([H])C(C([H])([H])[H])(C2([H])[H])C([H])([H])C4([H])C13C([H])([H])[H]

$$$$
39:0:2
     RDKit          3D

 65 70  0  0  1  0  0  0  0  0999 V2000
    7.0966   -2.4218    0.1138 C   0  0  0  0  0  0  0  0  0  0  0  0
    6.6431   -1.0829    0.2164 O   0  0  0  0  0  0  0  0  0  0  0  0
    5.7850   -0.8775    1.2917 C   0  0  0  0  0  0  0  0  0  0  0  0
    4.5959   -1.5867    1.1006 O   0  0  0  0  0  0  0  0  0  0  0  0
    3.4851   -1.3127    1.9619 C   0  0  2  0  0  0  0  0  0  0  0  0
    2.9676    0.0868    1.5492 C   0  0  0  0  0  0  0  0  0  0  0  0
    1.7542    0.6571    2.2990 C   0  0  1  0  0  0  0  0  0  0  0  0
    0.7171   -0.2672    2.0645 O   0  0  0  0  0  0  0  0  0  0  0  0
    1.9809    1.0508    3.7954 C   0  0  1  0  0  0  0  0  0  0  0  0
    3.2592    1.9320    3.9155 C   0  0  0  0  0  0  0  0  0  0  0  0
    0.8340    1.8698    4.4295 C   0  0  1  0  0  0  0  0  0  0  0  0
   -0.0920    2.8978    3.7200 C   0  0  0  0  0  0  0  0  0  0  0  0
   -1.5109    2.4388    4.1821 C   0  0  2  0  0  0  0  0  0  0  0  0
   -2.6954    3.0893    3.4617 C   0  0  0  0  0  0  0  0  0  0  0  0
   -1.6072    2.4193    5.7129 C   0  0  0  0  0  0  0  0  0  0  0  0
   -0.8482    1.4167    6.1574 C   0  0  0  0  0  0  0  0  0  0  0  0
   -0.6869    0.8572    7.5563 C   0  0  0  0  0  0  0  0  0  0  0  0
   -0.1696    0.8467    4.9258 C   0  0  1  0  0  0  0  0  0  0  0  0
   -1.3606    0.9417    3.9647 C   0  0  0  0  0  0  0  0  0  0  0  0
    0.5340   -0.3822    5.0512 O   0  0  0  0  0  0  0  0  0  0  0  0
    1.9495   -0.1745    4.7867 C   0  0  2  0  0  0  0  0  0  0  0  0
    2.5493    0.0798    6.1911 C   0  0  2  0  0  0  0  0  0  0  0  0
    4.0133   -0.3295    6.3391 C   0  0  0  0  0  0  0  0  0  0  0  0
    3.3265   -1.6309    5.9129 C   0  0  1  0  0  0  0  0  0  0  0  0
    2.2313   -1.2160    6.7652 O   0  0  0  0  0  0  0  0  0  0  0  0
    2.7014   -1.5273    4.4997 C   0  0  1  0  0  0  0  0  0  0  0  0
    1.7153   -2.7003    4.2564 C   0  0  0  0  0  0  0  0  0  0  0  0
    3.8731   -1.5363    3.4466 C   0  0  1  0  0  0  0  0  0  0  0  0
    4.7444   -2.8257    3.5849 C   0  0  0  0  0  0  0  0  0  0  0  0
    7.8035   -2.4982   -0.7123 H   0  0  0  0  0  0  0  0  0  0  0  0
    6.2651   -3.0996   -0.0812 H   0  0  0  0  0  0  0  0  0  0  0  0
    7.6002   -2.7478    1.0249 H   0  0  0  0  0  0  0  0  0  0  0  0
    6.2750   -1.1934    2.2096 H   0  0  0  0  0  0  0  0  0  0  0  0
    5.5738    0.1919    1.3111 H   0  0  0  0  0  0  0  0  0  0  0  0
    2.7218   -2.0426    1.7038 H   0  0  0  0  0  0  0  0  0  0  0  0
    3.7632    0.8308    1.5699 H   0  0  0  0  0  0  0  0  0  0  0  0
    2.6776    0.0097    0.4946 H   0  0  0  0  0  0  0  0  0  0  0  0
    1.4806    1.5637    1.7603 H   0  0  0  0  0  0  0  0  0  0  0  0
    0.6156   -0.3594    1.1189 H   0  0  0  0  0  0  0  0  0  0  0  0
    3.4296    2.3298    4.9177 H   0  0  0  0  0  0  0  0  0  0  0  0
    3.1983    2.7975    3.2544 H   0  0  0  0  0  0  0  0  0  0  0  0
    4.1766    1.4107    3.6552 H   0  0  0  0  0  0  0  0  0  0  0  0
    1.2351    2.3867    5.2997 H   0  0  0  0  0  0  0  0  0  0  0  0
    0.1204    3.9247    4.0275 H   0  0  0  0  0  0  0  0  0  0  0  0
   -0.0188    2.8625    2.6327 H   0  0  0  0  0  0  0  0  0  0  0  0
   -2.6100    2.9522    2.3845 H   0  0  0  0  0  0  0  0  0  0  0  0
   -2.7325    4.1604    3.6518 H   0  0  0  0  0  0  0  0  0  0  0  0
   -3.6465    2.6554    3.7684 H   0  0  0  0  0  0  0  0  0  0  0  0
   -2.2685    3.0463    6.2964 H   0  0  0  0  0  0  0  0  0  0  0  0
   -0.8107   -0.2209    7.5140 H   0  0  0  0  0  0  0  0  0  0  0  0
   -1.4355    1.2825    8.2237 H   0  0  0  0  0  0  0  0  0  0  0  0
    0.3007    1.0718    7.9547 H   0  0  0  0  0  0  0  0  0  0  0  0
   -2.2112    0.3581    4.3088 H   0  0  0  0  0  0  0  0  0  0  0  0
   -1.2093    0.7092    2.9155 H   0  0  0  0  0  0  0  0  0  0  0  0
    2.2086    0.9293    6.7774 H   0  0  0  0  0  0  0  0  0  0  0  0
    4.7164    0.1232    5.6455 H   0  0  0  0  0  0  0  0  0  0  0  0
    4.3728   -0.3399    7.3681 H   0  0  0  0  0  0  0  0  0  0  0  0
    3.7847   -2.5655    6.2223 H   0  0  0  0  0  0  0  0  0  0  0  0
    2.2244   -3.6567    4.1939 H   0  0  0  0  0  0  0  0  0  0  0  0
    1.1412   -2.5633    3.3420 H   0  0  0  0  0  0  0  0  0  0  0  0
    1.0036   -2.7984    5.0739 H   0  0  0  0  0  0  0  0  0  0  0  0
    4.5392   -0.7194    3.6880 H   0  0  0  0  0  0  0  0  0  0  0  0
    4.1909   -3.7334    3.3313 H   0  0  0  0  0  0  0  0  0  0  0  0
    5.1228   -2.9748    4.5975 H   0  0  0  0  0  0  0  0  0  0  0  0
    5.6260   -2.8126    2.9573 H   0  0  0  0  0  0  0  0  0  0  0  0
  1  2  1  0
  1 30  1  0
  1 31  1  0
  1 32  1  0
  2  3  1  0
  3  4  1  0
  3 33  1  0
  3 34  1  0
  4  5  1  0
  5 28  1  0
  5  6  1  0
  5 35  1  6
  6  7  1  0
  6 36  1  0
  6 37  1  0
  7  8  1  0
  7  9  1  0
  7 38  1  6
  8 39  1  0
  9 21  1  0
  9 10  1  6
  9 11  1  0
 10 40  1  0
 10 41  1  0
 10 42  1  0
 11 18  1  0
 11 12  1  0
 11 43  1  1
 12 13  1  0
 12 44  1  0
 12 45  1  0
 13 19  1  0
 13 14  1  6
 13 15  1  0
 14 46  1  0
 14 47  1  0
 14 48  1  0
 15 16  2  0
 15 49  1  0
 16 17  1  0
 16 18  1  0
 17 50  1  0
 17 51  1  0
 17 52  1  0
 18 19  1  0
 18 20  1  1
 19 53  1  0
 19 54  1  0
 21 20  1  1
 21 26  1  0
 21 22  1  0
 22 25  1  0
 22 23  1  0
 22 55  1  1
 23 24  1  0
 23 56  1  0
 23 57  1  0
 24 25  1  0
 24 26  1  0
 24 58  1  1
 26 27  1  6
 26 28  1  0
 27 59  1  0
 27 60  1  0
 27 61  1  0
 28 29  1  0
 28 62  1  1
 29 63  1  0
 29 64  1  0
 29 65  1  0
M  END
>  <i_m_ct_stereo_status>  (174) 
1

>  <s_m_source_file>  (174) 
/var/tmp/pbs.5076255.sched01/tmpqm933_o1/456x1pmp19.sdf

>  <i_m_source_file_index>  (174) 
25

>  <i_lp_mmshare_version>  (174) 
48012

>  <i_f3d_flags>  (174) 
0

>  <s_epik_input>  (174) 
W0NIM11PW0NIMl1PW0NASF0oW0NIMl1bQ0BIXTFbT0hdKVtDQEhdKFtDSDNdKVtDQEBdMihbQ0gzXSlbQ0BIXShPMylbQ0gyXVtDQEhdM1tDQEBdMihPNClbQ0BdMShbQ0gzXSlbQ0BIXShbQ0BAXTQ1NilbQ0gyXVtDQEBdKFtDSDNdKShbQ0gyXTYpW0NIXT1DNVtDSDNd

>  <s_epik_cmdline>  (174) 
J2VwaWtfcHl0aG9uJywgJy1waHQnLCAnMi4wJywgJy1waCcsICc3LjAnLCAnLXRuJywgJzgnLCAnLW1hJywgJzIwMCcsICctaW1hZScsICc8aW5maWxlLm1hZT4nLCAnLW9tYWUnLCAnPG91dGZpbGUubWFlPic=

>  <r_lp_tautomer_probability>  (174) 
1

>  <r_epik_Ionization_Penalty>  (174) 
9.40182e-08

>  <r_epik_Ionization_Penalty_Charging>  (174) 
0

>  <r_epik_Ionization_Penalty_Neutral>  (174) 
9.40182e-08

>  <r_epik_State_Penalty>  (174) 
-0

>  <r_epik_Charging_Adjusted_Penalty>  (174) 
0

>  <i_epik_Tot_Q>  (174) 
0

>  <i_epik_Tot_abs_Q>  (174) 
0

>  <s_epik_Chemistry_Notes>  (174) 
This compound contains an acetal/aminal-like group ( X-CH(R)-Y where X, Y are N, S, or O) that may be acid/base labile, releasing an aldehyde.

>  <s_lp_Force_Field>  (174) 
OPLS3e

>  <r_lp_Energy>  (174) 
95.6381

>  <b_lp_Chiralities_Consistent>  (174) 
1

>  <s_lp_Variant>  (174) 
39:0-1

>  <s_i_glide_gridfile>  (174) 
pfpi4k_grid

>  <i_i_glide_lignum>  (174) 
25

>  <i_i_glide_rotatable_bonds>  (174) 
4

>  <r_i_docking_score>  (174) 
-2.04817

>  <r_i_glide_ligand_efficiency>  (174) 
-0.0706266

>  <r_i_glide_ligand_efficiency_sa>  (174) 
-0.216987

>  <r_i_glide_ligand_efficiency_ln>  (174) 
-0.468979

>  <r_i_glide_gscore>  (174) 
-2.04817

>  <r_i_glide_lipo>  (174) 
-0.116223

>  <r_i_glide_hbond>  (174) 
-0.0338141

>  <r_i_glide_metal>  (174) 
-0

>  <r_i_glide_rewards>  (174) 
-0.803326

>  <r_i_glide_evdw>  (174) 
-21.14

>  <r_i_glide_ecoul>  (174) 
-1.85252

>  <r_i_glide_erotb>  (174) 
0.240071

>  <r_i_glide_esite>  (174) 
0

>  <r_i_glide_emodel>  (174) 
-21.9664

>  <r_i_glide_energy>  (174) 
-22.9925

>  <r_i_glide_einternal>  (174) 
8.03108

>  <r_i_glide_intrahb_reward>  (174) 
-0

>  <i_i_glide_confnum>  (174) 
5

>  <i_i_glide_posenum>  (174) 
13

>  <r_i_glide_eff_state_penalty>  (174) 
0

>  <ligand_id>  (174) 
39

>  <original_smiles>  (174) 
COCOC1CC(O)C2(C)C3CC4(C)C=C(C)C3(C4)OC23C2CC(O2)C3(C)C1C

>  <smiles>  (174) 
[H]OC1([H])C([H])([H])C([H])(OC([H])([H])OC([H])([H])[H])C([H])(C([H])([H])[H])C2(C([H])([H])[H])C3([H])OC([H])(C3([H])[H])C23OC24C(C([H])([H])[H])=C([H])C(C([H])([H])[H])(C2([H])[H])C([H])([H])C4([H])C13C([H])([H])[H]

$$$$
41:0:0
     RDKit          3D

 51 55  0  0  1  0  0  0  0  0999 V2000
    6.0329   -6.8921    3.3341 C   0  0  0  0  0  0  0  0  0  0  0  0
    5.0672   -5.8255    2.8288 C   0  0  2  0  0  0  0  0  0  0  0  0
    3.5906   -6.2444    3.1788 C   0  0  0  0  0  0  0  0  0  0  0  0
    2.4345   -5.4655    2.4923 C   0  0  0  0  0  0  0  0  0  0  0  0
    2.8649   -5.3056    1.0764 C   0  0  1  0  0  0  0  0  0  0  0  0
    2.2270   -4.4732    0.1145 O   0  0  0  0  0  0  0  0  0  0  0  0
    3.5684   -4.2324   -0.4423 C   0  0  1  0  0  0  0  0  0  0  0  0
    3.6887   -2.9440   -0.9745 O   0  0  0  0  0  0  0  0  0  0  0  0
    4.8767   -2.5771   -1.5987 C   0  0  0  0  0  0  0  0  0  0  0  0
    4.7861   -1.0629   -1.8842 C   0  0  0  0  0  0  0  0  0  0  0  0
    3.6047   -0.7816   -2.8261 C   0  0  0  0  0  0  0  0  0  0  0  0
    3.7175   -1.5630   -4.1299 C   0  0  0  0  0  0  0  0  0  0  0  0
    3.8339   -3.0640   -3.8412 C   0  0  0  0  0  0  0  0  0  0  0  0
    5.0308   -3.3551   -2.9314 C   0  0  0  0  0  0  0  0  0  0  0  0
    6.0326   -2.8568   -0.8524 O   0  0  0  0  0  0  0  0  0  0  0  0
    6.1106   -2.4405    0.4965 C   0  0  2  0  0  0  0  0  0  0  0  0
    6.8914   -1.1293    0.5931 C   0  0  0  0  0  0  0  0  0  0  0  0
    6.9424   -3.4960    1.2284 C   0  0  0  0  0  0  0  0  0  0  0  0
    6.6695   -4.9700    0.9040 C   0  0  0  0  0  0  0  0  0  0  0  0
    5.2849   -5.4903    1.3090 C   0  0  2  0  0  0  0  0  0  0  0  0
    4.1748   -4.5393    0.9256 C   0  0  2  0  0  0  0  0  0  0  0  0
    4.2776   -3.4211    1.8214 O   0  0  0  0  0  0  0  0  0  0  0  0
    4.8415   -2.1928    1.1055 O   0  0  0  0  0  0  0  0  0  0  0  0
    5.9666   -7.7986    2.7252 H   0  0  0  0  0  0  0  0  0  0  0  0
    5.7986   -7.1629    4.3640 H   0  0  0  0  0  0  0  0  0  0  0  0
    7.0673   -6.5457    3.3189 H   0  0  0  0  0  0  0  0  0  0  0  0
    5.2664   -4.9212    3.3990 H   0  0  0  0  0  0  0  0  0  0  0  0
    3.4691   -7.3025    2.9235 H   0  0  0  0  0  0  0  0  0  0  0  0
    3.4357   -6.1747    4.2535 H   0  0  0  0  0  0  0  0  0  0  0  0
    1.4953   -6.0095    2.5425 H   0  0  0  0  0  0  0  0  0  0  0  0
    2.2793   -4.4909    2.9418 H   0  0  0  0  0  0  0  0  0  0  0  0
    2.9814   -6.3058    0.6290 H   0  0  0  0  0  0  0  0  0  0  0  0
    3.8940   -5.0190   -1.1261 H   0  0  0  0  0  0  0  0  0  0  0  0
    4.5972   -0.5228   -0.9573 H   0  0  0  0  0  0  0  0  0  0  0  0
    5.7262   -0.7209   -2.3120 H   0  0  0  0  0  0  0  0  0  0  0  0
    2.6657   -1.0327   -2.3298 H   0  0  0  0  0  0  0  0  0  0  0  0
    3.5532    0.2812   -3.0530 H   0  0  0  0  0  0  0  0  0  0  0  0
    2.8182   -1.3675   -4.7157 H   0  0  0  0  0  0  0  0  0  0  0  0
    4.5688   -1.2064   -4.7042 H   0  0  0  0  0  0  0  0  0  0  0  0
    2.9142   -3.4370   -3.3851 H   0  0  0  0  0  0  0  0  0  0  0  0
    3.9564   -3.6243   -4.7593 H   0  0  0  0  0  0  0  0  0  0  0  0
    5.9551   -3.0348   -3.4014 H   0  0  0  0  0  0  0  0  0  0  0  0
    5.1359   -4.4224   -2.7562 H   0  0  0  0  0  0  0  0  0  0  0  0
    6.3558   -0.2556    0.2017 H   0  0  0  0  0  0  0  0  0  0  0  0
    7.8595   -1.1870    0.0851 H   0  0  0  0  0  0  0  0  0  0  0  0
    7.1140   -0.9021    1.6401 H   0  0  0  0  0  0  0  0  0  0  0  0
    7.9972   -3.3377    1.0029 H   0  0  0  0  0  0  0  0  0  0  0  0
    6.7793   -3.3247    2.2802 H   0  0  0  0  0  0  0  0  0  0  0  0
    6.8131   -5.1146   -0.1689 H   0  0  0  0  0  0  0  0  0  0  0  0
    7.4424   -5.5817    1.3715 H   0  0  0  0  0  0  0  0  0  0  0  0
    5.1815   -6.4245    0.7523 H   0  0  0  0  0  0  0  0  0  0  0  0
  1  2  1  0
  1 24  1  0
  1 25  1  0
  1 26  1  0
  2 20  1  0
  2  3  1  0
  2 27  1  1
  3  4  1  0
  3 28  1  0
  3 29  1  0
  4  5  1  0
  4 30  1  0
  4 31  1  0
  5 21  1  0
  5  6  1  0
  5 32  1  6
  6  7  1  0
  7 21  1  0
  7  8  1  0
  7 33  1  6
  8  9  1  0
  9 14  1  0
  9 10  1  0
  9 15  1  0
 10 11  1  0
 10 34  1  0
 10 35  1  0
 11 12  1  0
 11 36  1  0
 11 37  1  0
 12 13  1  0
 12 38  1  0
 12 39  1  0
 13 14  1  0
 13 40  1  0
 13 41  1  0
 14 42  1  0
 14 43  1  0
 15 16  1  0
 16 23  1  0
 16 17  1  6
 16 18  1  0
 17 44  1  0
 17 45  1  0
 17 46  1  0
 18 19  1  0
 18 47  1  0
 18 48  1  0
 19 20  1  0
 19 49  1  0
 19 50  1  0
 20 21  1  0
 20 51  1  6
 21 22  1  1
 22 23  1  0
M  END
>  <i_m_ct_stereo_status>  (175) 
1

>  <s_m_source_file>  (175) 
/var/tmp/pbs.5076255.sched01/tmpqm933_o1/456x1pmp19.sdf

>  <i_m_source_file_index>  (175) 
27

>  <i_lp_mmshare_version>  (175) 
48012

>  <i_f3d_flags>  (175) 
0

>  <s_epik_input>  (175) 
TzFPW0NAQF0oTzIpKFtDSDNdKVtDSDJdW0NIMl1bQ0BIXTNbQ0BIXShbQ0gzXSlbQ0gyXVtDSDJdW0NAQEhdKE80KVtDQEBdMTNbQ0BASF00T0MyNVtDSDJdW0NIMl1bQ0gyXVtDSDJdW0NIMl01

>  <s_epik_cmdline>  (175) 
J2VwaWtfcHl0aG9uJywgJy1waHQnLCAnMi4wJywgJy1waCcsICc3LjAnLCAnLXRuJywgJzgnLCAnLW1hJywgJzIwMCcsICctaW1hZScsICc8aW5maWxlLm1hZT4nLCAnLW9tYWUnLCAnPG91dGZpbGUubWFlPic=

>  <r_lp_tautomer_probability>  (175) 
1

>  <r_epik_Ionization_Penalty>  (175) 
1.42083e-14

>  <r_epik_Ionization_Penalty_Charging>  (175) 
0

>  <r_epik_Ionization_Penalty_Neutral>  (175) 
1.42083e-14

>  <r_epik_State_Penalty>  (175) 
-0

>  <r_epik_Charging_Adjusted_Penalty>  (175) 
0

>  <i_epik_Tot_Q>  (175) 
0

>  <i_epik_Tot_abs_Q>  (175) 
0

>  <s_epik_Chemistry_Notes>  (175) 
This compound contains an acetal/aminal-like group ( X-CH(R)-Y where X, Y are N, S, or O) that may be acid/base labile, releasing an aldehyde.

>  <s_lp_Force_Field>  (175) 
OPLS3e

>  <r_lp_Energy>  (175) 
52.0163

>  <b_lp_Chiralities_Consistent>  (175) 
1

>  <s_lp_Variant>  (175) 
41:0-1

>  <s_i_glide_gridfile>  (175) 
pfpi4k_grid

>  <i_i_glide_lignum>  (175) 
27

>  <i_i_glide_rotatable_bonds>  (175) 
0

>  <r_i_docking_score>  (175) 
-3.24717

>  <r_i_glide_ligand_efficiency>  (175) 
-0.141181

>  <r_i_glide_ligand_efficiency_sa>  (175) 
-0.4015

>  <r_i_glide_ligand_efficiency_ln>  (175) 
-0.785194

>  <r_i_glide_gscore>  (175) 
-3.24717

>  <r_i_glide_lipo>  (175) 
-0.583479

>  <r_i_glide_hbond>  (175) 
-0.00415274

>  <r_i_glide_metal>  (175) 
-0

>  <r_i_glide_rewards>  (175) 
-1.29014

>  <r_i_glide_evdw>  (175) 
-24.5771

>  <r_i_glide_ecoul>  (175) 
-0.651954

>  <r_i_glide_erotb>  (175) 
0

>  <r_i_glide_esite>  (175) 
-0.0427426

>  <r_i_glide_emodel>  (175) 
-29.4191

>  <r_i_glide_energy>  (175) 
-25.2291

>  <r_i_glide_einternal>  (175) 
0

>  <r_i_glide_intrahb_reward>  (175) 
-0

>  <i_i_glide_confnum>  (175) 
4

>  <i_i_glide_posenum>  (175) 
10

>  <r_i_glide_eff_state_penalty>  (175) 
0

>  <ligand_id>  (175) 
41

>  <original_smiles>  (175) 
CC1CCC2OC3OC4(CCCCC4)OC4(C)CCC1C23OO4

>  <smiles>  (175) 
[H]C([H])([H])C12OOC34C([H])(OC3([H])C([H])([H])C([H])([H])C([H])(C([H])([H])[H])C4([H])C([H])([H])C1([H])[H])OC1(O2)C([H])([H])C([H])([H])C([H])([H])C([H])([H])C1([H])[H]

$$$$
41:0:1
     RDKit          3D

 51 55  0  0  1  0  0  0  0  0999 V2000
    3.9788   -2.7825   -1.7139 C   0  0  0  0  0  0  0  0  0  0  0  0
    4.9606   -2.8776   -0.5369 C   0  0  2  0  0  0  0  0  0  0  0  0
    6.1854   -1.9180   -0.7998 C   0  0  0  0  0  0  0  0  0  0  0  0
    7.4310   -2.0966    0.1051 C   0  0  0  0  0  0  0  0  0  0  0  0
    7.6361   -3.5737    0.2205 C   0  0  1  0  0  0  0  0  0  0  0  0
    8.5589   -4.2170    1.1158 O   0  0  0  0  0  0  0  0  0  0  0  0
    7.5918   -5.2974    1.2031 C   0  0  1  0  0  0  0  0  0  0  0  0
    7.5321   -5.8602    2.5016 O   0  0  0  0  0  0  0  0  0  0  0  0
    6.6668   -6.9285    2.7362 C   0  0  0  0  0  0  0  0  0  0  0  0
    6.7568   -7.1887    4.2612 C   0  0  0  0  0  0  0  0  0  0  0  0
    6.0095   -8.4790    4.6467 C   0  0  0  0  0  0  0  0  0  0  0  0
    6.5602   -9.6876    3.8780 C   0  0  0  0  0  0  0  0  0  0  0  0
    6.4508   -9.4373    2.3725 C   0  0  0  0  0  0  0  0  0  0  0  0
    7.1980   -8.1603    1.9634 C   0  0  0  0  0  0  0  0  0  0  0  0
    5.3378   -6.7000    2.3207 O   0  0  0  0  0  0  0  0  0  0  0  0
    4.6368   -5.5196    2.7371 C   0  0  2  0  0  0  0  0  0  0  0  0
    3.7618   -5.8329    3.9700 C   0  0  0  0  0  0  0  0  0  0  0  0
    3.6599   -5.1529    1.5887 C   0  0  0  0  0  0  0  0  0  0  0  0
    4.2217   -5.3019    0.1645 C   0  0  0  0  0  0  0  0  0  0  0  0
    5.3687   -4.3620   -0.2184 C   0  0  2  0  0  0  0  0  0  0  0  0
    6.4657   -4.3061    0.8279 C   0  0  2  0  0  0  0  0  0  0  0  0
    5.8726   -3.5764    1.9127 O   0  0  0  0  0  0  0  0  0  0  0  0
    5.5199   -4.4534    3.0945 O   0  0  0  0  0  0  0  0  0  0  0  0
    4.3838   -3.2717   -2.5993 H   0  0  0  0  0  0  0  0  0  0  0  0
    3.7728   -1.7431   -1.9635 H   0  0  0  0  0  0  0  0  0  0  0  0
    3.0196   -3.2454   -1.4806 H   0  0  0  0  0  0  0  0  0  0  0  0
    4.4413   -2.4719    0.3330 H   0  0  0  0  0  0  0  0  0  0  0  0
    6.4913   -2.0659   -1.8420 H   0  0  0  0  0  0  0  0  0  0  0  0
    5.8448   -0.8920   -0.7252 H   0  0  0  0  0  0  0  0  0  0  0  0
    8.3232   -1.6281   -0.3145 H   0  0  0  0  0  0  0  0  0  0  0  0
    7.2726   -1.6405    1.0877 H   0  0  0  0  0  0  0  0  0  0  0  0
    7.8263   -3.9535   -0.7786 H   0  0  0  0  0  0  0  0  0  0  0  0
    7.7844   -6.0421    0.4274 H   0  0  0  0  0  0  0  0  0  0  0  0
    7.8094   -7.2883    4.5220 H   0  0  0  0  0  0  0  0  0  0  0  0
    6.4136   -6.3187    4.8201 H   0  0  0  0  0  0  0  0  0  0  0  0
    6.1222   -8.6549    5.7158 H   0  0  0  0  0  0  0  0  0  0  0  0
    4.9435   -8.3819    4.4585 H   0  0  0  0  0  0  0  0  0  0  0  0
    7.5992   -9.8695    4.1497 H   0  0  0  0  0  0  0  0  0  0  0  0
    6.0047  -10.5872    4.1451 H   0  0  0  0  0  0  0  0  0  0  0  0
    6.8683  -10.2843    1.8339 H   0  0  0  0  0  0  0  0  0  0  0  0
    5.4048   -9.3760    2.0714 H   0  0  0  0  0  0  0  0  0  0  0  0
    7.0615   -8.0263    0.8856 H   0  0  0  0  0  0  0  0  0  0  0  0
    8.2680   -8.2507    2.1527 H   0  0  0  0  0  0  0  0  0  0  0  0
    4.3248   -5.9783    4.8890 H   0  0  0  0  0  0  0  0  0  0  0  0
    3.1608   -6.7290    3.8107 H   0  0  0  0  0  0  0  0  0  0  0  0
    3.0650   -5.0154    4.1658 H   0  0  0  0  0  0  0  0  0  0  0  0
    2.8319   -5.8533    1.6344 H   0  0  0  0  0  0  0  0  0  0  0  0
    3.2127   -4.1711    1.7463 H   0  0  0  0  0  0  0  0  0  0  0  0
    4.5500   -6.3336    0.0241 H   0  0  0  0  0  0  0  0  0  0  0  0
    3.4062   -5.1788   -0.5342 H   0  0  0  0  0  0  0  0  0  0  0  0
    5.7733   -4.7749   -1.1437 H   0  0  0  0  0  0  0  0  0  0  0  0
  1  2  1  0
  1 24  1  0
  1 25  1  0
  1 26  1  0
  2 20  1  0
  2  3  1  0
  2 27  1  1
  3  4  1  0
  3 28  1  0
  3 29  1  0
  4  5  1  0
  4 30  1  0
  4 31  1  0
  5 21  1  0
  5  6  1  0
  5 32  1  6
  6  7  1  0
  7 21  1  0
  7  8  1  0
  7 33  1  6
  8  9  1  0
  9 14  1  0
  9 10  1  0
  9 15  1  0
 10 11  1  0
 10 34  1  0
 10 35  1  0
 11 12  1  0
 11 36  1  0
 11 37  1  0
 12 13  1  0
 12 38  1  0
 12 39  1  0
 13 14  1  0
 13 40  1  0
 13 41  1  0
 14 42  1  0
 14 43  1  0
 15 16  1  0
 16 23  1  0
 16 17  1  1
 16 18  1  0
 17 44  1  0
 17 45  1  0
 17 46  1  0
 18 19  1  0
 18 47  1  0
 18 48  1  0
 19 20  1  0
 19 49  1  0
 19 50  1  0
 20 21  1  0
 20 51  1  6
 21 22  1  1
 22 23  1  0
M  END
>  <i_m_ct_stereo_status>  (176) 
1

>  <s_m_source_file>  (176) 
/var/tmp/pbs.5076255.sched01/tmpqm933_o1/456x1pmp19.sdf

>  <i_m_source_file_index>  (176) 
27

>  <i_lp_mmshare_version>  (176) 
48012

>  <i_f3d_flags>  (176) 
0

>  <s_epik_input>  (176) 
TzFPW0NAQF0oTzIpKFtDSDNdKVtDSDJdW0NIMl1bQ0BIXTNbQ0BIXShbQ0gzXSlbQ0gyXVtDSDJdW0NAQEhdKE80KVtDQEBdMTNbQ0BASF00T0MyNVtDSDJdW0NIMl1bQ0gyXVtDSDJdW0NIMl01

>  <s_epik_cmdline>  (176) 
J2VwaWtfcHl0aG9uJywgJy1waHQnLCAnMi4wJywgJy1waCcsICc3LjAnLCAnLXRuJywgJzgnLCAnLW1hJywgJzIwMCcsICctaW1hZScsICc8aW5maWxlLm1hZT4nLCAnLW9tYWUnLCAnPG91dGZpbGUubWFlPic=

>  <r_lp_tautomer_probability>  (176) 
1

>  <r_epik_Ionization_Penalty>  (176) 
1.42083e-14

>  <r_epik_Ionization_Penalty_Charging>  (176) 
0

>  <r_epik_Ionization_Penalty_Neutral>  (176) 
1.42083e-14

>  <r_epik_State_Penalty>  (176) 
-0

>  <r_epik_Charging_Adjusted_Penalty>  (176) 
0

>  <i_epik_Tot_Q>  (176) 
0

>  <i_epik_Tot_abs_Q>  (176) 
0

>  <s_epik_Chemistry_Notes>  (176) 
This compound contains an acetal/aminal-like group ( X-CH(R)-Y where X, Y are N, S, or O) that may be acid/base labile, releasing an aldehyde.

>  <s_lp_Force_Field>  (176) 
OPLS3e

>  <r_lp_Energy>  (176) 
52.0163

>  <b_lp_Chiralities_Consistent>  (176) 
1

>  <s_lp_Variant>  (176) 
41:0-1

>  <s_i_glide_gridfile>  (176) 
pfpi4k_grid

>  <i_i_glide_lignum>  (176) 
27

>  <i_i_glide_rotatable_bonds>  (176) 
0

>  <r_i_docking_score>  (176) 
-2.97966

>  <r_i_glide_ligand_efficiency>  (176) 
-0.129551

>  <r_i_glide_ligand_efficiency_sa>  (176) 
-0.368425

>  <r_i_glide_ligand_efficiency_ln>  (176) 
-0.720509

>  <r_i_glide_gscore>  (176) 
-2.97966

>  <r_i_glide_lipo>  (176) 
-0.475657

>  <r_i_glide_hbond>  (176) 
0

>  <r_i_glide_metal>  (176) 
-0

>  <r_i_glide_rewards>  (176) 
-1.37093

>  <r_i_glide_evdw>  (176) 
-22.4396

>  <r_i_glide_ecoul>  (176) 
-0.0739741

>  <r_i_glide_erotb>  (176) 
0

>  <r_i_glide_esite>  (176) 
0

>  <r_i_glide_emodel>  (176) 
-26.4404

>  <r_i_glide_energy>  (176) 
-22.5136

>  <r_i_glide_einternal>  (176) 
0

>  <r_i_glide_intrahb_reward>  (176) 
-0

>  <i_i_glide_confnum>  (176) 
1

>  <i_i_glide_posenum>  (176) 
1

>  <r_i_glide_eff_state_penalty>  (176) 
0

>  <ligand_id>  (176) 
41

>  <original_smiles>  (176) 
CC1CCC2OC3OC4(CCCCC4)OC4(C)CCC1C23OO4

>  <smiles>  (176) 
[H]C([H])([H])C12OOC34C([H])(OC3([H])C([H])([H])C([H])([H])C([H])(C([H])([H])[H])C4([H])C([H])([H])C1([H])[H])OC1(O2)C([H])([H])C([H])([H])C([H])([H])C([H])([H])C1([H])[H]

$$$$
41:0:2
     RDKit          3D

 51 55  0  0  1  0  0  0  0  0999 V2000
    4.5729   -2.2612   -2.8957 C   0  0  0  0  0  0  0  0  0  0  0  0
    5.3967   -2.3142   -1.5983 C   0  0  2  0  0  0  0  0  0  0  0  0
    6.7949   -2.9763   -1.8803 C   0  0  0  0  0  0  0  0  0  0  0  0
    7.6377   -3.4241   -0.6532 C   0  0  0  0  0  0  0  0  0  0  0  0
    6.6647   -4.0677    0.2934 C   0  0  1  0  0  0  0  0  0  0  0  0
    6.9470   -4.4413    1.6463 O   0  0  0  0  0  0  0  0  0  0  0  0
    5.5516   -4.1122    1.9432 C   0  0  1  0  0  0  0  0  0  0  0  0
    5.4098   -3.5352    3.2280 O   0  0  0  0  0  0  0  0  0  0  0  0
    4.1384   -3.1692    3.6721 C   0  0  0  0  0  0  0  0  0  0  0  0
    4.3831   -2.4449    5.0198 C   0  0  0  0  0  0  0  0  0  0  0  0
    3.0554   -2.1688    5.7428 C   0  0  0  0  0  0  0  0  0  0  0  0
    2.2728   -3.4671    5.9750 C   0  0  0  0  0  0  0  0  0  0  0  0
    2.0174   -4.1730    4.6395 C   0  0  0  0  0  0  0  0  0  0  0  0
    3.3266   -4.4694    3.9046 C   0  0  0  0  0  0  0  0  0  0  0  0
    3.4192   -2.3559    2.7691 O   0  0  0  0  0  0  0  0  0  0  0  0
    4.0137   -1.1725    2.2219 C   0  0  2  0  0  0  0  0  0  0  0  0
    3.5542    0.0579    3.0373 C   0  0  0  0  0  0  0  0  0  0  0  0
    3.4284   -0.9993    0.8000 C   0  0  0  0  0  0  0  0  0  0  0  0
    3.2971   -2.2941   -0.0261 C   0  0  0  0  0  0  0  0  0  0  0  0
    4.5976   -2.9913   -0.4228 C   0  0  2  0  0  0  0  0  0  0  0  0
    5.5527   -3.1397    0.7459 C   0  0  2  0  0  0  0  0  0  0  0  0
    6.0430   -1.8189    1.0076 O   0  0  0  0  0  0  0  0  0  0  0  0
    5.4414   -1.1988    2.2490 O   0  0  0  0  0  0  0  0  0  0  0  0
    4.2286   -3.2557   -3.1814 H   0  0  0  0  0  0  0  0  0  0  0  0
    5.1614   -1.8669   -3.7185 H   0  0  0  0  0  0  0  0  0  0  0  0
    3.7034   -1.6102   -2.7999 H   0  0  0  0  0  0  0  0  0  0  0  0
    5.5987   -1.2833   -1.3130 H   0  0  0  0  0  0  0  0  0  0  0  0
    6.6131   -3.8497   -2.5122 H   0  0  0  0  0  0  0  0  0  0  0  0
    7.4098   -2.3089   -2.4773 H   0  0  0  0  0  0  0  0  0  0  0  0
    8.4179   -4.1255   -0.9473 H   0  0  0  0  0  0  0  0  0  0  0  0
    8.1349   -2.5788   -0.1845 H   0  0  0  0  0  0  0  0  0  0  0  0
    6.2290   -4.9402   -0.2112 H   0  0  0  0  0  0  0  0  0  0  0  0
    4.9170   -4.9870    1.7925 H   0  0  0  0  0  0  0  0  0  0  0  0
    5.0098   -3.0879    5.6377 H   0  0  0  0  0  0  0  0  0  0  0  0
    4.9755   -1.5430    4.8664 H   0  0  0  0  0  0  0  0  0  0  0  0
    3.2592   -1.6948    6.7013 H   0  0  0  0  0  0  0  0  0  0  0  0
    2.4462   -1.4701    5.1722 H   0  0  0  0  0  0  0  0  0  0  0  0
    2.8261   -4.1276    6.6431 H   0  0  0  0  0  0  0  0  0  0  0  0
    1.3232   -3.2519    6.4652 H   0  0  0  0  0  0  0  0  0  0  0  0
    1.4947   -5.1102    4.8167 H   0  0  0  0  0  0  0  0  0  0  0  0
    1.3663   -3.5698    4.0073 H   0  0  0  0  0  0  0  0  0  0  0  0
    3.0935   -4.9406    2.9516 H   0  0  0  0  0  0  0  0  0  0  0  0
    3.9431   -5.1630    4.4787 H   0  0  0  0  0  0  0  0  0  0  0  0
    4.0090    0.1329    4.0234 H   0  0  0  0  0  0  0  0  0  0  0  0
    2.4703    0.0591    3.1768 H   0  0  0  0  0  0  0  0  0  0  0  0
    3.8028    0.9825    2.5140 H   0  0  0  0  0  0  0  0  0  0  0  0
    2.4041   -0.6379    0.9054 H   0  0  0  0  0  0  0  0  0  0  0  0
    3.9455   -0.2166    0.2412 H   0  0  0  0  0  0  0  0  0  0  0  0
    2.6729   -2.9977    0.5307 H   0  0  0  0  0  0  0  0  0  0  0  0
    2.7127   -2.0835   -0.9193 H   0  0  0  0  0  0  0  0  0  0  0  0
    4.2914   -3.9797   -0.7697 H   0  0  0  0  0  0  0  0  0  0  0  0
  1  2  1  0
  1 24  1  0
  1 25  1  0
  1 26  1  0
  2 20  1  0
  2  3  1  0
  2 27  1  1
  3  4  1  0
  3 28  1  0
  3 29  1  0
  4  5  1  0
  4 30  1  0
  4 31  1  0
  5 21  1  0
  5  6  1  0
  5 32  1  6
  6  7  1  0
  7 21  1  0
  7  8  1  0
  7 33  1  6
  8  9  1  0
  9 14  1  0
  9 10  1  0
  9 15  1  0
 10 11  1  0
 10 34  1  0
 10 35  1  0
 11 12  1  0
 11 36  1  0
 11 37  1  0
 12 13  1  0
 12 38  1  0
 12 39  1  0
 13 14  1  0
 13 40  1  0
 13 41  1  0
 14 42  1  0
 14 43  1  0
 15 16  1  0
 16 23  1  0
 16 17  1  1
 16 18  1  0
 17 44  1  0
 17 45  1  0
 17 46  1  0
 18 19  1  0
 18 47  1  0
 18 48  1  0
 19 20  1  0
 19 49  1  0
 19 50  1  0
 20 21  1  0
 20 51  1  6
 21 22  1  1
 22 23  1  0
M  END
>  <i_m_ct_stereo_status>  (177) 
1

>  <s_m_source_file>  (177) 
/var/tmp/pbs.5076255.sched01/tmpqm933_o1/456x1pmp19.sdf

>  <i_m_source_file_index>  (177) 
27

>  <i_lp_mmshare_version>  (177) 
48012

>  <i_f3d_flags>  (177) 
0

>  <s_epik_input>  (177) 
TzFPW0NAQF0oTzIpKFtDSDNdKVtDSDJdW0NIMl1bQ0BIXTNbQ0BIXShbQ0gzXSlbQ0gyXVtDSDJdW0NAQEhdKE80KVtDQEBdMTNbQ0BASF00T0MyNVtDSDJdW0NIMl1bQ0gyXVtDSDJdW0NIMl01

>  <s_epik_cmdline>  (177) 
J2VwaWtfcHl0aG9uJywgJy1waHQnLCAnMi4wJywgJy1waCcsICc3LjAnLCAnLXRuJywgJzgnLCAnLW1hJywgJzIwMCcsICctaW1hZScsICc8aW5maWxlLm1hZT4nLCAnLW9tYWUnLCAnPG91dGZpbGUubWFlPic=

>  <r_lp_tautomer_probability>  (177) 
1

>  <r_epik_Ionization_Penalty>  (177) 
1.42083e-14

>  <r_epik_Ionization_Penalty_Charging>  (177) 
0

>  <r_epik_Ionization_Penalty_Neutral>  (177) 
1.42083e-14

>  <r_epik_State_Penalty>  (177) 
-0

>  <r_epik_Charging_Adjusted_Penalty>  (177) 
0

>  <i_epik_Tot_Q>  (177) 
0

>  <i_epik_Tot_abs_Q>  (177) 
0

>  <s_epik_Chemistry_Notes>  (177) 
This compound contains an acetal/aminal-like group ( X-CH(R)-Y where X, Y are N, S, or O) that may be acid/base labile, releasing an aldehyde.

>  <s_lp_Force_Field>  (177) 
OPLS3e

>  <r_lp_Energy>  (177) 
52.0163

>  <b_lp_Chiralities_Consistent>  (177) 
1

>  <s_lp_Variant>  (177) 
41:0-1

>  <s_i_glide_gridfile>  (177) 
pfpi4k_grid

>  <i_i_glide_lignum>  (177) 
27

>  <i_i_glide_rotatable_bonds>  (177) 
0

>  <r_i_docking_score>  (177) 
-2.93398

>  <r_i_glide_ligand_efficiency>  (177) 
-0.127564

>  <r_i_glide_ligand_efficiency_sa>  (177) 
-0.362776

>  <r_i_glide_ligand_efficiency_ln>  (177) 
-0.709463

>  <r_i_glide_gscore>  (177) 
-2.93398

>  <r_i_glide_lipo>  (177) 
-0.485265

>  <r_i_glide_hbond>  (177) 
0

>  <r_i_glide_metal>  (177) 
-0

>  <r_i_glide_rewards>  (177) 
-1.26093

>  <r_i_glide_evdw>  (177) 
-21.3823

>  <r_i_glide_ecoul>  (177) 
-0.791171

>  <r_i_glide_erotb>  (177) 
0

>  <r_i_glide_esite>  (177) 
0

>  <r_i_glide_emodel>  (177) 
-26.0663

>  <r_i_glide_energy>  (177) 
-22.1734

>  <r_i_glide_einternal>  (177) 
0

>  <r_i_glide_intrahb_reward>  (177) 
-0

>  <i_i_glide_confnum>  (177) 
1

>  <i_i_glide_posenum>  (177) 
2

>  <r_i_glide_eff_state_penalty>  (177) 
0

>  <ligand_id>  (177) 
41

>  <original_smiles>  (177) 
CC1CCC2OC3OC4(CCCCC4)OC4(C)CCC1C23OO4

>  <smiles>  (177) 
[H]C([H])([H])C12OOC34C([H])(OC3([H])C([H])([H])C([H])([H])C([H])(C([H])([H])[H])C4([H])C([H])([H])C1([H])[H])OC1(O2)C([H])([H])C([H])([H])C([H])([H])C([H])([H])C1([H])[H]

$$$$
42:0:0
     RDKit          3D

 47 50  0  0  1  0  0  0  0  0999 V2000
    5.7193   -4.3360    0.8088 F   0  0  0  0  0  0  0  0  0  0  0  0
    5.8176   -5.6393    1.0597 C   0  0  0  0  0  0  0  0  0  0  0  0
    5.4190   -6.3175   -0.0158 F   0  0  0  0  0  0  0  0  0  0  0  0
    7.3064   -5.8936    1.3384 C   0  0  0  0  0  0  0  0  0  0  0  0
    7.5719   -7.3520    1.7266 C   0  0  0  0  0  0  0  0  0  0  0  0
    6.7042   -7.7775    2.9143 C   0  0  0  0  0  0  0  0  0  0  0  0
    5.2136   -7.5447    2.6307 C   0  0  1  0  0  0  0  0  0  0  0  0
    4.3673   -7.9709    3.8394 C   0  0  0  0  0  0  0  0  0  0  0  0
    2.9082   -7.7656    3.6017 N   0  0  2  0  0  0  0  0  0  0  0  0
    2.2634   -8.7685    2.6963 C   0  0  0  0  0  0  0  0  0  0  0  0
    0.7231   -8.5911    2.6263 C   0  0  0  0  0  0  0  0  0  0  0  0
    0.1934   -9.4442    3.7726 C   0  0  0  0  0  0  0  0  0  0  0  0
    1.0566  -10.6935    3.7306 C   0  0  0  0  0  0  0  0  0  0  0  0
    2.4270  -10.2312    3.2174 C   0  0  0  0  0  0  0  0  0  0  0  0
    2.6367   -6.3306    3.2865 C   0  0  0  0  0  0  0  0  0  0  0  0
    3.4435   -5.8228    2.0709 C   0  0  1  0  0  0  0  0  0  0  0  0
    3.1446   -4.3819    1.8179 C   0  0  0  0  0  0  0  0  0  0  0  0
    3.3986   -3.4174    2.7586 N   0  0  0  0  0  0  0  0  0  0  0  0
    3.0484   -2.3389    2.0768 C   0  0  0  0  0  0  0  0  0  0  0  0
    2.5884   -2.6132    0.8533 N   0  0  0  0  0  0  0  0  0  0  0  0
    2.6243   -3.9527    0.6615 N   0  0  0  0  0  0  0  0  0  0  0  0
    4.9546   -6.0643    2.2716 C   0  0  2  0  0  0  0  0  0  0  0  0
    2.1866   -1.9651    0.1821 H   0  0  0  0  0  0  0  0  0  0  0  0
    7.8927   -5.6185    0.4636 H   0  0  0  0  0  0  0  0  0  0  0  0
    7.6237   -5.2374    2.1495 H   0  0  0  0  0  0  0  0  0  0  0  0
    7.3647   -8.0025    0.8809 H   0  0  0  0  0  0  0  0  0  0  0  0
    8.6228   -7.4796    1.9754 H   0  0  0  0  0  0  0  0  0  0  0  0
    6.8845   -8.8337    3.1300 H   0  0  0  0  0  0  0  0  0  0  0  0
    7.0001   -7.2269    3.8091 H   0  0  0  0  0  0  0  0  0  0  0  0
    4.9453   -8.1747    1.7781 H   0  0  0  0  0  0  0  0  0  0  0  0
    4.6291   -9.0021    4.0734 H   0  0  0  0  0  0  0  0  0  0  0  0
    4.6511   -7.3918    4.7244 H   0  0  0  0  0  0  0  0  0  0  0  0
    2.6850   -8.6790    1.6971 H   0  0  0  0  0  0  0  0  0  0  0  0
    0.3138   -7.5832    2.6750 H   0  0  0  0  0  0  0  0  0  0  0  0
    0.3665   -9.0206    1.6943 H   0  0  0  0  0  0  0  0  0  0  0  0
    0.3345   -8.9102    4.7152 H   0  0  0  0  0  0  0  0  0  0  0  0
   -0.8668   -9.6610    3.6637 H   0  0  0  0  0  0  0  0  0  0  0  0
    1.1400  -11.1518    4.7154 H   0  0  0  0  0  0  0  0  0  0  0  0
    0.6319  -11.4302    3.0482 H   0  0  0  0  0  0  0  0  0  0  0  0
    2.7770  -10.8901    2.4150 H   0  0  0  0  0  0  0  0  0  0  0  0
    3.1228  -10.3600    4.0461 H   0  0  0  0  0  0  0  0  0  0  0  0
    1.5868   -6.0947    3.1245 H   0  0  0  0  0  0  0  0  0  0  0  0
    2.9252   -5.7499    4.1688 H   0  0  0  0  0  0  0  0  0  0  0  0
    3.1222   -6.3883    1.1928 H   0  0  0  0  0  0  0  0  0  0  0  0
    3.1101   -1.3392    2.4845 H   0  0  0  0  0  0  0  0  0  0  0  0
    5.2598   -5.4678    3.1288 H   0  0  0  0  0  0  0  0  0  0  0  0
    2.4661   -7.9371    4.4911 H   0  0  0  0  0  0  0  0  0  0  0  0
  1  2  1  0
  2 22  1  0
  2  3  1  0
  2  4  1  0
  4  5  1  0
  4 24  1  0
  4 25  1  0
  5  6  1  0
  5 26  1  0
  5 27  1  0
  6  7  1  0
  6 28  1  0
  6 29  1  0
  7 22  1  0
  7  8  1  0
  7 30  1  6
  8  9  1  0
  8 31  1  0
  8 32  1  0
  9 10  1  0
  9 15  1  0
  9 47  1  1
 10 14  1  0
 10 11  1  0
 10 33  1  0
 11 12  1  0
 11 34  1  0
 11 35  1  0
 12 13  1  0
 12 36  1  0
 12 37  1  0
 13 14  1  0
 13 38  1  0
 13 39  1  0
 14 40  1  0
 14 41  1  0
 15 16  1  0
 15 42  1  0
 15 43  1  0
 16 17  1  0
 16 22  1  0
 16 44  1  6
 17 21  2  0
 17 18  1  0
 18 19  2  0
 19 20  1  0
 19 45  1  0
 20 23  1  0
 20 21  1  0
 22 46  1  1
M  CHG  1   9   1
M  END
>  <i_m_ct_stereo_status>  (178) 
1

>  <s_m_source_file>  (178) 
/var/tmp/pbs.5076255.sched01/tmpqm933_o1/456x1pmp19.sdf

>  <i_m_source_file_index>  (178) 
28

>  <i_lp_mmshare_version>  (178) 
48012

>  <i_f3d_flags>  (178) 
0

>  <s_epik_input>  (178) 
W0NIMl0xW0NIMl1bQ0gyXUMoRikoRilbQ0BIXShbQ0BASF0xMilbQ0BIXShjM25bY0hdW25IXW4zKVtDSDJdTihbQ0gyXTIpW0NIXTRbQ0gyXVtDSDJdW0NIMl1bQ0gyXTQ=

>  <s_epik_cmdline>  (178) 
J2VwaWtfcHl0aG9uJywgJy1waHQnLCAnMi4wJywgJy1waCcsICc3LjAnLCAnLXRuJywgJzgnLCAnLW1hJywgJzIwMCcsICctaW1hZScsICc8aW5maWxlLm1hZT4nLCAnLW9tYWUnLCAnPG91dGZpbGUubWFlPic=

>  <r_lp_tautomer_probability>  (178) 
0.948284

>  <r_epik_Ionization_Penalty>  (178) 
0.0118489

>  <r_epik_Ionization_Penalty_Charging>  (178) 
0.00578787

>  <r_epik_Ionization_Penalty_Neutral>  (178) 
0.00606099

>  <r_epik_State_Penalty>  (178) 
0.062272

>  <r_epik_Charging_Adjusted_Penalty>  (178) 
0.0680598

>  <i_epik_Tot_Q>  (178) 
1

>  <i_epik_Tot_abs_Q>  (178) 
1

>  <s_lp_Force_Field>  (178) 
OPLS3e

>  <r_lp_Energy>  (178) 
37.8049

>  <b_lp_Chiralities_Consistent>  (178) 
1

>  <s_lp_Variant>  (178) 
42:0-1

>  <s_i_glide_gridfile>  (178) 
pfpi4k_grid

>  <i_i_glide_lignum>  (178) 
28

>  <i_i_glide_rotatable_bonds>  (178) 
2

>  <r_i_docking_score>  (178) 
-3.20159

>  <r_i_glide_ligand_efficiency>  (178) 
-0.145527

>  <r_i_glide_ligand_efficiency_sa>  (178) 
-0.407772

>  <r_i_glide_ligand_efficiency_ln>  (178) 
-0.782586

>  <r_i_glide_gscore>  (178) 
-3.20159

>  <r_i_glide_lipo>  (178) 
-0.306912

>  <r_i_glide_hbond>  (178) 
-0.16

>  <r_i_glide_metal>  (178) 
-0

>  <r_i_glide_rewards>  (178) 
-1.47909

>  <r_i_glide_evdw>  (178) 
-19.3951

>  <r_i_glide_ecoul>  (178) 
-4.07323

>  <r_i_glide_erotb>  (178) 
0.382498

>  <r_i_glide_esite>  (178) 
-0.0573525

>  <r_i_glide_emodel>  (178) 
-30.0162

>  <r_i_glide_energy>  (178) 
-23.4683

>  <r_i_glide_einternal>  (178) 
0.000621089

>  <r_i_glide_intrahb_reward>  (178) 
-0

>  <i_i_glide_confnum>  (178) 
5

>  <i_i_glide_posenum>  (178) 
3

>  <r_i_glide_eff_state_penalty>  (178) 
0

>  <ligand_id>  (178) 
42

>  <original_smiles>  (178) 
FC1(F)CCCC2CN(C3CCCC3)CC(c3nc[nH]n3)C21

>  <smiles>  (178) 
[H]c1nc(C2([H])C3([H])C(F)(F)C([H])([H])C([H])([H])C([H])([H])C3([H])C([H])([H])[N+]([H])(C3([H])C([H])([H])C([H])([H])C([H])([H])C3([H])[H])C2([H])[H])nn1[H]

$$$$
42:0:1
     RDKit          3D

 47 50  0  0  1  0  0  0  0  0999 V2000
    7.4195   -9.8019    2.5833 F   0  0  0  0  0  0  0  0  0  0  0  0
    6.3761  -10.6134    2.5554 C   0  0  0  0  0  0  0  0  0  0  0  0
    6.0092  -10.7817    1.2853 F   0  0  0  0  0  0  0  0  0  0  0  0
    6.8490  -11.9448    3.1531 C   0  0  0  0  0  0  0  0  0  0  0  0
    5.6951  -12.9445    3.2865 C   0  0  0  0  0  0  0  0  0  0  0  0
    4.5375  -12.3466    4.0974 C   0  0  0  0  0  0  0  0  0  0  0  0
    4.0483  -11.0231    3.4921 C   0  0  1  0  0  0  0  0  0  0  0  0
    2.8937  -10.4434    4.3232 C   0  0  0  0  0  0  0  0  0  0  0  0
    2.3992   -9.1508    3.7642 N   0  0  2  0  0  0  0  0  0  0  0  0
    1.5506   -9.2761    2.5405 C   0  0  0  0  0  0  0  0  0  0  0  0
    0.9502   -7.9171    2.0867 C   0  0  0  0  0  0  0  0  0  0  0  0
   -0.3670   -7.8189    2.8529 C   0  0  0  0  0  0  0  0  0  0  0  0
   -0.9274   -9.2339    2.8055 C   0  0  0  0  0  0  0  0  0  0  0  0
    0.2935  -10.1631    2.7943 C   0  0  0  0  0  0  0  0  0  0  0  0
    3.5058   -8.1553    3.6894 C   0  0  0  0  0  0  0  0  0  0  0  0
    4.7029   -8.6580    2.8566 C   0  0  1  0  0  0  0  0  0  0  0  0
    5.7757   -7.6182    2.8216 C   0  0  0  0  0  0  0  0  0  0  0  0
    6.2315   -7.0366    1.6637 N   0  0  0  0  0  0  0  0  0  0  0  0
    7.1863   -6.2651    2.1620 C   0  0  0  0  0  0  0  0  0  0  0  0
    7.2868   -6.3381    3.4856 N   0  0  0  0  0  0  0  0  0  0  0  0
    6.3634   -7.2026    3.9503 N   0  0  0  0  0  0  0  0  0  0  0  0
    5.2165  -10.0177    3.3861 C   0  0  2  0  0  0  0  0  0  0  0  0
    7.9304   -5.8493    4.0934 H   0  0  0  0  0  0  0  0  0  0  0  0
    7.6443  -12.3614    2.5366 H   0  0  0  0  0  0  0  0  0  0  0  0
    7.2786  -11.7524    4.1381 H   0  0  0  0  0  0  0  0  0  0  0  0
    5.3340  -13.2186    2.2914 H   0  0  0  0  0  0  0  0  0  0  0  0
    6.0475  -13.8586    3.7665 H   0  0  0  0  0  0  0  0  0  0  0  0
    3.7138  -13.0622    4.1328 H   0  0  0  0  0  0  0  0  0  0  0  0
    4.8455  -12.1892    5.1323 H   0  0  0  0  0  0  0  0  0  0  0  0
    3.6837  -11.2445    2.4849 H   0  0  0  0  0  0  0  0  0  0  0  0
    2.1214  -11.2053    4.3941 H   0  0  0  0  0  0  0  0  0  0  0  0
    3.2266  -10.2656    5.3498 H   0  0  0  0  0  0  0  0  0  0  0  0
    2.1460   -9.6945    1.7280 H   0  0  0  0  0  0  0  0  0  0  0  0
    1.5475   -7.0254    2.2313 H   0  0  0  0  0  0  0  0  0  0  0  0
    0.7297   -7.9678    1.0134 H   0  0  0  0  0  0  0  0  0  0  0  0
   -0.1588   -7.5387    3.8850 H   0  0  0  0  0  0  0  0  0  0  0  0
   -1.0483   -7.0831    2.4313 H   0  0  0  0  0  0  0  0  0  0  0  0
   -1.5659   -9.4495    3.6606 H   0  0  0  0  0  0  0  0  0  0  0  0
   -1.5169   -9.3776    1.8979 H   0  0  0  0  0  0  0  0  0  0  0  0
    0.1852  -10.9066    1.9988 H   0  0  0  0  0  0  0  0  0  0  0  0
    0.2919  -10.7162    3.7300 H   0  0  0  0  0  0  0  0  0  0  0  0
    3.2039   -7.1839    3.3166 H   0  0  0  0  0  0  0  0  0  0  0  0
    3.8440   -7.9777    4.7183 H   0  0  0  0  0  0  0  0  0  0  0  0
    4.3600   -8.8120    1.8257 H   0  0  0  0  0  0  0  0  0  0  0  0
    7.8223   -5.6300    1.5538 H   0  0  0  0  0  0  0  0  0  0  0  0
    5.5863   -9.8441    4.3975 H   0  0  0  0  0  0  0  0  0  0  0  0
    1.7609   -8.7984    4.4594 H   0  0  0  0  0  0  0  0  0  0  0  0
  1  2  1  0
  2 22  1  0
  2  3  1  0
  2  4  1  0
  4  5  1  0
  4 24  1  0
  4 25  1  0
  5  6  1  0
  5 26  1  0
  5 27  1  0
  6  7  1  0
  6 28  1  0
  6 29  1  0
  7 22  1  0
  7  8  1  0
  7 30  1  6
  8  9  1  0
  8 31  1  0
  8 32  1  0
  9 10  1  0
  9 15  1  0
  9 47  1  1
 10 14  1  0
 10 11  1  0
 10 33  1  0
 11 12  1  0
 11 34  1  0
 11 35  1  0
 12 13  1  0
 12 36  1  0
 12 37  1  0
 13 14  1  0
 13 38  1  0
 13 39  1  0
 14 40  1  0
 14 41  1  0
 15 16  1  0
 15 42  1  0
 15 43  1  0
 16 17  1  0
 16 22  1  0
 16 44  1  6
 17 21  2  0
 17 18  1  0
 18 19  2  0
 19 20  1  0
 19 45  1  0
 20 23  1  0
 20 21  1  0
 22 46  1  1
M  CHG  1   9   1
M  END
>  <i_m_ct_stereo_status>  (179) 
1

>  <s_m_source_file>  (179) 
/var/tmp/pbs.5076255.sched01/tmpqm933_o1/456x1pmp19.sdf

>  <i_m_source_file_index>  (179) 
28

>  <i_lp_mmshare_version>  (179) 
48012

>  <i_f3d_flags>  (179) 
0

>  <s_epik_input>  (179) 
W0NIMl0xW0NIMl1bQ0gyXUMoRikoRilbQ0BIXShbQ0BASF0xMilbQ0BIXShjM25bY0hdW25IXW4zKVtDSDJdTihbQ0gyXTIpW0NIXTRbQ0gyXVtDSDJdW0NIMl1bQ0gyXTQ=

>  <s_epik_cmdline>  (179) 
J2VwaWtfcHl0aG9uJywgJy1waHQnLCAnMi4wJywgJy1waCcsICc3LjAnLCAnLXRuJywgJzgnLCAnLW1hJywgJzIwMCcsICctaW1hZScsICc8aW5maWxlLm1hZT4nLCAnLW9tYWUnLCAnPG91dGZpbGUubWFlPic=

>  <r_lp_tautomer_probability>  (179) 
0.948284

>  <r_epik_Ionization_Penalty>  (179) 
0.0118489

>  <r_epik_Ionization_Penalty_Charging>  (179) 
0.00578787

>  <r_epik_Ionization_Penalty_Neutral>  (179) 
0.00606099

>  <r_epik_State_Penalty>  (179) 
0.062272

>  <r_epik_Charging_Adjusted_Penalty>  (179) 
0.0680598

>  <i_epik_Tot_Q>  (179) 
1

>  <i_epik_Tot_abs_Q>  (179) 
1

>  <s_lp_Force_Field>  (179) 
OPLS3e

>  <r_lp_Energy>  (179) 
37.8049

>  <b_lp_Chiralities_Consistent>  (179) 
1

>  <s_lp_Variant>  (179) 
42:0-1

>  <s_i_glide_gridfile>  (179) 
pfpi4k_grid

>  <i_i_glide_lignum>  (179) 
28

>  <i_i_glide_rotatable_bonds>  (179) 
2

>  <r_i_docking_score>  (179) 
-2.92874

>  <r_i_glide_ligand_efficiency>  (179) 
-0.133125

>  <r_i_glide_ligand_efficiency_sa>  (179) 
-0.373021

>  <r_i_glide_ligand_efficiency_ln>  (179) 
-0.715892

>  <r_i_glide_gscore>  (179) 
-2.92874

>  <r_i_glide_lipo>  (179) 
-0.142427

>  <r_i_glide_hbond>  (179) 
0

>  <r_i_glide_metal>  (179) 
-0

>  <r_i_glide_rewards>  (179) 
-1.38002

>  <r_i_glide_evdw>  (179) 
-22.9479

>  <r_i_glide_ecoul>  (179) 
-3.55426

>  <r_i_glide_erotb>  (179) 
0.382498

>  <r_i_glide_esite>  (179) 
-0.108256

>  <r_i_glide_emodel>  (179) 
-32.472

>  <r_i_glide_energy>  (179) 
-26.5022

>  <r_i_glide_einternal>  (179) 
0.0610154

>  <r_i_glide_intrahb_reward>  (179) 
-0

>  <i_i_glide_confnum>  (179) 
6

>  <i_i_glide_posenum>  (179) 
6

>  <r_i_glide_eff_state_penalty>  (179) 
0

>  <ligand_id>  (179) 
42

>  <original_smiles>  (179) 
FC1(F)CCCC2CN(C3CCCC3)CC(c3nc[nH]n3)C21

>  <smiles>  (179) 
[H]c1nc(C2([H])C3([H])C(F)(F)C([H])([H])C([H])([H])C([H])([H])C3([H])C([H])([H])[N+]([H])(C3([H])C([H])([H])C([H])([H])C([H])([H])C3([H])[H])C2([H])[H])nn1[H]

$$$$
42:0:2
     RDKit          3D

 47 50  0  0  1  0  0  0  0  0999 V2000
    7.4179   -9.8140    2.5801 F   0  0  0  0  0  0  0  0  0  0  0  0
    6.3750  -10.6247    2.5535 C   0  0  0  0  0  0  0  0  0  0  0  0
    6.0089  -10.7936    1.2827 F   0  0  0  0  0  0  0  0  0  0  0  0
    6.8471  -11.9562    3.1522 C   0  0  0  0  0  0  0  0  0  0  0  0
    5.6924  -12.9550    3.2862 C   0  0  0  0  0  0  0  0  0  0  0  0
    4.5360  -12.3555    4.0973 C   0  0  0  0  0  0  0  0  0  0  0  0
    4.0464  -11.0321    3.4919 C   0  0  1  0  0  0  0  0  0  0  0  0
    2.8927  -10.4512    4.3225 C   0  0  0  0  0  0  0  0  0  0  0  0
    2.3996   -9.1582    3.7633 N   0  0  2  0  0  0  0  0  0  0  0  0
    1.5506   -9.2837    2.5397 C   0  0  0  0  0  0  0  0  0  0  0  0
    0.9528   -7.9239    2.0851 C   0  0  0  0  0  0  0  0  0  0  0  0
   -0.3635   -7.8222    2.8516 C   0  0  0  0  0  0  0  0  0  0  0  0
   -0.9267   -9.2358    2.8057 C   0  0  0  0  0  0  0  0  0  0  0  0
    0.2921  -10.1681    2.7950 C   0  0  0  0  0  0  0  0  0  0  0  0
    3.5079   -8.1639    3.6880 C   0  0  0  0  0  0  0  0  0  0  0  0
    4.7050   -8.6661    2.8540 C   0  0  1  0  0  0  0  0  0  0  0  0
    5.7798   -7.6307    2.8314 C   0  0  0  0  0  0  0  0  0  0  0  0
    6.3946   -7.2093    3.9839 N   0  0  0  0  0  0  0  0  0  0  0  0
    7.2846   -6.3769    3.4727 C   0  0  0  0  0  0  0  0  0  0  0  0
    7.2047   -6.2684    2.1502 N   0  0  0  0  0  0  0  0  0  0  0  0
    6.2105   -7.0640    1.6972 N   0  0  0  0  0  0  0  0  0  0  0  0
    5.2156  -10.0273    3.3837 C   0  0  2  0  0  0  0  0  0  0  0  0
    7.7745   -5.6981    1.5399 H   0  0  0  0  0  0  0  0  0  0  0  0
    7.6417  -12.3737    2.5359 H   0  0  0  0  0  0  0  0  0  0  0  0
    7.2767  -11.7634    4.1370 H   0  0  0  0  0  0  0  0  0  0  0  0
    5.3308  -13.2292    2.2917 H   0  0  0  0  0  0  0  0  0  0  0  0
    6.0438  -13.8685    3.7667 H   0  0  0  0  0  0  0  0  0  0  0  0
    3.7103  -13.0684    4.1334 H   0  0  0  0  0  0  0  0  0  0  0  0
    4.8444  -12.1971    5.1325 H   0  0  0  0  0  0  0  0  0  0  0  0
    3.6808  -11.2548    2.4863 H   0  0  0  0  0  0  0  0  0  0  0  0
    2.1201  -11.2124    4.3937 H   0  0  0  0  0  0  0  0  0  0  0  0
    3.2268  -10.2732    5.3487 H   0  0  0  0  0  0  0  0  0  0  0  0
    2.1453   -9.7037    1.7274 H   0  0  0  0  0  0  0  0  0  0  0  0
    1.5519   -7.0329    2.2285 H   0  0  0  0  0  0  0  0  0  0  0  0
    0.7321   -7.9751    1.0121 H   0  0  0  0  0  0  0  0  0  0  0  0
   -0.1549   -7.5415    3.8835 H   0  0  0  0  0  0  0  0  0  0  0  0
   -1.0439   -7.0860    2.4296 H   0  0  0  0  0  0  0  0  0  0  0  0
   -1.5658   -9.4464    3.6615 H   0  0  0  0  0  0  0  0  0  0  0  0
   -1.5165   -9.3801    1.8983 H   0  0  0  0  0  0  0  0  0  0  0  0
    0.1827  -10.9123    2.0005 H   0  0  0  0  0  0  0  0  0  0  0  0
    0.2907  -10.7200    3.7317 H   0  0  0  0  0  0  0  0  0  0  0  0
    3.2059   -7.1923    3.3157 H   0  0  0  0  0  0  0  0  0  0  0  0
    3.8481   -7.9887    4.7158 H   0  0  0  0  0  0  0  0  0  0  0  0
    4.3658   -8.8151    1.8252 H   0  0  0  0  0  0  0  0  0  0  0  0
    8.0043   -5.8390    4.0807 H   0  0  0  0  0  0  0  0  0  0  0  0
    5.5846   -9.8528    4.3946 H   0  0  0  0  0  0  0  0  0  0  0  0
    1.7623   -8.8046    4.4589 H   0  0  0  0  0  0  0  0  0  0  0  0
  1  2  1  0
  2 22  1  0
  2  3  1  0
  2  4  1  0
  4  5  1  0
  4 24  1  0
  4 25  1  0
  5  6  1  0
  5 26  1  0
  5 27  1  0
  6  7  1  0
  6 28  1  0
  6 29  1  0
  7 22  1  0
  7  8  1  0
  7 30  1  6
  8  9  1  0
  8 31  1  0
  8 32  1  0
  9 10  1  0
  9 15  1  0
  9 47  1  1
 10 14  1  0
 10 11  1  0
 10 33  1  0
 11 12  1  0
 11 34  1  0
 11 35  1  0
 12 13  1  0
 12 36  1  0
 12 37  1  0
 13 14  1  0
 13 38  1  0
 13 39  1  0
 14 40  1  0
 14 41  1  0
 15 16  1  0
 15 42  1  0
 15 43  1  0
 16 17  1  0
 16 22  1  0
 16 44  1  6
 17 21  2  0
 17 18  1  0
 18 19  2  0
 19 20  1  0
 19 45  1  0
 20 23  1  0
 20 21  1  0
 22 46  1  1
M  CHG  1   9   1
M  END
>  <i_m_ct_stereo_status>  (180) 
1

>  <s_m_source_file>  (180) 
/var/tmp/pbs.5076255.sched01/tmpqm933_o1/456x1pmp19.sdf

>  <i_m_source_file_index>  (180) 
28

>  <i_lp_mmshare_version>  (180) 
48012

>  <i_f3d_flags>  (180) 
0

>  <s_epik_input>  (180) 
W0NIMl0xW0NIMl1bQ0gyXUMoRikoRilbQ0BIXShbQ0BASF0xMilbQ0BIXShjM25bY0hdW25IXW4zKVtDSDJdTihbQ0gyXTIpW0NIXTRbQ0gyXVtDSDJdW0NIMl1bQ0gyXTQ=

>  <s_epik_cmdline>  (180) 
J2VwaWtfcHl0aG9uJywgJy1waHQnLCAnMi4wJywgJy1waCcsICc3LjAnLCAnLXRuJywgJzgnLCAnLW1hJywgJzIwMCcsICctaW1hZScsICc8aW5maWxlLm1hZT4nLCAnLW9tYWUnLCAnPG91dGZpbGUubWFlPic=

>  <r_lp_tautomer_probability>  (180) 
0.948284

>  <r_epik_Ionization_Penalty>  (180) 
0.0118489

>  <r_epik_Ionization_Penalty_Charging>  (180) 
0.00578787

>  <r_epik_Ionization_Penalty_Neutral>  (180) 
0.00606099

>  <r_epik_State_Penalty>  (180) 
0.062272

>  <r_epik_Charging_Adjusted_Penalty>  (180) 
0.0680598

>  <i_epik_Tot_Q>  (180) 
1

>  <i_epik_Tot_abs_Q>  (180) 
1

>  <s_lp_Force_Field>  (180) 
OPLS3e

>  <r_lp_Energy>  (180) 
37.8049

>  <b_lp_Chiralities_Consistent>  (180) 
1

>  <s_lp_Variant>  (180) 
42:0-1

>  <s_i_glide_gridfile>  (180) 
pfpi4k_grid

>  <i_i_glide_lignum>  (180) 
28

>  <i_i_glide_rotatable_bonds>  (180) 
2

>  <r_i_docking_score>  (180) 
-2.87964

>  <r_i_glide_ligand_efficiency>  (180) 
-0.130893

>  <r_i_glide_ligand_efficiency_sa>  (180) 
-0.366766

>  <r_i_glide_ligand_efficiency_ln>  (180) 
-0.703889

>  <r_i_glide_gscore>  (180) 
-2.87964

>  <r_i_glide_lipo>  (180) 
-0.144495

>  <r_i_glide_hbond>  (180) 
0

>  <r_i_glide_metal>  (180) 
-0

>  <r_i_glide_rewards>  (180) 
-1.34758

>  <r_i_glide_evdw>  (180) 
-22.9771

>  <r_i_glide_ecoul>  (180) 
-3.41944

>  <r_i_glide_erotb>  (180) 
0.382498

>  <r_i_glide_esite>  (180) 
-0.108293

>  <r_i_glide_emodel>  (180) 
-32.2703

>  <r_i_glide_energy>  (180) 
-26.3965

>  <r_i_glide_einternal>  (180) 
0.0352664

>  <r_i_glide_intrahb_reward>  (180) 
-0

>  <i_i_glide_confnum>  (180) 
5

>  <i_i_glide_posenum>  (180) 
20

>  <r_i_glide_eff_state_penalty>  (180) 
0

>  <ligand_id>  (180) 
42

>  <original_smiles>  (180) 
FC1(F)CCCC2CN(C3CCCC3)CC(c3nc[nH]n3)C21

>  <smiles>  (180) 
[H]c1nc(C2([H])C3([H])C(F)(F)C([H])([H])C([H])([H])C([H])([H])C3([H])C([H])([H])[N+]([H])(C3([H])C([H])([H])C([H])([H])C([H])([H])C3([H])[H])C2([H])[H])nn1[H]

$$$$
42:1:0
     RDKit          3D

 47 50  0  0  1  0  0  0  0  0999 V2000
    6.3458   -7.0625    0.9049 F   0  0  0  0  0  0  0  0  0  0  0  0
    5.6228   -8.1153    1.2822 C   0  0  0  0  0  0  0  0  0  0  0  0
    5.0488   -8.6543    0.2024 F   0  0  0  0  0  0  0  0  0  0  0  0
    6.6174   -9.0946    1.9119 C   0  0  0  0  0  0  0  0  0  0  0  0
    5.9164  -10.3450    2.4515 C   0  0  0  0  0  0  0  0  0  0  0  0
    4.7915   -9.9710    3.4222 C   0  0  0  0  0  0  0  0  0  0  0  0
    3.7887   -8.9994    2.7825 C   0  0  1  0  0  0  0  0  0  0  0  0
    2.6809   -8.6340    3.7785 C   0  0  0  0  0  0  0  0  0  0  0  0
    1.6958   -7.6860    3.1911 N   0  0  2  0  0  0  0  0  0  0  0  0
    0.7293   -8.3035    2.2315 C   0  0  0  0  0  0  0  0  0  0  0  0
   -0.3614   -7.3077    1.7676 C   0  0  0  0  0  0  0  0  0  0  0  0
   -1.4645   -7.4553    2.8095 C   0  0  0  0  0  0  0  0  0  0  0  0
   -1.5250   -8.9499    3.0611 C   0  0  0  0  0  0  0  0  0  0  0  0
   -0.0919   -9.4613    2.8818 C   0  0  0  0  0  0  0  0  0  0  0  0
    2.3756   -6.4411    2.7206 C   0  0  0  0  0  0  0  0  0  0  0  0
    3.4881   -6.7204    1.6897 C   0  0  1  0  0  0  0  0  0  0  0  0
    4.1381   -5.4344    1.2708 C   0  0  0  0  0  0  0  0  0  0  0  0
    4.7405   -4.6110    2.1192 N   0  0  0  0  0  0  0  0  0  0  0  0
    5.2075   -3.6580    1.2505 C   0  0  0  0  0  0  0  0  0  0  0  0
    4.9060   -3.8535   -0.0345 N   0  0  0  0  0  0  0  0  0  0  0  0
    4.2087   -5.0070    0.0101 N   0  0  0  0  0  0  0  0  0  0  0  0
    4.5105   -7.7265    2.2734 C   0  0  2  0  0  0  0  0  0  0  0  0
    7.3667   -9.3647    1.1711 H   0  0  0  0  0  0  0  0  0  0  0  0
    7.1414   -8.5921    2.7266 H   0  0  0  0  0  0  0  0  0  0  0  0
    5.4913  -10.9104    1.6221 H   0  0  0  0  0  0  0  0  0  0  0  0
    6.6355  -10.9986    2.9465 H   0  0  0  0  0  0  0  0  0  0  0  0
    4.2735  -10.8795    3.7374 H   0  0  0  0  0  0  0  0  0  0  0  0
    5.2115   -9.5249    4.3244 H   0  0  0  0  0  0  0  0  0  0  0  0
    3.3392   -9.5177    1.9294 H   0  0  0  0  0  0  0  0  0  0  0  0
    2.2346   -9.5614    4.1270 H   0  0  0  0  0  0  0  0  0  0  0  0
    3.1197   -8.1652    4.6634 H   0  0  0  0  0  0  0  0  0  0  0  0
    1.2753   -8.6674    1.3596 H   0  0  0  0  0  0  0  0  0  0  0  0
   -0.0843   -6.2681    1.6455 H   0  0  0  0  0  0  0  0  0  0  0  0
   -0.7412   -7.6470    0.7958 H   0  0  0  0  0  0  0  0  0  0  0  0
   -1.1761   -6.9403    3.7232 H   0  0  0  0  0  0  0  0  0  0  0  0
   -2.4212   -7.0625    2.4813 H   0  0  0  0  0  0  0  0  0  0  0  0
   -1.8895   -9.1232    4.0701 H   0  0  0  0  0  0  0  0  0  0  0  0
   -2.1950   -9.4391    2.3515 H   0  0  0  0  0  0  0  0  0  0  0  0
   -0.0895  -10.3393    2.2302 H   0  0  0  0  0  0  0  0  0  0  0  0
    0.2560   -9.7966    3.8550 H   0  0  0  0  0  0  0  0  0  0  0  0
    1.7020   -5.6976    2.3153 H   0  0  0  0  0  0  0  0  0  0  0  0
    2.8226   -5.9706    3.6049 H   0  0  0  0  0  0  0  0  0  0  0  0
    3.0333   -7.1622    0.8023 H   0  0  0  0  0  0  0  0  0  0  0  0
    5.7834   -2.8165    1.5840 H   0  0  0  0  0  0  0  0  0  0  0  0
    4.9787   -7.2492    3.1337 H   0  0  0  0  0  0  0  0  0  0  0  0
    1.1131   -7.4066    3.9659 H   0  0  0  0  0  0  0  0  0  0  0  0
    3.8405   -5.4492   -0.8283 H   0  0  0  0  0  0  0  0  0  0  0  0
  1  2  1  0
  2 22  1  0
  2  3  1  0
  2  4  1  0
  4  5  1  0
  4 23  1  0
  4 24  1  0
  5  6  1  0
  5 25  1  0
  5 26  1  0
  6  7  1  0
  6 27  1  0
  6 28  1  0
  7 22  1  0
  7  8  1  0
  7 29  1  6
  8  9  1  0
  8 30  1  0
  8 31  1  0
  9 10  1  0
  9 15  1  0
  9 46  1  1
 10 14  1  0
 10 11  1  0
 10 32  1  0
 11 12  1  0
 11 33  1  0
 11 34  1  0
 12 13  1  0
 12 35  1  0
 12 36  1  0
 13 14  1  0
 13 37  1  0
 13 38  1  0
 14 39  1  0
 14 40  1  0
 15 16  1  0
 15 41  1  0
 15 42  1  0
 16 17  1  0
 16 22  1  0
 16 43  1  6
 17 21  1  0
 17 18  2  0
 18 19  1  0
 19 20  2  0
 19 44  1  0
 20 21  1  0
 21 47  1  0
 22 45  1  1
M  CHG  1   9   1
M  END
>  <i_m_ct_stereo_status>  (181) 
1

>  <s_m_source_file>  (181) 
/var/tmp/pbs.5076255.sched01/tmpqm933_o1/456x1pmp19.sdf

>  <i_m_source_file_index>  (181) 
29

>  <i_lp_mmshare_version>  (181) 
48012

>  <i_f3d_flags>  (181) 
0

>  <s_epik_input>  (181) 
W0NIMl0xW0NIMl1bQ0gyXUMoRikoRilbQ0BIXShbQ0BASF0xMilbQ0BIXShjM25bY0hdW25IXW4zKVtDSDJdTihbQ0gyXTIpW0NIXTRbQ0gyXVtDSDJdW0NIMl1bQ0gyXTQ=

>  <s_epik_cmdline>  (181) 
J2VwaWtfcHl0aG9uJywgJy1waHQnLCAnMi4wJywgJy1waCcsICc3LjAnLCAnLXRuJywgJzgnLCAnLW1hJywgJzIwMCcsICctaW1hZScsICc8aW5maWxlLm1hZT4nLCAnLW9tYWUnLCAnPG91dGZpbGUubWFlPic=

>  <r_epik_Ionization_Penalty>  (181) 
0.081317

>  <r_epik_Ionization_Penalty_Charging>  (181) 
0.00738807

>  <r_epik_Ionization_Penalty_Neutral>  (181) 
0.0739289

>  <r_epik_State_Penalty>  (181) 
1.6731

>  <r_epik_Charging_Adjusted_Penalty>  (181) 
1.68048

>  <i_epik_Tot_Q>  (181) 
1

>  <i_epik_Tot_abs_Q>  (181) 
1

>  <s_lp_Force_Field>  (181) 
OPLS3e

>  <r_lp_Energy>  (181) 
38.9052

>  <b_lp_Chiralities_Consistent>  (181) 
1

>  <s_lp_Variant>  (181) 
42:0-2

>  <s_i_glide_gridfile>  (181) 
pfpi4k_grid

>  <i_i_glide_lignum>  (181) 
29

>  <i_i_glide_rotatable_bonds>  (181) 
2

>  <r_i_docking_score>  (181) 
-3.42032

>  <r_i_glide_ligand_efficiency>  (181) 
-0.155469

>  <r_i_glide_ligand_efficiency_sa>  (181) 
-0.43563

>  <r_i_glide_ligand_efficiency_ln>  (181) 
-0.836051

>  <r_i_glide_gscore>  (181) 
-3.42032

>  <r_i_glide_lipo>  (181) 
-0.2005

>  <r_i_glide_hbond>  (181) 
-0.281794

>  <r_i_glide_metal>  (181) 
-0

>  <r_i_glide_rewards>  (181) 
-1.45912

>  <r_i_glide_evdw>  (181) 
-22.4518

>  <r_i_glide_ecoul>  (181) 
-4.62921

>  <r_i_glide_erotb>  (181) 
0.382498

>  <r_i_glide_esite>  (181) 
-0.0444365

>  <r_i_glide_emodel>  (181) 
-36.7936

>  <r_i_glide_energy>  (181) 
-27.081

>  <r_i_glide_einternal>  (181) 
0.0155175

>  <r_i_glide_intrahb_reward>  (181) 
-0

>  <i_i_glide_confnum>  (181) 
5

>  <i_i_glide_posenum>  (181) 
33

>  <r_i_glide_eff_state_penalty>  (181) 
0

>  <ligand_id>  (181) 
42

>  <original_smiles>  (181) 
FC1(F)CCCC2CN(C3CCCC3)CC(c3nc[nH]n3)C21

>  <smiles>  (181) 
[H]c1nc(C2([H])C3([H])C(F)(F)C([H])([H])C([H])([H])C([H])([H])C3([H])C([H])([H])[N+]([H])(C3([H])C([H])([H])C([H])([H])C([H])([H])C3([H])[H])C2([H])[H])n([H])n1

$$$$
42:1:1
     RDKit          3D

 47 50  0  0  1  0  0  0  0  0999 V2000
    2.0531   -7.1721    1.5295 F   0  0  0  0  0  0  0  0  0  0  0  0
    1.2093   -7.2440    2.5528 C   0  0  0  0  0  0  0  0  0  0  0  0
    1.3450   -6.1514    3.3044 F   0  0  0  0  0  0  0  0  0  0  0  0
   -0.1787   -7.2620    1.9217 C   0  0  0  0  0  0  0  0  0  0  0  0
   -1.2778   -7.4115    2.9754 C   0  0  0  0  0  0  0  0  0  0  0  0
   -1.0462   -8.6477    3.8420 C   0  0  0  0  0  0  0  0  0  0  0  0
    0.3456   -8.6276    4.4929 C   0  0  1  0  0  0  0  0  0  0  0  0
    0.5607   -9.8783    5.3562 C   0  0  0  0  0  0  0  0  0  0  0  0
    1.8929   -9.9085    6.0028 N   0  0  2  0  0  0  0  0  0  0  0  0
    2.0370   -8.9987    7.1747 C   0  0  0  0  0  0  0  0  0  0  0  0
    3.4083   -9.1394    7.8507 C   0  0  0  0  0  0  0  0  0  0  0  0
    3.1873   -8.8352    9.3258 C   0  0  0  0  0  0  0  0  0  0  0  0
    1.7976   -9.3838    9.6158 C   0  0  0  0  0  0  0  0  0  0  0  0
    1.0158   -9.2994    8.3014 C   0  0  0  0  0  0  0  0  0  0  0  0
    2.9773   -9.8262    4.9857 C   0  0  0  0  0  0  0  0  0  0  0  0
    2.8503   -8.5964    4.0611 C   0  0  1  0  0  0  0  0  0  0  0  0
    3.9545   -8.5716    3.0487 C   0  0  0  0  0  0  0  0  0  0  0  0
    4.8910   -7.6364    2.9587 N   0  0  0  0  0  0  0  0  0  0  0  0
    5.5724   -8.0712    1.8526 C   0  0  0  0  0  0  0  0  0  0  0  0
    5.1170   -9.1979    1.3011 N   0  0  0  0  0  0  0  0  0  0  0  0
    4.0795   -9.5106    2.0995 N   0  0  0  0  0  0  0  0  0  0  0  0
    1.4455   -8.5135    3.4119 C   0  0  2  0  0  0  0  0  0  0  0  0
   -0.3243   -6.3592    1.3335 H   0  0  0  0  0  0  0  0  0  0  0  0
   -0.2373   -8.0999    1.2341 H   0  0  0  0  0  0  0  0  0  0  0  0
   -1.2926   -6.5311    3.6230 H   0  0  0  0  0  0  0  0  0  0  0  0
   -2.2530   -7.4763    2.4877 H   0  0  0  0  0  0  0  0  0  0  0  0
   -1.8161   -8.6800    4.6126 H   0  0  0  0  0  0  0  0  0  0  0  0
   -1.1646   -9.5519    3.2446 H   0  0  0  0  0  0  0  0  0  0  0  0
    0.3849   -7.7463    5.1431 H   0  0  0  0  0  0  0  0  0  0  0  0
   -0.2336   -9.9134    6.0946 H   0  0  0  0  0  0  0  0  0  0  0  0
    0.4429  -10.7859    4.7639 H   0  0  0  0  0  0  0  0  0  0  0  0
    1.9134   -7.9551    6.8776 H   0  0  0  0  0  0  0  0  0  0  0  0
    3.7564  -10.1709    7.7691 H   0  0  0  0  0  0  0  0  0  0  0  0
    4.1631   -8.4876    7.4018 H   0  0  0  0  0  0  0  0  0  0  0  0
    3.9584   -9.2907    9.9499 H   0  0  0  0  0  0  0  0  0  0  0  0
    3.2040   -7.7582    9.4833 H   0  0  0  0  0  0  0  0  0  0  0  0
    1.8771  -10.4368    9.8893 H   0  0  0  0  0  0  0  0  0  0  0  0
    1.2966   -8.8625   10.4281 H   0  0  0  0  0  0  0  0  0  0  0  0
    0.2433   -8.5229    8.3308 H   0  0  0  0  0  0  0  0  0  0  0  0
    0.5095  -10.2576    8.1720 H   0  0  0  0  0  0  0  0  0  0  0  0
    3.9641   -9.8260    5.4459 H   0  0  0  0  0  0  0  0  0  0  0  0
    2.9307  -10.7377    4.3897 H   0  0  0  0  0  0  0  0  0  0  0  0
    2.9746   -7.7019    4.6777 H   0  0  0  0  0  0  0  0  0  0  0  0
    6.4258   -7.5603    1.4357 H   0  0  0  0  0  0  0  0  0  0  0  0
    1.3410   -9.3847    2.7646 H   0  0  0  0  0  0  0  0  0  0  0  0
    1.9473  -10.8371    6.4112 H   0  0  0  0  0  0  0  0  0  0  0  0
    3.5019  -10.3252    1.9440 H   0  0  0  0  0  0  0  0  0  0  0  0
  1  2  1  0
  2 22  1  0
  2  3  1  0
  2  4  1  0
  4  5  1  0
  4 23  1  0
  4 24  1  0
  5  6  1  0
  5 25  1  0
  5 26  1  0
  6  7  1  0
  6 27  1  0
  6 28  1  0
  7 22  1  0
  7  8  1  0
  7 29  1  1
  8  9  1  0
  8 30  1  0
  8 31  1  0
  9 10  1  0
  9 15  1  0
  9 46  1  1
 10 14  1  0
 10 11  1  0
 10 32  1  0
 11 12  1  0
 11 33  1  0
 11 34  1  0
 12 13  1  0
 12 35  1  0
 12 36  1  0
 13 14  1  0
 13 37  1  0
 13 38  1  0
 14 39  1  0
 14 40  1  0
 15 16  1  0
 15 41  1  0
 15 42  1  0
 16 17  1  0
 16 22  1  0
 16 43  1  1
 17 21  1  0
 17 18  2  0
 18 19  1  0
 19 20  2  0
 19 44  1  0
 20 21  1  0
 21 47  1  0
 22 45  1  6
M  CHG  1   9   1
M  END
>  <i_m_ct_stereo_status>  (182) 
1

>  <s_m_source_file>  (182) 
/var/tmp/pbs.5076255.sched01/tmpqm933_o1/456x1pmp19.sdf

>  <i_m_source_file_index>  (182) 
29

>  <i_lp_mmshare_version>  (182) 
48012

>  <i_f3d_flags>  (182) 
0

>  <s_epik_input>  (182) 
W0NIMl0xW0NIMl1bQ0gyXUMoRikoRilbQ0BIXShbQ0BASF0xMilbQ0BIXShjM25bY0hdW25IXW4zKVtDSDJdTihbQ0gyXTIpW0NIXTRbQ0gyXVtDSDJdW0NIMl1bQ0gyXTQ=

>  <s_epik_cmdline>  (182) 
J2VwaWtfcHl0aG9uJywgJy1waHQnLCAnMi4wJywgJy1waCcsICc3LjAnLCAnLXRuJywgJzgnLCAnLW1hJywgJzIwMCcsICctaW1hZScsICc8aW5maWxlLm1hZT4nLCAnLW9tYWUnLCAnPG91dGZpbGUubWFlPic=

>  <r_epik_Ionization_Penalty>  (182) 
0.081317

>  <r_epik_Ionization_Penalty_Charging>  (182) 
0.00738807

>  <r_epik_Ionization_Penalty_Neutral>  (182) 
0.0739289

>  <r_epik_State_Penalty>  (182) 
1.6731

>  <r_epik_Charging_Adjusted_Penalty>  (182) 
1.68048

>  <i_epik_Tot_Q>  (182) 
1

>  <i_epik_Tot_abs_Q>  (182) 
1

>  <s_lp_Force_Field>  (182) 
OPLS3e

>  <r_lp_Energy>  (182) 
38.9052

>  <b_lp_Chiralities_Consistent>  (182) 
1

>  <s_lp_Variant>  (182) 
42:0-2

>  <s_i_glide_gridfile>  (182) 
pfpi4k_grid

>  <i_i_glide_lignum>  (182) 
29

>  <i_i_glide_rotatable_bonds>  (182) 
2

>  <r_i_docking_score>  (182) 
-3.18845

>  <r_i_glide_ligand_efficiency>  (182) 
-0.14493

>  <r_i_glide_ligand_efficiency_sa>  (182) 
-0.406098

>  <r_i_glide_ligand_efficiency_ln>  (182) 
-0.779374

>  <r_i_glide_gscore>  (182) 
-3.18845

>  <r_i_glide_lipo>  (182) 
0

>  <r_i_glide_hbond>  (182) 
-0.193071

>  <r_i_glide_metal>  (182) 
-0

>  <r_i_glide_rewards>  (182) 
-1.36602

>  <r_i_glide_evdw>  (182) 
-20.8784

>  <r_i_glide_ecoul>  (182) 
-5.24498

>  <r_i_glide_erotb>  (182) 
0.382498

>  <r_i_glide_esite>  (182) 
-0.181187

>  <r_i_glide_emodel>  (182) 
-34.446

>  <r_i_glide_energy>  (182) 
-26.1234

>  <r_i_glide_einternal>  (182) 
1.33642

>  <r_i_glide_intrahb_reward>  (182) 
-0

>  <i_i_glide_confnum>  (182) 
4

>  <i_i_glide_posenum>  (182) 
5

>  <r_i_glide_eff_state_penalty>  (182) 
0

>  <ligand_id>  (182) 
42

>  <original_smiles>  (182) 
FC1(F)CCCC2CN(C3CCCC3)CC(c3nc[nH]n3)C21

>  <smiles>  (182) 
[H]c1nc(C2([H])C3([H])C(F)(F)C([H])([H])C([H])([H])C([H])([H])C3([H])C([H])([H])[N+]([H])(C3([H])C([H])([H])C([H])([H])C([H])([H])C3([H])[H])C2([H])[H])n([H])n1

$$$$
42:1:2
     RDKit          3D

 47 50  0  0  1  0  0  0  0  0999 V2000
    6.7243   -8.3051    1.3111 F   0  0  0  0  0  0  0  0  0  0  0  0
    5.8286   -9.2243    1.6663 C   0  0  0  0  0  0  0  0  0  0  0  0
    5.2538   -9.7122    0.5683 F   0  0  0  0  0  0  0  0  0  0  0  0
    6.6171  -10.3246    2.3839 C   0  0  0  0  0  0  0  0  0  0  0  0
    5.7137  -11.4347    2.9207 C   0  0  0  0  0  0  0  0  0  0  0  0
    4.6171  -10.8607    3.8250 C   0  0  0  0  0  0  0  0  0  0  0  0
    3.8050   -9.7712    3.1115 C   0  0  1  0  0  0  0  0  0  0  0  0
    2.7249   -9.2089    4.0452 C   0  0  0  0  0  0  0  0  0  0  0  0
    1.9188   -8.1419    3.3883 N   0  0  2  0  0  0  0  0  0  0  0  0
    0.9080   -8.6323    2.4016 C   0  0  0  0  0  0  0  0  0  0  0  0
   -0.0056   -7.4966    1.8672 C   0  0  0  0  0  0  0  0  0  0  0  0
   -1.1634   -7.4572    2.8618 C   0  0  0  0  0  0  0  0  0  0  0  0
   -1.4497   -8.9219    3.1446 C   0  0  0  0  0  0  0  0  0  0  0  0
   -0.0998   -9.6394    3.0341 C   0  0  0  0  0  0  0  0  0  0  0  0
    2.8018   -7.0318    2.9168 C   0  0  0  0  0  0  0  0  0  0  0  0
    3.9001   -7.5106    1.9441 C   0  0  1  0  0  0  0  0  0  0  0  0
    4.7596   -6.3513    1.5297 C   0  0  0  0  0  0  0  0  0  0  0  0
    5.5160   -5.6615    2.3729 N   0  0  0  0  0  0  0  0  0  0  0  0
    6.1230   -4.7893    1.5057 C   0  0  0  0  0  0  0  0  0  0  0  0
    5.7423   -4.8876    0.2321 N   0  0  0  0  0  0  0  0  0  0  0  0
    4.8538   -5.9000    0.2789 N   0  0  0  0  0  0  0  0  0  0  0  0
    4.7361   -8.6424    2.5952 C   0  0  2  0  0  0  0  0  0  0  0  0
    7.3486  -10.7527    1.7015 H   0  0  0  0  0  0  0  0  0  0  0  0
    7.1773   -9.8776    3.2087 H   0  0  0  0  0  0  0  0  0  0  0  0
    5.2651  -11.9596    2.0819 H   0  0  0  0  0  0  0  0  0  0  0  0
    6.3048  -12.1690    3.4731 H   0  0  0  0  0  0  0  0  0  0  0  0
    3.9545  -11.6687    4.1431 H   0  0  0  0  0  0  0  0  0  0  0  0
    5.0608  -10.4531    4.7353 H   0  0  0  0  0  0  0  0  0  0  0  0
    3.3183  -10.2446    2.2528 H   0  0  0  0  0  0  0  0  0  0  0  0
    2.1247  -10.0431    4.3992 H   0  0  0  0  0  0  0  0  0  0  0  0
    3.1924   -8.7802    4.9372 H   0  0  0  0  0  0  0  0  0  0  0  0
    1.4251   -9.1062    1.5665 H   0  0  0  0  0  0  0  0  0  0  0  0
    0.4342   -6.5152    1.7340 H   0  0  0  0  0  0  0  0  0  0  0  0
   -0.3965   -7.8043    0.8891 H   0  0  0  0  0  0  0  0  0  0  0  0
   -0.8370   -6.9531    3.7703 H   0  0  0  0  0  0  0  0  0  0  0  0
   -2.0410   -6.9369    2.4836 H   0  0  0  0  0  0  0  0  0  0  0  0
   -1.8811   -9.0541    4.1331 H   0  0  0  0  0  0  0  0  0  0  0  0
   -2.1562   -9.3233    2.4152 H   0  0  0  0  0  0  0  0  0  0  0  0
   -0.2016  -10.5273    2.4034 H   0  0  0  0  0  0  0  0  0  0  0  0
    0.1547   -9.9933    4.0286 H   0  0  0  0  0  0  0  0  0  0  0  0
    2.2636   -6.2099    2.4615 H   0  0  0  0  0  0  0  0  0  0  0  0
    3.2802   -6.6042    3.8067 H   0  0  0  0  0  0  0  0  0  0  0  0
    3.4238   -7.9097    1.0452 H   0  0  0  0  0  0  0  0  0  0  0  0
    6.8575   -4.0782    1.8307 H   0  0  0  0  0  0  0  0  0  0  0  0
    5.2292   -8.2143    3.4679 H   0  0  0  0  0  0  0  0  0  0  0  0
    1.3569   -7.7503    4.1291 H   0  0  0  0  0  0  0  0  0  0  0  0
    4.3810   -6.2423   -0.5493 H   0  0  0  0  0  0  0  0  0  0  0  0
  1  2  1  0
  2 22  1  0
  2  3  1  0
  2  4  1  0
  4  5  1  0
  4 23  1  0
  4 24  1  0
  5  6  1  0
  5 25  1  0
  5 26  1  0
  6  7  1  0
  6 27  1  0
  6 28  1  0
  7 22  1  0
  7  8  1  0
  7 29  1  6
  8  9  1  0
  8 30  1  0
  8 31  1  0
  9 10  1  0
  9 15  1  0
  9 46  1  1
 10 14  1  0
 10 11  1  0
 10 32  1  0
 11 12  1  0
 11 33  1  0
 11 34  1  0
 12 13  1  0
 12 35  1  0
 12 36  1  0
 13 14  1  0
 13 37  1  0
 13 38  1  0
 14 39  1  0
 14 40  1  0
 15 16  1  0
 15 41  1  0
 15 42  1  0
 16 17  1  0
 16 22  1  0
 16 43  1  6
 17 21  1  0
 17 18  2  0
 18 19  1  0
 19 20  2  0
 19 44  1  0
 20 21  1  0
 21 47  1  0
 22 45  1  1
M  CHG  1   9   1
M  END
>  <i_m_ct_stereo_status>  (183) 
1

>  <s_m_source_file>  (183) 
/var/tmp/pbs.5076255.sched01/tmpqm933_o1/456x1pmp19.sdf

>  <i_m_source_file_index>  (183) 
29

>  <i_lp_mmshare_version>  (183) 
48012

>  <i_f3d_flags>  (183) 
0

>  <s_epik_input>  (183) 
W0NIMl0xW0NIMl1bQ0gyXUMoRikoRilbQ0BIXShbQ0BASF0xMilbQ0BIXShjM25bY0hdW25IXW4zKVtDSDJdTihbQ0gyXTIpW0NIXTRbQ0gyXVtDSDJdW0NIMl1bQ0gyXTQ=

>  <s_epik_cmdline>  (183) 
J2VwaWtfcHl0aG9uJywgJy1waHQnLCAnMi4wJywgJy1waCcsICc3LjAnLCAnLXRuJywgJzgnLCAnLW1hJywgJzIwMCcsICctaW1hZScsICc8aW5maWxlLm1hZT4nLCAnLW9tYWUnLCAnPG91dGZpbGUubWFlPic=

>  <r_epik_Ionization_Penalty>  (183) 
0.081317

>  <r_epik_Ionization_Penalty_Charging>  (183) 
0.00738807

>  <r_epik_Ionization_Penalty_Neutral>  (183) 
0.0739289

>  <r_epik_State_Penalty>  (183) 
1.6731

>  <r_epik_Charging_Adjusted_Penalty>  (183) 
1.68048

>  <i_epik_Tot_Q>  (183) 
1

>  <i_epik_Tot_abs_Q>  (183) 
1

>  <s_lp_Force_Field>  (183) 
OPLS3e

>  <r_lp_Energy>  (183) 
38.9052

>  <b_lp_Chiralities_Consistent>  (183) 
1

>  <s_lp_Variant>  (183) 
42:0-2

>  <s_i_glide_gridfile>  (183) 
pfpi4k_grid

>  <i_i_glide_lignum>  (183) 
29

>  <i_i_glide_rotatable_bonds>  (183) 
2

>  <r_i_docking_score>  (183) 
-3.12514

>  <r_i_glide_ligand_efficiency>  (183) 
-0.142052

>  <r_i_glide_ligand_efficiency_sa>  (183) 
-0.398035

>  <r_i_glide_ligand_efficiency_ln>  (183) 
-0.763898

>  <r_i_glide_gscore>  (183) 
-3.12514

>  <r_i_glide_lipo>  (183) 
-0.0440574

>  <r_i_glide_hbond>  (183) 
0

>  <r_i_glide_metal>  (183) 
-0

>  <r_i_glide_rewards>  (183) 
-1.68301

>  <r_i_glide_evdw>  (183) 
-23.4126

>  <r_i_glide_ecoul>  (183) 
-3.48443

>  <r_i_glide_erotb>  (183) 
0.382498

>  <r_i_glide_esite>  (183) 
-0.0872771

>  <r_i_glide_emodel>  (183) 
-35.7286

>  <r_i_glide_energy>  (183) 
-26.8971

>  <r_i_glide_einternal>  (183) 
0.0789026

>  <r_i_glide_intrahb_reward>  (183) 
-0

>  <i_i_glide_confnum>  (183) 
5

>  <i_i_glide_posenum>  (183) 
10

>  <r_i_glide_eff_state_penalty>  (183) 
0

>  <ligand_id>  (183) 
42

>  <original_smiles>  (183) 
FC1(F)CCCC2CN(C3CCCC3)CC(c3nc[nH]n3)C21

>  <smiles>  (183) 
[H]c1nc(C2([H])C3([H])C(F)(F)C([H])([H])C([H])([H])C([H])([H])C3([H])C([H])([H])[N+]([H])(C3([H])C([H])([H])C([H])([H])C([H])([H])C3([H])[H])C2([H])[H])n([H])n1

$$$$
42:2:0
     RDKit          3D

 47 50  0  0  1  0  0  0  0  0999 V2000
    5.0444   -9.7994    7.3135 F   0  0  0  0  0  0  0  0  0  0  0  0
    4.6923  -10.0516    6.0512 C   0  0  0  0  0  0  0  0  0  0  0  0
    4.9154   -8.9568    5.3143 F   0  0  0  0  0  0  0  0  0  0  0  0
    5.6074  -11.1851    5.5824 C   0  0  0  0  0  0  0  0  0  0  0  0
    5.2679  -11.6338    4.1570 C   0  0  0  0  0  0  0  0  0  0  0  0
    3.7886  -12.0260    4.0387 C   0  0  0  0  0  0  0  0  0  0  0  0
    2.8660  -10.8862    4.4941 C   0  0  1  0  0  0  0  0  0  0  0  0
    1.3929  -11.2997    4.3673 C   0  0  0  0  0  0  0  0  0  0  0  0
    0.4732  -10.2220    4.8134 N   0  0  2  0  0  0  0  0  0  0  0  0
    0.3007   -9.1038    3.8406 C   0  0  0  0  0  0  0  0  0  0  0  0
   -0.7241   -8.0675    4.3246 C   0  0  0  0  0  0  0  0  0  0  0  0
   -1.3570   -7.4886    3.0710 C   0  0  0  0  0  0  0  0  0  0  0  0
   -1.4183   -8.6699    2.1137 C   0  0  0  0  0  0  0  0  0  0  0  0
   -0.2472   -9.5847    2.4832 C   0  0  0  0  0  0  0  0  0  0  0  0
    0.7488   -9.7944    6.2111 C   0  0  0  0  0  0  0  0  0  0  0  0
    2.2151   -9.3681    6.4363 C   0  0  1  0  0  0  0  0  0  0  0  0
    2.4341   -8.9930    7.8724 C   0  0  0  0  0  0  0  0  0  0  0  0
    2.2519   -9.8739    8.8658 N   0  0  0  0  0  0  0  0  0  0  0  0
    2.6036   -9.1811    9.9531 C   0  0  0  0  0  0  0  0  0  0  0  0
    2.9678   -7.9274    9.6842 N   0  0  0  0  0  0  0  0  0  0  0  0
    2.8447   -7.7943    8.3089 N   0  0  0  0  0  0  0  0  0  0  0  0
    3.1999  -10.4597    5.9449 C   0  0  2  0  0  0  0  0  0  0  0  0
    1.9749  -10.8479    8.7652 H   0  0  0  0  0  0  0  0  0  0  0  0
    6.6441  -10.8645    5.6392 H   0  0  0  0  0  0  0  0  0  0  0  0
    5.4995  -12.0285    6.2643 H   0  0  0  0  0  0  0  0  0  0  0  0
    5.4834  -10.8245    3.4559 H   0  0  0  0  0  0  0  0  0  0  0  0
    5.8965  -12.4789    3.8721 H   0  0  0  0  0  0  0  0  0  0  0  0
    3.5682  -12.2956    3.0034 H   0  0  0  0  0  0  0  0  0  0  0  0
    3.5913  -12.9175    4.6356 H   0  0  0  0  0  0  0  0  0  0  0  0
    3.0467  -10.0398    3.8262 H   0  0  0  0  0  0  0  0  0  0  0  0
    1.2003  -11.5881    3.3343 H   0  0  0  0  0  0  0  0  0  0  0  0
    1.1940  -12.1943    4.9613 H   0  0  0  0  0  0  0  0  0  0  0  0
    1.2508   -8.5987    3.6656 H   0  0  0  0  0  0  0  0  0  0  0  0
   -1.5091   -8.5644    4.8993 H   0  0  0  0  0  0  0  0  0  0  0  0
   -0.2692   -7.2960    4.9508 H   0  0  0  0  0  0  0  0  0  0  0  0
   -2.3426   -7.0742    3.2820 H   0  0  0  0  0  0  0  0  0  0  0  0
   -0.7220   -6.7043    2.6611 H   0  0  0  0  0  0  0  0  0  0  0  0
   -2.3487   -9.2189    2.2663 H   0  0  0  0  0  0  0  0  0  0  0  0
   -1.3858   -8.3597    1.0719 H   0  0  0  0  0  0  0  0  0  0  0  0
    0.5519   -9.5507    1.7390 H   0  0  0  0  0  0  0  0  0  0  0  0
   -0.6082  -10.6127    2.5055 H   0  0  0  0  0  0  0  0  0  0  0  0
    0.0804   -8.9982    6.5377 H   0  0  0  0  0  0  0  0  0  0  0  0
    0.4829  -10.6456    6.8394 H   0  0  0  0  0  0  0  0  0  0  0  0
    2.3963   -8.4621    5.8535 H   0  0  0  0  0  0  0  0  0  0  0  0
    2.6044   -9.5997   10.9508 H   0  0  0  0  0  0  0  0  0  0  0  0
    3.0496  -11.3400    6.5734 H   0  0  0  0  0  0  0  0  0  0  0  0
   -0.4452  -10.6538    4.8739 H   0  0  0  0  0  0  0  0  0  0  0  0
  1  2  1  0
  2 22  1  0
  2  3  1  0
  2  4  1  0
  4  5  1  0
  4 24  1  0
  4 25  1  0
  5  6  1  0
  5 26  1  0
  5 27  1  0
  6  7  1  0
  6 28  1  0
  6 29  1  0
  7 22  1  0
  7  8  1  0
  7 30  1  6
  8  9  1  0
  8 31  1  0
  8 32  1  0
  9 10  1  0
  9 15  1  0
  9 47  1  1
 10 14  1  0
 10 11  1  0
 10 33  1  0
 11 12  1  0
 11 34  1  0
 11 35  1  0
 12 13  1  0
 12 36  1  0
 12 37  1  0
 13 14  1  0
 13 38  1  0
 13 39  1  0
 14 40  1  0
 14 41  1  0
 15 16  1  0
 15 42  1  0
 15 43  1  0
 16 22  1  0
 16 44  1  6
 16 17  1  0
 17 21  2  0
 17 18  1  0
 18 23  1  0
 18 19  1  0
 19 45  1  0
 19 20  2  0
 20 21  1  0
 22 46  1  1
M  CHG  1   9   1
M  END
>  <i_m_ct_stereo_status>  (184) 
1

>  <s_m_source_file>  (184) 
/var/tmp/pbs.5076255.sched01/tmpqm933_o1/456x1pmp19.sdf

>  <i_m_source_file_index>  (184) 
30

>  <i_lp_mmshare_version>  (184) 
48012

>  <i_f3d_flags>  (184) 
0

>  <s_epik_input>  (184) 
W0NIMl0xW0NIMl1bQ0gyXUMoRikoRilbQ0BIXShbQ0BASF0xMilbQ0BIXShjM25bY0hdW25IXW4zKVtDSDJdTihbQ0gyXTIpW0NIXTRbQ0gyXVtDSDJdW0NIMl1bQ0gyXTQ=

>  <s_epik_cmdline>  (184) 
J2VwaWtfcHl0aG9uJywgJy1waHQnLCAnMi4wJywgJy1waCcsICc3LjAnLCAnLXRuJywgJzgnLCAnLW1hJywgJzIwMCcsICctaW1hZScsICc8aW5maWxlLm1hZT4nLCAnLW9tYWUnLCAnPG91dGZpbGUubWFlPic=

>  <r_lp_tautomer_probability>  (184) 
0.0517155

>  <r_epik_Ionization_Penalty>  (184) 
0.258996

>  <r_epik_Ionization_Penalty_Charging>  (184) 
0.00738807

>  <r_epik_Ionization_Penalty_Neutral>  (184) 
0.251608

>  <r_epik_State_Penalty>  (184) 
1.90136

>  <r_epik_Charging_Adjusted_Penalty>  (184) 
1.90875

>  <i_epik_Tot_Q>  (184) 
1

>  <i_epik_Tot_abs_Q>  (184) 
1

>  <s_lp_Force_Field>  (184) 
OPLS3e

>  <r_lp_Energy>  (184) 
39.1364

>  <b_lp_Chiralities_Consistent>  (184) 
1

>  <s_lp_Variant>  (184) 
42:0-3

>  <s_i_glide_gridfile>  (184) 
pfpi4k_grid

>  <i_i_glide_lignum>  (184) 
30

>  <i_i_glide_rotatable_bonds>  (184) 
2

>  <r_i_docking_score>  (184) 
-3.93266

>  <r_i_glide_ligand_efficiency>  (184) 
-0.178757

>  <r_i_glide_ligand_efficiency_sa>  (184) 
-0.500884

>  <r_i_glide_ligand_efficiency_ln>  (184) 
-0.961285

>  <r_i_glide_gscore>  (184) 
-3.93266

>  <r_i_glide_lipo>  (184) 
-0.174061

>  <r_i_glide_hbond>  (184) 
-0.36

>  <r_i_glide_metal>  (184) 
-0

>  <r_i_glide_rewards>  (184) 
-1.28595

>  <r_i_glide_evdw>  (184) 
-17.3388

>  <r_i_glide_ecoul>  (184) 
-9.25748

>  <r_i_glide_erotb>  (184) 
0.382498

>  <r_i_glide_esite>  (184) 
-0.239575

>  <r_i_glide_emodel>  (184) 
-37.3069

>  <r_i_glide_energy>  (184) 
-26.5963

>  <r_i_glide_einternal>  (184) 
1.33456

>  <r_i_glide_intrahb_reward>  (184) 
-0

>  <i_i_glide_confnum>  (184) 
3

>  <i_i_glide_posenum>  (184) 
18

>  <r_i_glide_eff_state_penalty>  (184) 
0

>  <ligand_id>  (184) 
42

>  <original_smiles>  (184) 
FC1(F)CCCC2CN(C3CCCC3)CC(c3nc[nH]n3)C21

>  <smiles>  (184) 
[H]c1nnc(C2([H])C3([H])C(F)(F)C([H])([H])C([H])([H])C([H])([H])C3([H])C([H])([H])[N+]([H])(C3([H])C([H])([H])C([H])([H])C([H])([H])C3([H])[H])C2([H])[H])n1[H]

$$$$
42:2:1
     RDKit          3D

 47 50  0  0  1  0  0  0  0  0999 V2000
    4.5566   -3.9534    0.7612 F   0  0  0  0  0  0  0  0  0  0  0  0
    3.8501   -3.7077    1.8672 C   0  0  0  0  0  0  0  0  0  0  0  0
    2.5810   -4.0903    1.6669 F   0  0  0  0  0  0  0  0  0  0  0  0
    4.4900   -4.5727    2.9565 C   0  0  0  0  0  0  0  0  0  0  0  0
    3.8181   -4.3570    4.3146 C   0  0  0  0  0  0  0  0  0  0  0  0
    3.8311   -2.8726    4.7072 C   0  0  0  0  0  0  0  0  0  0  0  0
    3.1827   -1.9965    3.6217 C   0  0  1  0  0  0  0  0  0  0  0  0
    3.2067   -0.5169    4.0329 C   0  0  0  0  0  0  0  0  0  0  0  0
    2.5995    0.3594    2.9979 N   0  0  2  0  0  0  0  0  0  0  0  0
    1.1046    0.3402    2.9678 C   0  0  0  0  0  0  0  0  0  0  0  0
    0.5366    1.3263    1.9370 C   0  0  0  0  0  0  0  0  0  0  0  0
   -0.8168    1.7569    2.4851 C   0  0  0  0  0  0  0  0  0  0  0  0
   -0.6083    1.8147    3.9920 C   0  0  0  0  0  0  0  0  0  0  0  0
    0.4707    0.7782    4.3131 C   0  0  0  0  0  0  0  0  0  0  0  0
    3.2776    0.1954    1.6790 C   0  0  0  0  0  0  0  0  0  0  0  0
    3.2961   -1.2605    1.1821 C   0  0  1  0  0  0  0  0  0  0  0  0
    4.0415   -1.3590   -0.1234 C   0  0  0  0  0  0  0  0  0  0  0  0
    3.4162   -1.5439   -1.2919 N   0  0  0  0  0  0  0  0  0  0  0  0
    4.4340   -1.6088   -2.1609 C   0  0  0  0  0  0  0  0  0  0  0  0
    5.6295   -1.4421   -1.5916 N   0  0  0  0  0  0  0  0  0  0  0  0
    5.3732   -1.2402   -0.2451 N   0  0  0  0  0  0  0  0  0  0  0  0
    3.8873   -2.2053    2.2597 C   0  0  2  0  0  0  0  0  0  0  0  0
    2.4163   -1.5718   -1.4619 H   0  0  0  0  0  0  0  0  0  0  0  0
    4.4319   -5.6177    2.6687 H   0  0  0  0  0  0  0  0  0  0  0  0
    5.5487   -4.3224    3.0297 H   0  0  0  0  0  0  0  0  0  0  0  0
    2.7855   -4.7103    4.2702 H   0  0  0  0  0  0  0  0  0  0  0  0
    4.3265   -4.9463    5.0779 H   0  0  0  0  0  0  0  0  0  0  0  0
    3.3027   -2.7473    5.6544 H   0  0  0  0  0  0  0  0  0  0  0  0
    4.8562   -2.5450    4.8838 H   0  0  0  0  0  0  0  0  0  0  0  0
    2.1389   -2.3127    3.5332 H   0  0  0  0  0  0  0  0  0  0  0  0
    2.6918   -0.4162    4.9868 H   0  0  0  0  0  0  0  0  0  0  0  0
    4.2335   -0.1844    4.2054 H   0  0  0  0  0  0  0  0  0  0  0  0
    0.7379   -0.6580    2.7243 H   0  0  0  0  0  0  0  0  0  0  0  0
    1.1746    2.2108    1.8597 H   0  0  0  0  0  0  0  0  0  0  0  0
    0.4543    0.8824    0.9408 H   0  0  0  0  0  0  0  0  0  0  0  0
   -1.1119    2.7280    2.0820 H   0  0  0  0  0  0  0  0  0  0  0  0
   -1.5819    1.0251    2.2237 H   0  0  0  0  0  0  0  0  0  0  0  0
   -0.2293    2.8015    4.2606 H   0  0  0  0  0  0  0  0  0  0  0  0
   -1.5333    1.6519    4.5440 H   0  0  0  0  0  0  0  0  0  0  0  0
    0.0480   -0.0865    4.8277 H   0  0  0  0  0  0  0  0  0  0  0  0
    1.1842    1.2436    4.9963 H   0  0  0  0  0  0  0  0  0  0  0  0
    2.8383    0.8429    0.9180 H   0  0  0  0  0  0  0  0  0  0  0  0
    4.3071    0.5371    1.7957 H   0  0  0  0  0  0  0  0  0  0  0  0
    2.2630   -1.5599    0.9892 H   0  0  0  0  0  0  0  0  0  0  0  0
    4.3037   -1.7527   -3.2296 H   0  0  0  0  0  0  0  0  0  0  0  0
    4.9309   -1.9152    2.3931 H   0  0  0  0  0  0  0  0  0  0  0  0
    2.8256    1.3008    3.2795 H   0  0  0  0  0  0  0  0  0  0  0  0
  1  2  1  0
  2 22  1  0
  2  3  1  0
  2  4  1  0
  4  5  1  0
  4 24  1  0
  4 25  1  0
  5  6  1  0
  5 26  1  0
  5 27  1  0
  6  7  1  0
  6 28  1  0
  6 29  1  0
  7 22  1  0
  7  8  1  0
  7 30  1  6
  8  9  1  0
  8 31  1  0
  8 32  1  0
  9 10  1  0
  9 15  1  0
  9 47  1  1
 10 14  1  0
 10 11  1  0
 10 33  1  0
 11 12  1  0
 11 34  1  0
 11 35  1  0
 12 13  1  0
 12 36  1  0
 12 37  1  0
 13 14  1  0
 13 38  1  0
 13 39  1  0
 14 40  1  0
 14 41  1  0
 15 16  1  0
 15 42  1  0
 15 43  1  0
 16 22  1  0
 16 44  1  6
 16 17  1  0
 17 21  2  0
 17 18  1  0
 18 23  1  0
 18 19  1  0
 19 45  1  0
 19 20  2  0
 20 21  1  0
 22 46  1  1
M  CHG  1   9   1
M  END
>  <i_m_ct_stereo_status>  (185) 
1

>  <s_m_source_file>  (185) 
/var/tmp/pbs.5076255.sched01/tmpqm933_o1/456x1pmp19.sdf

>  <i_m_source_file_index>  (185) 
30

>  <i_lp_mmshare_version>  (185) 
48012

>  <i_f3d_flags>  (185) 
0

>  <s_epik_input>  (185) 
W0NIMl0xW0NIMl1bQ0gyXUMoRikoRilbQ0BIXShbQ0BASF0xMilbQ0BIXShjM25bY0hdW25IXW4zKVtDSDJdTihbQ0gyXTIpW0NIXTRbQ0gyXVtDSDJdW0NIMl1bQ0gyXTQ=

>  <s_epik_cmdline>  (185) 
J2VwaWtfcHl0aG9uJywgJy1waHQnLCAnMi4wJywgJy1waCcsICc3LjAnLCAnLXRuJywgJzgnLCAnLW1hJywgJzIwMCcsICctaW1hZScsICc8aW5maWxlLm1hZT4nLCAnLW9tYWUnLCAnPG91dGZpbGUubWFlPic=

>  <r_lp_tautomer_probability>  (185) 
0.0517155

>  <r_epik_Ionization_Penalty>  (185) 
0.258996

>  <r_epik_Ionization_Penalty_Charging>  (185) 
0.00738807

>  <r_epik_Ionization_Penalty_Neutral>  (185) 
0.251608

>  <r_epik_State_Penalty>  (185) 
1.90136

>  <r_epik_Charging_Adjusted_Penalty>  (185) 
1.90875

>  <i_epik_Tot_Q>  (185) 
1

>  <i_epik_Tot_abs_Q>  (185) 
1

>  <s_lp_Force_Field>  (185) 
OPLS3e

>  <r_lp_Energy>  (185) 
39.1364

>  <b_lp_Chiralities_Consistent>  (185) 
1

>  <s_lp_Variant>  (185) 
42:0-3

>  <s_i_glide_gridfile>  (185) 
pfpi4k_grid

>  <i_i_glide_lignum>  (185) 
30

>  <i_i_glide_rotatable_bonds>  (185) 
2

>  <r_i_docking_score>  (185) 
-3.5494

>  <r_i_glide_ligand_efficiency>  (185) 
-0.161336

>  <r_i_glide_ligand_efficiency_sa>  (185) 
-0.452071

>  <r_i_glide_ligand_efficiency_ln>  (185) 
-0.867602

>  <r_i_glide_gscore>  (185) 
-3.5494

>  <r_i_glide_lipo>  (185) 
-0.060518

>  <r_i_glide_hbond>  (185) 
-0.144223

>  <r_i_glide_metal>  (185) 
-0

>  <r_i_glide_rewards>  (185) 
-1.32653

>  <r_i_glide_evdw>  (185) 
-21.6507

>  <r_i_glide_ecoul>  (185) 
-6.91045

>  <r_i_glide_erotb>  (185) 
0.382498

>  <r_i_glide_esite>  (185) 
-0.281524

>  <r_i_glide_emodel>  (185) 
-38.376

>  <r_i_glide_energy>  (185) 
-28.5612

>  <r_i_glide_einternal>  (185) 
0.674134

>  <r_i_glide_intrahb_reward>  (185) 
-0

>  <i_i_glide_confnum>  (185) 
2

>  <i_i_glide_posenum>  (185) 
2

>  <r_i_glide_eff_state_penalty>  (185) 
0

>  <ligand_id>  (185) 
42

>  <original_smiles>  (185) 
FC1(F)CCCC2CN(C3CCCC3)CC(c3nc[nH]n3)C21

>  <smiles>  (185) 
[H]c1nnc(C2([H])C3([H])C(F)(F)C([H])([H])C([H])([H])C([H])([H])C3([H])C([H])([H])[N+]([H])(C3([H])C([H])([H])C([H])([H])C([H])([H])C3([H])[H])C2([H])[H])n1[H]

$$$$
42:2:2
     RDKit          3D

 47 50  0  0  1  0  0  0  0  0999 V2000
    6.3541   -7.0640    0.9017 F   0  0  0  0  0  0  0  0  0  0  0  0
    5.6273   -8.1163    1.2834 C   0  0  0  0  0  0  0  0  0  0  0  0
    5.0495   -8.6539    0.2010 F   0  0  0  0  0  0  0  0  0  0  0  0
    6.6159   -9.0996    1.9078 C   0  0  0  0  0  0  0  0  0  0  0  0
    5.9201  -10.3505    2.4450 C   0  0  0  0  0  0  0  0  0  0  0  0
    4.7955   -9.9753    3.4170 C   0  0  0  0  0  0  0  0  0  0  0  0
    3.7953   -8.9991    2.7810 C   0  0  1  0  0  0  0  0  0  0  0  0
    2.6881   -8.6344    3.7752 C   0  0  0  0  0  0  0  0  0  0  0  0
    1.7076   -7.6832    3.1929 N   0  0  2  0  0  0  0  0  0  0  0  0
    0.7341   -8.2992    2.2317 C   0  0  0  0  0  0  0  0  0  0  0  0
   -0.3560   -7.3046    1.7749 C   0  0  0  0  0  0  0  0  0  0  0  0
   -1.4584   -7.4562    2.8108 C   0  0  0  0  0  0  0  0  0  0  0  0
   -1.5166   -8.9500    3.0578 C   0  0  0  0  0  0  0  0  0  0  0  0
   -0.0829   -9.4605    2.8785 C   0  0  0  0  0  0  0  0  0  0  0  0
    2.3871   -6.4382    2.7266 C   0  0  0  0  0  0  0  0  0  0  0  0
    3.5012   -6.7111    1.6989 C   0  0  1  0  0  0  0  0  0  0  0  0
    4.1497   -5.4301    1.2688 C   0  0  0  0  0  0  0  0  0  0  0  0
    4.1787   -4.9928   -0.0024 N   0  0  0  0  0  0  0  0  0  0  0  0
    4.8859   -3.8603    0.0953 C   0  0  0  0  0  0  0  0  0  0  0  0
    5.2837   -3.5832    1.3365 N   0  0  0  0  0  0  0  0  0  0  0  0
    4.7900   -4.6109    2.1173 N   0  0  0  0  0  0  0  0  0  0  0  0
    4.5190   -7.7256    2.2781 C   0  0  2  0  0  0  0  0  0  0  0  0
    3.7962   -5.4135   -0.8419 H   0  0  0  0  0  0  0  0  0  0  0  0
    7.3671   -9.3697    1.1668 H   0  0  0  0  0  0  0  0  0  0  0  0
    7.1463   -8.6006    2.7231 H   0  0  0  0  0  0  0  0  0  0  0  0
    5.4932  -10.9141    1.6156 H   0  0  0  0  0  0  0  0  0  0  0  0
    6.6380  -11.0061    2.9389 H   0  0  0  0  0  0  0  0  0  0  0  0
    4.2760  -10.8843    3.7305 H   0  0  0  0  0  0  0  0  0  0  0  0
    5.2176   -9.5329    4.3204 H   0  0  0  0  0  0  0  0  0  0  0  0
    3.3440   -9.5141    1.9270 H   0  0  0  0  0  0  0  0  0  0  0  0
    2.2373   -9.5599    4.1228 H   0  0  0  0  0  0  0  0  0  0  0  0
    3.1300   -8.1674    4.6607 H   0  0  0  0  0  0  0  0  0  0  0  0
    1.2790   -8.6598    1.3579 H   0  0  0  0  0  0  0  0  0  0  0  0
   -0.0776   -6.2634    1.6566 H   0  0  0  0  0  0  0  0  0  0  0  0
   -0.7372   -7.6406    0.8038 H   0  0  0  0  0  0  0  0  0  0  0  0
   -1.1767   -6.9439    3.7302 H   0  0  0  0  0  0  0  0  0  0  0  0
   -2.4179   -7.0637    2.4827 H   0  0  0  0  0  0  0  0  0  0  0  0
   -1.8833   -9.1303    4.0667 H   0  0  0  0  0  0  0  0  0  0  0  0
   -2.1909   -9.4410    2.3504 H   0  0  0  0  0  0  0  0  0  0  0  0
   -0.0835  -10.3352    2.2229 H   0  0  0  0  0  0  0  0  0  0  0  0
    0.2666   -9.8011    3.8470 H   0  0  0  0  0  0  0  0  0  0  0  0
    1.7094   -5.6939    2.3234 H   0  0  0  0  0  0  0  0  0  0  0  0
    2.8339   -5.9679    3.6127 H   0  0  0  0  0  0  0  0  0  0  0  0
    3.0462   -7.1474    0.8082 H   0  0  0  0  0  0  0  0  0  0  0  0
    5.1277   -3.2294   -0.7487 H   0  0  0  0  0  0  0  0  0  0  0  0
    4.9936   -7.2523    3.1381 H   0  0  0  0  0  0  0  0  0  0  0  0
    1.1246   -7.4061    3.9692 H   0  0  0  0  0  0  0  0  0  0  0  0
  1  2  1  0
  2 22  1  0
  2  3  1  0
  2  4  1  0
  4  5  1  0
  4 24  1  0
  4 25  1  0
  5  6  1  0
  5 26  1  0
  5 27  1  0
  6  7  1  0
  6 28  1  0
  6 29  1  0
  7 22  1  0
  7  8  1  0
  7 30  1  6
  8  9  1  0
  8 31  1  0
  8 32  1  0
  9 10  1  0
  9 15  1  0
  9 47  1  1
 10 14  1  0
 10 11  1  0
 10 33  1  0
 11 12  1  0
 11 34  1  0
 11 35  1  0
 12 13  1  0
 12 36  1  0
 12 37  1  0
 13 14  1  0
 13 38  1  0
 13 39  1  0
 14 40  1  0
 14 41  1  0
 15 16  1  0
 15 42  1  0
 15 43  1  0
 16 22  1  0
 16 44  1  6
 16 17  1  0
 17 21  2  0
 17 18  1  0
 18 23  1  0
 18 19  1  0
 19 45  1  0
 19 20  2  0
 20 21  1  0
 22 46  1  1
M  CHG  1   9   1
M  END
>  <i_m_ct_stereo_status>  (186) 
1

>  <s_m_source_file>  (186) 
/var/tmp/pbs.5076255.sched01/tmpqm933_o1/456x1pmp19.sdf

>  <i_m_source_file_index>  (186) 
30

>  <i_lp_mmshare_version>  (186) 
48012

>  <i_f3d_flags>  (186) 
0

>  <s_epik_input>  (186) 
W0NIMl0xW0NIMl1bQ0gyXUMoRikoRilbQ0BIXShbQ0BASF0xMilbQ0BIXShjM25bY0hdW25IXW4zKVtDSDJdTihbQ0gyXTIpW0NIXTRbQ0gyXVtDSDJdW0NIMl1bQ0gyXTQ=

>  <s_epik_cmdline>  (186) 
J2VwaWtfcHl0aG9uJywgJy1waHQnLCAnMi4wJywgJy1waCcsICc3LjAnLCAnLXRuJywgJzgnLCAnLW1hJywgJzIwMCcsICctaW1hZScsICc8aW5maWxlLm1hZT4nLCAnLW9tYWUnLCAnPG91dGZpbGUubWFlPic=

>  <r_lp_tautomer_probability>  (186) 
0.0517155

>  <r_epik_Ionization_Penalty>  (186) 
0.258996

>  <r_epik_Ionization_Penalty_Charging>  (186) 
0.00738807

>  <r_epik_Ionization_Penalty_Neutral>  (186) 
0.251608

>  <r_epik_State_Penalty>  (186) 
1.90136

>  <r_epik_Charging_Adjusted_Penalty>  (186) 
1.90875

>  <i_epik_Tot_Q>  (186) 
1

>  <i_epik_Tot_abs_Q>  (186) 
1

>  <s_lp_Force_Field>  (186) 
OPLS3e

>  <r_lp_Energy>  (186) 
39.1364

>  <b_lp_Chiralities_Consistent>  (186) 
1

>  <s_lp_Variant>  (186) 
42:0-3

>  <s_i_glide_gridfile>  (186) 
pfpi4k_grid

>  <i_i_glide_lignum>  (186) 
30

>  <i_i_glide_rotatable_bonds>  (186) 
2

>  <r_i_docking_score>  (186) 
-3.49847

>  <r_i_glide_ligand_efficiency>  (186) 
-0.159021

>  <r_i_glide_ligand_efficiency_sa>  (186) 
-0.445584

>  <r_i_glide_ligand_efficiency_ln>  (186) 
-0.855154

>  <r_i_glide_gscore>  (186) 
-3.49847

>  <r_i_glide_lipo>  (186) 
-0.199908

>  <r_i_glide_hbond>  (186) 
-0.295648

>  <r_i_glide_metal>  (186) 
-0

>  <r_i_glide_rewards>  (186) 
-1.45763

>  <r_i_glide_evdw>  (186) 
-22.3282

>  <r_i_glide_ecoul>  (186) 
-5.10536

>  <r_i_glide_erotb>  (186) 
0.382498

>  <r_i_glide_esite>  (186) 
-0.0455639

>  <r_i_glide_emodel>  (186) 
-37.5916

>  <r_i_glide_energy>  (186) 
-27.4336

>  <r_i_glide_einternal>  (186) 
0.00470836

>  <r_i_glide_intrahb_reward>  (186) 
-0

>  <i_i_glide_confnum>  (186) 
4

>  <i_i_glide_posenum>  (186) 
24

>  <r_i_glide_eff_state_penalty>  (186) 
0

>  <ligand_id>  (186) 
42

>  <original_smiles>  (186) 
FC1(F)CCCC2CN(C3CCCC3)CC(c3nc[nH]n3)C21

>  <smiles>  (186) 
[H]c1nnc(C2([H])C3([H])C(F)(F)C([H])([H])C([H])([H])C([H])([H])C3([H])C([H])([H])[N+]([H])(C3([H])C([H])([H])C([H])([H])C([H])([H])C3([H])[H])C2([H])[H])n1[H]

$$$$
43:0:0
     RDKit          3D

 46 49  0  0  1  0  0  0  0  0999 V2000
    0.8510   -6.2704    3.3213 C   0  0  0  0  0  0  0  0  0  0  0  0
    1.4226   -5.9388    1.9419 C   0  0  0  0  0  0  0  0  0  0  0  0
    0.7203   -6.2601    0.9753 O   0  0  0  0  0  0  0  0  0  0  0  0
    2.6382   -5.3082    1.7988 N   0  0  0  0  0  0  0  0  0  0  0  0
    3.3208   -4.6567    2.9824 C   0  0  1  0  0  0  0  0  0  0  0  0
    3.7225   -5.6116    4.1495 C   0  0  0  0  0  0  0  0  0  0  0  0
    4.5189   -3.6959    2.6740 C   0  0  1  0  0  0  0  0  0  0  0  0
    5.7728   -4.4099    2.0912 C   0  0  0  0  0  0  0  0  0  0  0  0
    5.5317   -5.6838    1.2558 C   0  0  0  0  0  0  0  0  0  0  0  0
    4.5442   -5.5753    0.0857 C   0  0  0  0  0  0  0  0  0  0  0  0
    3.1185   -5.0318    0.4011 C   0  0  2  0  0  0  0  0  0  0  0  0
    2.8485   -3.5615   -0.0265 C   0  0  2  0  0  0  0  0  0  0  0  0
    2.9033   -3.1491   -1.5293 C   0  0  0  0  0  0  0  0  0  0  0  0
    3.5290   -1.7096   -1.5660 C   0  0  0  0  0  0  0  0  0  0  0  0
    3.6686   -1.3736   -0.1300 N   0  0  2  0  0  0  0  0  0  0  0  0
    4.7520   -0.5346    0.4479 C   0  0  0  0  0  0  0  0  0  0  0  0
    5.0009   -1.1656    1.8643 C   0  0  0  0  0  0  0  0  0  0  0  0
    4.0690   -2.4105    1.9301 C   0  0  1  0  0  0  0  0  0  0  0  0
    3.9290   -2.6605    0.4681 C   0  0  1  0  0  0  0  0  0  0  0  0
    0.9011   -5.4201    4.0041 H   0  0  0  0  0  0  0  0  0  0  0  0
    1.3960   -7.1120    3.7544 H   0  0  0  0  0  0  0  0  0  0  0  0
   -0.1971   -6.5776    3.2563 H   0  0  0  0  0  0  0  0  0  0  0  0
    2.5670   -3.9848    3.3962 H   0  0  0  0  0  0  0  0  0  0  0  0
    4.4661   -5.1394    4.8033 H   0  0  0  0  0  0  0  0  0  0  0  0
    4.1693   -6.5355    3.7837 H   0  0  0  0  0  0  0  0  0  0  0  0
    2.8805   -5.8802    4.7929 H   0  0  0  0  0  0  0  0  0  0  0  0
    4.8445   -3.3007    3.6370 H   0  0  0  0  0  0  0  0  0  0  0  0
    6.4101   -3.7133    1.5428 H   0  0  0  0  0  0  0  0  0  0  0  0
    6.3843   -4.7249    2.9365 H   0  0  0  0  0  0  0  0  0  0  0  0
    6.4929   -6.0126    0.8596 H   0  0  0  0  0  0  0  0  0  0  0  0
    5.2169   -6.5022    1.8993 H   0  0  0  0  0  0  0  0  0  0  0  0
    5.0031   -5.0156   -0.7317 H   0  0  0  0  0  0  0  0  0  0  0  0
    4.4361   -6.5835   -0.3178 H   0  0  0  0  0  0  0  0  0  0  0  0
    2.5220   -5.5845   -0.3270 H   0  0  0  0  0  0  0  0  0  0  0  0
    1.8848   -3.2288    0.3716 H   0  0  0  0  0  0  0  0  0  0  0  0
    3.5201   -3.8199   -2.1326 H   0  0  0  0  0  0  0  0  0  0  0  0
    1.8989   -3.1404   -1.9599 H   0  0  0  0  0  0  0  0  0  0  0  0
    4.5030   -1.7122   -2.0697 H   0  0  0  0  0  0  0  0  0  0  0  0
    2.8806   -0.9780   -2.0587 H   0  0  0  0  0  0  0  0  0  0  0  0
    5.6614   -0.6030   -0.1609 H   0  0  0  0  0  0  0  0  0  0  0  0
    4.4445    0.5146    0.4979 H   0  0  0  0  0  0  0  0  0  0  0  0
    6.0598   -1.4236    1.9670 H   0  0  0  0  0  0  0  0  0  0  0  0
    4.7513   -0.4567    2.6583 H   0  0  0  0  0  0  0  0  0  0  0  0
    3.1102   -2.0690    2.3341 H   0  0  0  0  0  0  0  0  0  0  0  0
    4.8949   -3.0025    0.0735 H   0  0  0  0  0  0  0  0  0  0  0  0
    2.7588   -1.0600    0.2028 H   0  0  0  0  0  0  0  0  0  0  0  0
  1  2  1  0
  1 20  1  0
  1 21  1  0
  1 22  1  0
  2  3  2  0
  2  4  1  0
  4 11  1  0
  4  5  1  0
  5  6  1  0
  5  7  1  0
  5 23  1  1
  6 24  1  0
  6 25  1  0
  6 26  1  0
  7 18  1  0
  7  8  1  0
  7 27  1  1
  8  9  1  0
  8 28  1  0
  8 29  1  0
  9 10  1  0
  9 30  1  0
  9 31  1  0
 10 11  1  0
 10 32  1  0
 10 33  1  0
 11 12  1  0
 11 34  1  6
 12 19  1  0
 12 13  1  0
 12 35  1  1
 13 14  1  0
 13 36  1  0
 13 37  1  0
 14 15  1  0
 14 38  1  0
 14 39  1  0
 15 19  1  0
 15 16  1  0
 15 46  1  1
 16 17  1  0
 16 40  1  0
 16 41  1  0
 17 18  1  0
 17 42  1  0
 17 43  1  0
 18 19  1  0
 18 44  1  1
 19 45  1  6
M  CHG  1  15   1
M  END
>  <i_m_ct_stereo_status>  (187) 
1

>  <s_m_source_file>  (187) 
/var/tmp/pbs.5076255.sched01/tmpqm933_o1/456x1pmp19.sdf

>  <i_m_source_file_index>  (187) 
31

>  <i_lp_mmshare_version>  (187) 
48012

>  <i_f3d_flags>  (187) 
0

>  <s_epik_input>  (187) 
W0NIM11DKD1PKU4oW0NASF0xW0NIM10pW0NASF0oW0NIMl1bQ0gyXVtDSDJdMilbQ0BASF0oW0NAQEhdM1tDQEhdNFtDQEBIXTEyKVtDSDJdW0NIMl1OM1tDSDJdW0NIMl00

>  <s_epik_cmdline>  (187) 
J2VwaWtfcHl0aG9uJywgJy1waHQnLCAnMi4wJywgJy1waCcsICc3LjAnLCAnLXRuJywgJzgnLCAnLW1hJywgJzIwMCcsICctaW1hZScsICc8aW5maWxlLm1hZT4nLCAnLW9tYWUnLCAnPG91dGZpbGUubWFlPic=

>  <r_lp_tautomer_probability>  (187) 
1

>  <r_epik_Ionization_Penalty>  (187) 
0.000294985

>  <r_epik_Ionization_Penalty_Charging>  (187) 
0.000294423

>  <r_epik_Ionization_Penalty_Neutral>  (187) 
5.61843e-07

>  <r_epik_State_Penalty>  (187) 
-0

>  <r_epik_Charging_Adjusted_Penalty>  (187) 
0.000294423

>  <i_epik_Tot_Q>  (187) 
1

>  <i_epik_Tot_abs_Q>  (187) 
1

>  <s_lp_Force_Field>  (187) 
OPLS3e

>  <r_lp_Energy>  (187) 
55.8208

>  <b_lp_Chiralities_Consistent>  (187) 
1

>  <s_lp_Variant>  (187) 
43:0-1

>  <s_i_glide_gridfile>  (187) 
pfpi4k_grid

>  <i_i_glide_lignum>  (187) 
31

>  <i_i_glide_rotatable_bonds>  (187) 
1

>  <r_i_docking_score>  (187) 
-4.47155

>  <r_i_glide_ligand_efficiency>  (187) 
-0.235345

>  <r_i_glide_ligand_efficiency_sa>  (187) 
-0.627994

>  <r_i_glide_ligand_efficiency_ln>  (187) 
-1.13363

>  <r_i_glide_gscore>  (187) 
-4.47155

>  <r_i_glide_lipo>  (187) 
-0.432406

>  <r_i_glide_hbond>  (187) 
-0.212349

>  <r_i_glide_metal>  (187) 
-0

>  <r_i_glide_rewards>  (187) 
-1.61319

>  <r_i_glide_evdw>  (187) 
-19.8688

>  <r_i_glide_ecoul>  (187) 
-7.11436

>  <r_i_glide_erotb>  (187) 
0

>  <r_i_glide_esite>  (187) 
-0.153004

>  <r_i_glide_emodel>  (187) 
-34.8859

>  <r_i_glide_energy>  (187) 
-26.9832

>  <r_i_glide_einternal>  (187) 
0.797362

>  <r_i_glide_intrahb_reward>  (187) 
-0

>  <i_i_glide_confnum>  (187) 
1

>  <i_i_glide_posenum>  (187) 
24

>  <r_i_glide_eff_state_penalty>  (187) 
0

>  <ligand_id>  (187) 
43

>  <original_smiles>  (187) 
CC(=O)N1C(C)C2CCCC1C1CCN3CCC2C13

>  <smiles>  (187) 
[H]C([H])([H])C(=O)N1C([H])(C([H])([H])[H])C2([H])C([H])([H])C([H])([H])C([H])([H])C1([H])C1([H])C([H])([H])C([H])([H])[N+]3([H])C([H])([H])C([H])([H])C2([H])C13[H]

$$$$
43:0:1
     RDKit          3D

 46 49  0  0  1  0  0  0  0  0999 V2000
    2.0684   -3.4571    3.7014 C   0  0  0  0  0  0  0  0  0  0  0  0
    2.9799   -2.3021    3.2743 C   0  0  0  0  0  0  0  0  0  0  0  0
    2.9432   -1.2980    3.9819 O   0  0  0  0  0  0  0  0  0  0  0  0
    3.7792   -2.4016    2.1659 N   0  0  0  0  0  0  0  0  0  0  0  0
    4.6632   -1.2307    1.8191 C   0  0  1  0  0  0  0  0  0  0  0  0
    5.6749   -0.8871    2.9342 C   0  0  0  0  0  0  0  0  0  0  0  0
    5.3772   -1.2332    0.4249 C   0  0  1  0  0  0  0  0  0  0  0  0
    6.4220   -2.3739    0.2351 C   0  0  0  0  0  0  0  0  0  0  0  0
    6.1940   -3.6804    1.0228 C   0  0  0  0  0  0  0  0  0  0  0  0
    4.8257   -4.3631    0.8827 C   0  0  0  0  0  0  0  0  0  0  0  0
    3.5650   -3.5051    1.1760 C   0  0  2  0  0  0  0  0  0  0  0  0
    2.7839   -2.9850   -0.0464 C   0  0  2  0  0  0  0  0  0  0  0  0
    2.0858   -3.9721   -1.0114 C   0  0  0  0  0  0  0  0  0  0  0  0
    2.2445   -3.3776   -2.4507 C   0  0  0  0  0  0  0  0  0  0  0  0
    2.8924   -2.0935   -2.2018 N   0  0  2  0  0  0  0  0  0  0  0  0
    3.8322   -1.4447   -3.1289 C   0  0  0  0  0  0  0  0  0  0  0  0
    4.7810   -0.6816   -2.1605 C   0  0  0  0  0  0  0  0  0  0  0  0
    4.3481   -1.0612   -0.7190 C   0  0  1  0  0  0  0  0  0  0  0  0
    3.6952   -2.3503   -1.0383 C   0  0  1  0  0  0  0  0  0  0  0  0
    2.6010   -4.4079    3.7243 H   0  0  0  0  0  0  0  0  0  0  0  0
    1.2100   -3.5277    3.0333 H   0  0  0  0  0  0  0  0  0  0  0  0
    1.6853   -3.2833    4.7078 H   0  0  0  0  0  0  0  0  0  0  0  0
    4.0014   -0.3615    1.7852 H   0  0  0  0  0  0  0  0  0  0  0  0
    6.4587   -0.2236    2.5847 H   0  0  0  0  0  0  0  0  0  0  0  0
    6.1708   -1.7778    3.2993 H   0  0  0  0  0  0  0  0  0  0  0  0
    5.2144   -0.3896    3.7878 H   0  0  0  0  0  0  0  0  0  0  0  0
    5.9544   -0.3073    0.3801 H   0  0  0  0  0  0  0  0  0  0  0  0
    6.5650   -2.6022   -0.8213 H   0  0  0  0  0  0  0  0  0  0  0  0
    7.3893   -1.9906    0.5621 H   0  0  0  0  0  0  0  0  0  0  0  0
    6.9570   -4.3984    0.7175 H   0  0  0  0  0  0  0  0  0  0  0  0
    6.3913   -3.5169    2.0792 H   0  0  0  0  0  0  0  0  0  0  0  0
    4.7462   -4.8394   -0.0954 H   0  0  0  0  0  0  0  0  0  0  0  0
    4.8241   -5.1985    1.5834 H   0  0  0  0  0  0  0  0  0  0  0  0
    2.8715   -4.2520    1.5521 H   0  0  0  0  0  0  0  0  0  0  0  0
    2.0541   -2.2596    0.3191 H   0  0  0  0  0  0  0  0  0  0  0  0
    2.5377   -4.9524   -0.8959 H   0  0  0  0  0  0  0  0  0  0  0  0
    1.0327   -4.1142   -0.7866 H   0  0  0  0  0  0  0  0  0  0  0  0
    2.8805   -3.9769   -3.1003 H   0  0  0  0  0  0  0  0  0  0  0  0
    1.2905   -3.2231   -2.9519 H   0  0  0  0  0  0  0  0  0  0  0  0
    4.3941   -2.1784   -3.7088 H   0  0  0  0  0  0  0  0  0  0  0  0
    3.3186   -0.7752   -3.8226 H   0  0  0  0  0  0  0  0  0  0  0  0
    5.8162   -0.9820   -2.3232 H   0  0  0  0  0  0  0  0  0  0  0  0
    4.6881    0.3901   -2.3420 H   0  0  0  0  0  0  0  0  0  0  0  0
    3.5936   -0.3450   -0.3841 H   0  0  0  0  0  0  0  0  0  0  0  0
    4.4548   -3.0744   -1.3482 H   0  0  0  0  0  0  0  0  0  0  0  0
    2.1594   -1.4476   -1.9032 H   0  0  0  0  0  0  0  0  0  0  0  0
  1  2  1  0
  1 20  1  0
  1 21  1  0
  1 22  1  0
  2  3  2  0
  2  4  1  0
  4 11  1  0
  4  5  1  0
  5  6  1  0
  5  7  1  0
  5 23  1  6
  6 24  1  0
  6 25  1  0
  6 26  1  0
  7 18  1  0
  7  8  1  0
  7 27  1  1
  8  9  1  0
  8 28  1  0
  8 29  1  0
  9 10  1  0
  9 30  1  0
  9 31  1  0
 10 11  1  0
 10 32  1  0
 10 33  1  0
 11 12  1  0
 11 34  1  1
 12 19  1  0
 12 13  1  0
 12 35  1  1
 13 14  1  0
 13 36  1  0
 13 37  1  0
 14 15  1  0
 14 38  1  0
 14 39  1  0
 15 19  1  0
 15 16  1  0
 15 46  1  1
 16 17  1  0
 16 40  1  0
 16 41  1  0
 17 18  1  0
 17 42  1  0
 17 43  1  0
 18 19  1  0
 18 44  1  1
 19 45  1  6
M  CHG  1  15   1
M  END
>  <i_m_ct_stereo_status>  (188) 
1

>  <s_m_source_file>  (188) 
/var/tmp/pbs.5076255.sched01/tmpqm933_o1/456x1pmp19.sdf

>  <i_m_source_file_index>  (188) 
31

>  <i_lp_mmshare_version>  (188) 
48012

>  <i_f3d_flags>  (188) 
0

>  <s_epik_input>  (188) 
W0NIM11DKD1PKU4oW0NASF0xW0NIM10pW0NASF0oW0NIMl1bQ0gyXVtDSDJdMilbQ0BASF0oW0NAQEhdM1tDQEhdNFtDQEBIXTEyKVtDSDJdW0NIMl1OM1tDSDJdW0NIMl00

>  <s_epik_cmdline>  (188) 
J2VwaWtfcHl0aG9uJywgJy1waHQnLCAnMi4wJywgJy1waCcsICc3LjAnLCAnLXRuJywgJzgnLCAnLW1hJywgJzIwMCcsICctaW1hZScsICc8aW5maWxlLm1hZT4nLCAnLW9tYWUnLCAnPG91dGZpbGUubWFlPic=

>  <r_lp_tautomer_probability>  (188) 
1

>  <r_epik_Ionization_Penalty>  (188) 
0.000294985

>  <r_epik_Ionization_Penalty_Charging>  (188) 
0.000294423

>  <r_epik_Ionization_Penalty_Neutral>  (188) 
5.61843e-07

>  <r_epik_State_Penalty>  (188) 
-0

>  <r_epik_Charging_Adjusted_Penalty>  (188) 
0.000294423

>  <i_epik_Tot_Q>  (188) 
1

>  <i_epik_Tot_abs_Q>  (188) 
1

>  <s_lp_Force_Field>  (188) 
OPLS3e

>  <r_lp_Energy>  (188) 
55.8208

>  <b_lp_Chiralities_Consistent>  (188) 
1

>  <s_lp_Variant>  (188) 
43:0-1

>  <s_i_glide_gridfile>  (188) 
pfpi4k_grid

>  <i_i_glide_lignum>  (188) 
31

>  <i_i_glide_rotatable_bonds>  (188) 
1

>  <r_i_docking_score>  (188) 
-4.07514

>  <r_i_glide_ligand_efficiency>  (188) 
-0.214481

>  <r_i_glide_ligand_efficiency_sa>  (188) 
-0.572322

>  <r_i_glide_ligand_efficiency_ln>  (188) 
-1.03314

>  <r_i_glide_gscore>  (188) 
-4.07514

>  <r_i_glide_lipo>  (188) 
-0.70706

>  <r_i_glide_hbond>  (188) 
-0.2

>  <r_i_glide_metal>  (188) 
-0

>  <r_i_glide_rewards>  (188) 
-1.61319

>  <r_i_glide_evdw>  (188) 
-13.0722

>  <r_i_glide_ecoul>  (188) 
-5.55239

>  <r_i_glide_erotb>  (188) 
0

>  <r_i_glide_esite>  (188) 
-0.068421

>  <r_i_glide_emodel>  (188) 
-26.3548

>  <r_i_glide_energy>  (188) 
-18.6246

>  <r_i_glide_einternal>  (188) 
0.00298028

>  <r_i_glide_intrahb_reward>  (188) 
-0

>  <i_i_glide_confnum>  (188) 
1

>  <i_i_glide_posenum>  (188) 
11

>  <r_i_glide_eff_state_penalty>  (188) 
0

>  <ligand_id>  (188) 
43

>  <original_smiles>  (188) 
CC(=O)N1C(C)C2CCCC1C1CCN3CCC2C13

>  <smiles>  (188) 
[H]C([H])([H])C(=O)N1C([H])(C([H])([H])[H])C2([H])C([H])([H])C([H])([H])C([H])([H])C1([H])C1([H])C([H])([H])C([H])([H])[N+]3([H])C([H])([H])C([H])([H])C2([H])C13[H]

$$$$
43:0:2
     RDKit          3D

 46 49  0  0  1  0  0  0  0  0999 V2000
    0.8752   -7.0568    1.1824 C   0  0  0  0  0  0  0  0  0  0  0  0
    1.4071   -6.0500    2.2052 C   0  0  0  0  0  0  0  0  0  0  0  0
    0.7107   -5.8654    3.2034 O   0  0  0  0  0  0  0  0  0  0  0  0
    2.5893   -5.3991    2.0001 N   0  0  0  0  0  0  0  0  0  0  0  0
    3.1800   -4.6385    3.1552 C   0  0  1  0  0  0  0  0  0  0  0  0
    3.4885   -5.5435    4.3799 C   0  0  0  0  0  0  0  0  0  0  0  0
    4.3776   -3.6804    2.8576 C   0  0  1  0  0  0  0  0  0  0  0  0
    5.6628   -4.4026    2.3631 C   0  0  0  0  0  0  0  0  0  0  0  0
    5.4874   -5.7277    1.5947 C   0  0  0  0  0  0  0  0  0  0  0  0
    4.5440   -5.7209    0.3824 C   0  0  0  0  0  0  0  0  0  0  0  0
    3.0996   -5.1962    0.6066 C   0  0  2  0  0  0  0  0  0  0  0  0
    2.7995   -3.7584    0.1021 C   0  0  2  0  0  0  0  0  0  0  0  0
    2.8768   -3.4271   -1.4136 C   0  0  0  0  0  0  0  0  0  0  0  0
    3.4565   -1.9786   -1.5113 C   0  0  0  0  0  0  0  0  0  0  0  0
    3.5588   -1.5580   -0.1027 N   0  0  2  0  0  0  0  0  0  0  0  0
    4.5943   -0.6576    0.4464 C   0  0  0  0  0  0  0  0  0  0  0  0
    4.8226   -1.1915    1.9015 C   0  0  0  0  0  0  0  0  0  0  0  0
    3.9269   -2.4539    2.0217 C   0  0  1  0  0  0  0  0  0  0  0  0
    3.8276   -2.7970    0.5802 C   0  0  1  0  0  0  0  0  0  0  0  0
    1.6549   -7.7554    0.8812 H   0  0  0  0  0  0  0  0  0  0  0  0
    0.4769   -6.5621    0.2978 H   0  0  0  0  0  0  0  0  0  0  0  0
    0.0655   -7.6510    1.6107 H   0  0  0  0  0  0  0  0  0  0  0  0
    2.3888   -3.9728    3.5090 H   0  0  0  0  0  0  0  0  0  0  0  0
    4.1110   -5.0295    5.1128 H   0  0  0  0  0  0  0  0  0  0  0  0
    4.0027   -6.4638    4.1119 H   0  0  0  0  0  0  0  0  0  0  0  0
    2.5795   -5.8334    4.9068 H   0  0  0  0  0  0  0  0  0  0  0  0
    4.6531   -3.2339    3.8144 H   0  0  0  0  0  0  0  0  0  0  0  0
    6.3008   -3.7204    1.8006 H   0  0  0  0  0  0  0  0  0  0  0  0
    6.2460   -4.6585    3.2465 H   0  0  0  0  0  0  0  0  0  0  0  0
    6.4730   -6.0463    1.2509 H   0  0  0  0  0  0  0  0  0  0  0  0
    5.1762   -6.5141    2.2797 H   0  0  0  0  0  0  0  0  0  0  0  0
    5.0149   -5.1978   -0.4506 H   0  0  0  0  0  0  0  0  0  0  0  0
    4.4753   -6.7531    0.0385 H   0  0  0  0  0  0  0  0  0  0  0  0
    2.5311   -5.7924   -0.1022 H   0  0  0  0  0  0  0  0  0  0  0  0
    1.8197   -3.4387    0.4604 H   0  0  0  0  0  0  0  0  0  0  0  0
    3.5439   -4.1102   -1.9369 H   0  0  0  0  0  0  0  0  0  0  0  0
    1.8886   -3.5022   -1.8746 H   0  0  0  0  0  0  0  0  0  0  0  0
    4.4362   -1.9943   -1.9926 H   0  0  0  0  0  0  0  0  0  0  0  0
    2.8074   -1.3084   -2.0802 H   0  0  0  0  0  0  0  0  0  0  0  0
    5.5190   -0.7323   -0.1307 H   0  0  0  0  0  0  0  0  0  0  0  0
    4.2682    0.3836    0.4338 H   0  0  0  0  0  0  0  0  0  0  0  0
    5.8784   -1.4165    2.0621 H   0  0  0  0  0  0  0  0  0  0  0  0
    4.5303   -0.4505    2.6484 H   0  0  0  0  0  0  0  0  0  0  0  0
    2.9477   -2.1209    2.3756 H   0  0  0  0  0  0  0  0  0  0  0  0
    4.8090   -3.1251    0.2307 H   0  0  0  0  0  0  0  0  0  0  0  0
    2.6385   -1.2312    0.1757 H   0  0  0  0  0  0  0  0  0  0  0  0
  1  2  1  0
  1 20  1  0
  1 21  1  0
  1 22  1  0
  2  3  2  0
  2  4  1  0
  4 11  1  0
  4  5  1  0
  5  6  1  0
  5  7  1  0
  5 23  1  1
  6 24  1  0
  6 25  1  0
  6 26  1  0
  7 18  1  0
  7  8  1  0
  7 27  1  1
  8  9  1  0
  8 28  1  0
  8 29  1  0
  9 10  1  0
  9 30  1  0
  9 31  1  0
 10 11  1  0
 10 32  1  0
 10 33  1  0
 11 12  1  0
 11 34  1  6
 12 19  1  0
 12 13  1  0
 12 35  1  1
 13 14  1  0
 13 36  1  0
 13 37  1  0
 14 15  1  0
 14 38  1  0
 14 39  1  0
 15 19  1  0
 15 16  1  0
 15 46  1  1
 16 17  1  0
 16 40  1  0
 16 41  1  0
 17 18  1  0
 17 42  1  0
 17 43  1  0
 18 19  1  0
 18 44  1  1
 19 45  1  6
M  CHG  1  15   1
M  END
>  <i_m_ct_stereo_status>  (189) 
1

>  <s_m_source_file>  (189) 
/var/tmp/pbs.5076255.sched01/tmpqm933_o1/456x1pmp19.sdf

>  <i_m_source_file_index>  (189) 
31

>  <i_lp_mmshare_version>  (189) 
48012

>  <i_f3d_flags>  (189) 
0

>  <s_epik_input>  (189) 
W0NIM11DKD1PKU4oW0NASF0xW0NIM10pW0NASF0oW0NIMl1bQ0gyXVtDSDJdMilbQ0BASF0oW0NAQEhdM1tDQEhdNFtDQEBIXTEyKVtDSDJdW0NIMl1OM1tDSDJdW0NIMl00

>  <s_epik_cmdline>  (189) 
J2VwaWtfcHl0aG9uJywgJy1waHQnLCAnMi4wJywgJy1waCcsICc3LjAnLCAnLXRuJywgJzgnLCAnLW1hJywgJzIwMCcsICctaW1hZScsICc8aW5maWxlLm1hZT4nLCAnLW9tYWUnLCAnPG91dGZpbGUubWFlPic=

>  <r_lp_tautomer_probability>  (189) 
1

>  <r_epik_Ionization_Penalty>  (189) 
0.000294985

>  <r_epik_Ionization_Penalty_Charging>  (189) 
0.000294423

>  <r_epik_Ionization_Penalty_Neutral>  (189) 
5.61843e-07

>  <r_epik_State_Penalty>  (189) 
-0

>  <r_epik_Charging_Adjusted_Penalty>  (189) 
0.000294423

>  <i_epik_Tot_Q>  (189) 
1

>  <i_epik_Tot_abs_Q>  (189) 
1

>  <s_lp_Force_Field>  (189) 
OPLS3e

>  <r_lp_Energy>  (189) 
55.8208

>  <b_lp_Chiralities_Consistent>  (189) 
1

>  <s_lp_Variant>  (189) 
43:0-1

>  <s_i_glide_gridfile>  (189) 
pfpi4k_grid

>  <i_i_glide_lignum>  (189) 
31

>  <i_i_glide_rotatable_bonds>  (189) 
1

>  <r_i_docking_score>  (189) 
-3.8901

>  <r_i_glide_ligand_efficiency>  (189) 
-0.204742

>  <r_i_glide_ligand_efficiency_sa>  (189) 
-0.546334

>  <r_i_glide_ligand_efficiency_ln>  (189) 
-0.986223

>  <r_i_glide_gscore>  (189) 
-3.8901

>  <r_i_glide_lipo>  (189) 
-0.478198

>  <r_i_glide_hbond>  (189) 
-0.10352

>  <r_i_glide_metal>  (189) 
-0

>  <r_i_glide_rewards>  (189) 
-1.61319

>  <r_i_glide_evdw>  (189) 
-19.6642

>  <r_i_glide_ecoul>  (189) 
-3.81428

>  <r_i_glide_erotb>  (189) 
0

>  <r_i_glide_esite>  (189) 
-0.139833

>  <r_i_glide_emodel>  (189) 
-30.5102

>  <r_i_glide_energy>  (189) 
-23.4785

>  <r_i_glide_einternal>  (189) 
0.728407

>  <r_i_glide_intrahb_reward>  (189) 
-0

>  <i_i_glide_confnum>  (189) 
2

>  <i_i_glide_posenum>  (189) 
38

>  <r_i_glide_eff_state_penalty>  (189) 
0

>  <ligand_id>  (189) 
43

>  <original_smiles>  (189) 
CC(=O)N1C(C)C2CCCC1C1CCN3CCC2C13

>  <smiles>  (189) 
[H]C([H])([H])C(=O)N1C([H])(C([H])([H])[H])C2([H])C([H])([H])C([H])([H])C([H])([H])C1([H])C1([H])C([H])([H])C([H])([H])[N+]3([H])C([H])([H])C([H])([H])C2([H])C13[H]

$$$$
45:0:0
     RDKit          3D

 46 50  0  0  1  0  0  0  0  0999 V2000
   -2.0758   -8.9574    2.1379 C   0  0  0  0  0  0  0  0  0  0  0  0
   -1.1487   -8.4611    3.2469 C   0  0  2  0  0  0  0  0  0  0  0  0
   -0.6862   -7.0105    3.0043 C   0  0  0  0  0  0  0  0  0  0  0  0
    0.8165   -7.0112    3.2654 C   0  0  2  0  0  0  0  0  0  0  0  0
    1.4882   -5.9650    2.5707 O   0  0  0  0  0  0  0  0  0  0  0  0
    2.8085   -6.2031    2.2435 C   0  0  0  0  0  0  0  0  0  0  0  0
    3.6114   -5.2234    1.6072 C   0  0  0  0  0  0  0  0  0  0  0  0
    3.1004   -3.9727    1.4281 O   0  0  0  0  0  0  0  0  0  0  0  0
    4.9213   -5.5124    1.1489 C   0  0  0  0  0  0  0  0  0  0  0  0
    5.4639   -6.8132    1.2621 C   0  0  0  0  0  0  0  0  0  0  0  0
    4.6898   -7.8002    1.8887 C   0  0  0  0  0  0  0  0  0  0  0  0
    3.4449   -7.4523    2.4095 C   0  0  0  0  0  0  0  0  0  0  0  0
    2.7672   -8.6021    3.1231 C   0  0  2  0  0  0  0  0  0  0  0  0
    3.1762   -8.6789    4.6195 C   0  0  0  0  0  0  0  0  0  0  0  0
    3.4185  -10.1653    4.9211 C   0  0  0  0  0  0  0  0  0  0  0  0
    3.6264  -10.8452    3.6205 N   0  0  1  0  0  0  0  0  0  0  0  0
    2.7727  -12.0366    3.4399 C   0  0  0  0  0  0  0  0  0  0  0  0
    3.4922   -9.8261    2.5510 C   0  0  2  0  0  0  0  0  0  0  0  0
    4.8762   -9.2869    2.1038 C   0  0  0  0  0  0  0  0  0  0  0  0
    1.2500   -8.4205    2.8376 C   0  0  1  0  0  0  0  0  0  0  0  0
    0.1289   -9.3330    3.3743 C   0  0  1  0  0  0  0  0  0  0  0  0
    0.2655   -9.6763    4.7355 O   0  0  0  0  0  0  0  0  0  0  0  0
   -1.5690   -9.0014    1.1789 H   0  0  0  0  0  0  0  0  0  0  0  0
   -2.9595   -8.3315    2.0468 H   0  0  0  0  0  0  0  0  0  0  0  0
   -2.4112   -9.9580    2.3627 H   0  0  0  0  0  0  0  0  0  0  0  0
   -1.7158   -8.4877    4.1795 H   0  0  0  0  0  0  0  0  0  0  0  0
   -0.8777   -6.7178    1.9697 H   0  0  0  0  0  0  0  0  0  0  0  0
   -1.1951   -6.3044    3.6622 H   0  0  0  0  0  0  0  0  0  0  0  0
    0.9728   -6.8737    4.3358 H   0  0  0  0  0  0  0  0  0  0  0  0
    3.6734   -3.3855    0.9605 H   0  0  0  0  0  0  0  0  0  0  0  0
    5.5048   -4.7410    0.6758 H   0  0  0  0  0  0  0  0  0  0  0  0
    6.4446   -7.0456    0.8671 H   0  0  0  0  0  0  0  0  0  0  0  0
    4.1252   -8.1558    4.7637 H   0  0  0  0  0  0  0  0  0  0  0  0
    2.4607   -8.2309    5.3095 H   0  0  0  0  0  0  0  0  0  0  0  0
    4.2954  -10.3009    5.5561 H   0  0  0  0  0  0  0  0  0  0  0  0
    2.5837  -10.5992    5.4703 H   0  0  0  0  0  0  0  0  0  0  0  0
    1.7148  -11.7804    3.4470 H   0  0  0  0  0  0  0  0  0  0  0  0
    2.9609  -12.7327    4.2585 H   0  0  0  0  0  0  0  0  0  0  0  0
    3.0028  -12.5419    2.4994 H   0  0  0  0  0  0  0  0  0  0  0  0
    2.9650  -10.2177    1.6816 H   0  0  0  0  0  0  0  0  0  0  0  0
    5.2144   -9.7827    1.1954 H   0  0  0  0  0  0  0  0  0  0  0  0
    5.6416   -9.4212    2.8694 H   0  0  0  0  0  0  0  0  0  0  0  0
    1.1492   -8.4706    1.7506 H   0  0  0  0  0  0  0  0  0  0  0  0
    0.0610  -10.2545    2.7940 H   0  0  0  0  0  0  0  0  0  0  0  0
   -0.4731  -10.2351    4.9687 H   0  0  0  0  0  0  0  0  0  0  0  0
    4.5774  -11.1900    3.5964 H   0  0  0  0  0  0  0  0  0  0  0  0
  1  2  1  0
  1 23  1  0
  1 24  1  0
  1 25  1  0
  2 21  1  0
  2  3  1  0
  2 26  1  1
  3  4  1  0
  3 27  1  0
  3 28  1  0
  4 20  1  0
  4  5  1  0
  4 29  1  1
  5  6  1  0
  6 12  2  0
  6  7  1  0
  7  8  1  0
  7  9  2  0
  8 30  1  0
  9 10  1  0
  9 31  1  0
 10 11  2  0
 10 32  1  0
 11 19  1  0
 11 12  1  0
 12 13  1  0
 13 18  1  0
 13 14  1  1
 13 20  1  0
 14 15  1  0
 14 33  1  0
 14 34  1  0
 15 16  1  0
 15 35  1  0
 15 36  1  0
 16 17  1  0
 16 18  1  0
 16 46  1  1
 17 37  1  0
 17 38  1  0
 17 39  1  0
 18 19  1  0
 18 40  1  6
 19 41  1  0
 19 42  1  0
 20 21  1  0
 20 43  1  6
 21 22  1  0
 21 44  1  6
 22 45  1  0
M  CHG  1  16   1
M  END
>  <i_m_ct_stereo_status>  (190) 
1

>  <s_m_source_file>  (190) 
/var/tmp/pbs.5076255.sched01/tmpqm933_o1/456x1pmp19.sdf

>  <i_m_source_file_index>  (190) 
33

>  <i_lp_mmshare_version>  (190) 
48012

>  <i_f3d_flags>  (190) 
0

>  <s_epik_input>  (190) 
W0NIM11bQ0BIXShbQ0gyXTEpW0NASF0oW09IXSlbQ0BIXTJbQ0BIXTFPYyhjM1tDQF0yNDUpYyhbT0hdKVtjSF1bY0hdYzNbQ0gyXVtDQEhdNU4oW0NIM10pW0NIMl1bQ0gyXTQ=

>  <s_epik_cmdline>  (190) 
J2VwaWtfcHl0aG9uJywgJy1waHQnLCAnMi4wJywgJy1waCcsICc3LjAnLCAnLXRuJywgJzgnLCAnLW1hJywgJzIwMCcsICctaW1hZScsICc8aW5maWxlLm1hZT4nLCAnLW9tYWUnLCAnPG91dGZpbGUubWFlPic=

>  <r_lp_tautomer_probability>  (190) 
1

>  <r_epik_Ionization_Penalty>  (190) 
0.0112918

>  <r_epik_Ionization_Penalty_Charging>  (190) 
0.00815348

>  <r_epik_Ionization_Penalty_Neutral>  (190) 
0.00313835

>  <r_epik_State_Penalty>  (190) 
0.00612954

>  <r_epik_Charging_Adjusted_Penalty>  (190) 
0.014283

>  <i_epik_Tot_Q>  (190) 
1

>  <i_epik_Tot_abs_Q>  (190) 
1

>  <s_lp_Force_Field>  (190) 
OPLS3e

>  <r_lp_Energy>  (190) 
54.2616

>  <b_lp_Chiralities_Consistent>  (190) 
1

>  <s_lp_Variant>  (190) 
45:0-1

>  <s_i_glide_gridfile>  (190) 
pfpi4k_grid

>  <i_i_glide_lignum>  (190) 
33

>  <i_i_glide_rotatable_bonds>  (190) 
2

>  <r_i_docking_score>  (190) 
-3.63664

>  <r_i_glide_ligand_efficiency>  (190) 
-0.165302

>  <r_i_glide_ligand_efficiency_sa>  (190) 
-0.463182

>  <r_i_glide_ligand_efficiency_ln>  (190) 
-0.888928

>  <r_i_glide_gscore>  (190) 
-3.63664

>  <r_i_glide_lipo>  (190) 
-0.365881

>  <r_i_glide_hbond>  (190) 
-0.16

>  <r_i_glide_metal>  (190) 
-0

>  <r_i_glide_rewards>  (190) 
-1.34735

>  <r_i_glide_evdw>  (190) 
-17.7673

>  <r_i_glide_ecoul>  (190) 
-5.67533

>  <r_i_glide_erotb>  (190) 
0

>  <r_i_glide_esite>  (190) 
-0.0237403

>  <r_i_glide_emodel>  (190) 
-31.5615

>  <r_i_glide_energy>  (190) 
-23.4427

>  <r_i_glide_einternal>  (190) 
0.328416

>  <r_i_glide_intrahb_reward>  (190) 
-0

>  <i_i_glide_confnum>  (190) 
1

>  <i_i_glide_posenum>  (190) 
38

>  <r_i_glide_eff_state_penalty>  (190) 
0

>  <ligand_id>  (190) 
45

>  <original_smiles>  (190) 
CC1CC2Oc3c(O)ccc4c3C3(CCN(C)C3C4)C2C1O

>  <smiles>  (190) 
[H]Oc1c([H])c([H])c2c3c1OC1([H])C([H])([H])C([H])(C([H])([H])[H])C([H])(O[H])C1([H])C31C([H])([H])C([H])([H])[N+]([H])(C([H])([H])[H])C1([H])C2([H])[H]

$$$$
45:0:1
     RDKit          3D

 46 50  0  0  1  0  0  0  0  0999 V2000
    4.5392   -1.7489    1.3577 C   0  0  0  0  0  0  0  0  0  0  0  0
    4.4807   -3.0436    0.5276 C   0  0  2  0  0  0  0  0  0  0  0  0
    3.0330   -3.5412    0.2990 C   0  0  0  0  0  0  0  0  0  0  0  0
    3.0686   -5.0404    0.5820 C   0  0  2  0  0  0  0  0  0  0  0  0
    1.8005   -5.5631    0.9640 O   0  0  0  0  0  0  0  0  0  0  0  0
    1.8161   -6.6665    1.7912 C   0  0  0  0  0  0  0  0  0  0  0  0
    0.6215   -7.3050    2.2082 C   0  0  0  0  0  0  0  0  0  0  0  0
   -0.5696   -6.8818    1.6895 O   0  0  0  0  0  0  0  0  0  0  0  0
    0.6301   -8.3598    3.1587 C   0  0  0  0  0  0  0  0  0  0  0  0
    1.8280   -8.7712    3.7865 C   0  0  0  0  0  0  0  0  0  0  0  0
    3.0257   -8.1562    3.3835 C   0  0  0  0  0  0  0  0  0  0  0  0
    2.9870   -7.1973    2.3761 C   0  0  0  0  0  0  0  0  0  0  0  0
    4.3622   -6.6787    2.0058 C   0  0  2  0  0  0  0  0  0  0  0  0
    5.0294   -7.5440    0.9093 C   0  0  0  0  0  0  0  0  0  0  0  0
    6.4972   -7.7254    1.3387 C   0  0  0  0  0  0  0  0  0  0  0  0
    6.5722   -7.4264    2.7853 N   0  0  1  0  0  0  0  0  0  0  0  0
    7.6270   -6.4430    3.1317 C   0  0  0  0  0  0  0  0  0  0  0  0
    5.2069   -7.0528    3.2328 C   0  0  2  0  0  0  0  0  0  0  0  0
    4.4610   -8.2564    3.8642 C   0  0  0  0  0  0  0  0  0  0  0  0
    4.1479   -5.1767    1.6618 C   0  0  1  0  0  0  0  0  0  0  0  0
    5.2551   -4.2130    1.1947 C   0  0  1  0  0  0  0  0  0  0  0  0
    6.1267   -4.7865    0.2428 O   0  0  0  0  0  0  0  0  0  0  0  0
    4.1387   -1.8886    2.3623 H   0  0  0  0  0  0  0  0  0  0  0  0
    3.9719   -0.9482    0.8814 H   0  0  0  0  0  0  0  0  0  0  0  0
    5.5681   -1.4040    1.4575 H   0  0  0  0  0  0  0  0  0  0  0  0
    4.9140   -2.8203   -0.4489 H   0  0  0  0  0  0  0  0  0  0  0  0
    2.3437   -3.0465    0.9866 H   0  0  0  0  0  0  0  0  0  0  0  0
    2.6762   -3.3378   -0.7135 H   0  0  0  0  0  0  0  0  0  0  0  0
    3.3813   -5.5522   -0.3216 H   0  0  0  0  0  0  0  0  0  0  0  0
   -1.2331   -7.5477    1.7733 H   0  0  0  0  0  0  0  0  0  0  0  0
   -0.2957   -8.8316    3.4452 H   0  0  0  0  0  0  0  0  0  0  0  0
    1.8221   -9.5304    4.5589 H   0  0  0  0  0  0  0  0  0  0  0  0
    4.5685   -8.5367    0.8933 H   0  0  0  0  0  0  0  0  0  0  0  0
    4.9342   -7.1411   -0.0997 H   0  0  0  0  0  0  0  0  0  0  0  0
    6.8413   -8.7414    1.1486 H   0  0  0  0  0  0  0  0  0  0  0  0
    7.1660   -7.0705    0.7820 H   0  0  0  0  0  0  0  0  0  0  0  0
    7.4385   -5.4763    2.6644 H   0  0  0  0  0  0  0  0  0  0  0  0
    8.6100   -6.7875    2.7994 H   0  0  0  0  0  0  0  0  0  0  0  0
    7.6793   -6.2922    4.2104 H   0  0  0  0  0  0  0  0  0  0  0  0
    5.2254   -6.2304    3.9462 H   0  0  0  0  0  0  0  0  0  0  0  0
    4.5142   -8.2315    4.9512 H   0  0  0  0  0  0  0  0  0  0  0  0
    4.8580   -9.2163    3.5281 H   0  0  0  0  0  0  0  0  0  0  0  0
    3.7526   -4.7200    2.5727 H   0  0  0  0  0  0  0  0  0  0  0  0
    5.8582   -3.8690    2.0351 H   0  0  0  0  0  0  0  0  0  0  0  0
    5.6179   -5.0599   -0.5076 H   0  0  0  0  0  0  0  0  0  0  0  0
    6.8266   -8.2818    3.2557 H   0  0  0  0  0  0  0  0  0  0  0  0
  1  2  1  0
  1 23  1  0
  1 24  1  0
  1 25  1  0
  2 21  1  0
  2  3  1  0
  2 26  1  6
  3  4  1  0
  3 27  1  0
  3 28  1  0
  4 20  1  0
  4  5  1  0
  4 29  1  6
  5  6  1  0
  6 12  2  0
  6  7  1  0
  7  8  1  0
  7  9  2  0
  8 30  1  0
  9 10  1  0
  9 31  1  0
 10 11  2  0
 10 32  1  0
 11 19  1  0
 11 12  1  0
 12 13  1  0
 13 18  1  0
 13 14  1  6
 13 20  1  0
 14 15  1  0
 14 33  1  0
 14 34  1  0
 15 16  1  0
 15 35  1  0
 15 36  1  0
 16 17  1  0
 16 18  1  0
 16 46  1  1
 17 37  1  0
 17 38  1  0
 17 39  1  0
 18 19  1  0
 18 40  1  1
 19 41  1  0
 19 42  1  0
 20 21  1  0
 20 43  1  1
 21 22  1  0
 21 44  1  1
 22 45  1  0
M  CHG  1  16   1
M  END
>  <i_m_ct_stereo_status>  (191) 
1

>  <s_m_source_file>  (191) 
/var/tmp/pbs.5076255.sched01/tmpqm933_o1/456x1pmp19.sdf

>  <i_m_source_file_index>  (191) 
33

>  <i_lp_mmshare_version>  (191) 
48012

>  <i_f3d_flags>  (191) 
0

>  <s_epik_input>  (191) 
W0NIM11bQ0BIXShbQ0gyXTEpW0NASF0oW09IXSlbQ0BIXTJbQ0BIXTFPYyhjM1tDQF0yNDUpYyhbT0hdKVtjSF1bY0hdYzNbQ0gyXVtDQEhdNU4oW0NIM10pW0NIMl1bQ0gyXTQ=

>  <s_epik_cmdline>  (191) 
J2VwaWtfcHl0aG9uJywgJy1waHQnLCAnMi4wJywgJy1waCcsICc3LjAnLCAnLXRuJywgJzgnLCAnLW1hJywgJzIwMCcsICctaW1hZScsICc8aW5maWxlLm1hZT4nLCAnLW9tYWUnLCAnPG91dGZpbGUubWFlPic=

>  <r_lp_tautomer_probability>  (191) 
1

>  <r_epik_Ionization_Penalty>  (191) 
0.0112918

>  <r_epik_Ionization_Penalty_Charging>  (191) 
0.00815348

>  <r_epik_Ionization_Penalty_Neutral>  (191) 
0.00313835

>  <r_epik_State_Penalty>  (191) 
0.00612954

>  <r_epik_Charging_Adjusted_Penalty>  (191) 
0.014283

>  <i_epik_Tot_Q>  (191) 
1

>  <i_epik_Tot_abs_Q>  (191) 
1

>  <s_lp_Force_Field>  (191) 
OPLS3e

>  <r_lp_Energy>  (191) 
54.2616

>  <b_lp_Chiralities_Consistent>  (191) 
1

>  <s_lp_Variant>  (191) 
45:0-1

>  <s_i_glide_gridfile>  (191) 
pfpi4k_grid

>  <i_i_glide_lignum>  (191) 
33

>  <i_i_glide_rotatable_bonds>  (191) 
2

>  <r_i_docking_score>  (191) 
-3.45972

>  <r_i_glide_ligand_efficiency>  (191) 
-0.15726

>  <r_i_glide_ligand_efficiency_sa>  (191) 
-0.440649

>  <r_i_glide_ligand_efficiency_ln>  (191) 
-0.845683

>  <r_i_glide_gscore>  (191) 
-3.45972

>  <r_i_glide_lipo>  (191) 
-0.293451

>  <r_i_glide_hbond>  (191) 
-0.0966744

>  <r_i_glide_metal>  (191) 
-0

>  <r_i_glide_rewards>  (191) 
-1.34735

>  <r_i_glide_evdw>  (191) 
-17.0555

>  <r_i_glide_ecoul>  (191) 
-5.79645

>  <r_i_glide_erotb>  (191) 
0

>  <r_i_glide_esite>  (191) 
0

>  <r_i_glide_emodel>  (191) 
-30.3946

>  <r_i_glide_energy>  (191) 
-22.852

>  <r_i_glide_einternal>  (191) 
0.419361

>  <r_i_glide_intrahb_reward>  (191) 
-0

>  <i_i_glide_confnum>  (191) 
2

>  <i_i_glide_posenum>  (191) 
33

>  <r_i_glide_eff_state_penalty>  (191) 
0

>  <ligand_id>  (191) 
45

>  <original_smiles>  (191) 
CC1CC2Oc3c(O)ccc4c3C3(CCN(C)C3C4)C2C1O

>  <smiles>  (191) 
[H]Oc1c([H])c([H])c2c3c1OC1([H])C([H])([H])C([H])(C([H])([H])[H])C([H])(O[H])C1([H])C31C([H])([H])C([H])([H])[N+]([H])(C([H])([H])[H])C1([H])C2([H])[H]

$$$$
45:0:2
     RDKit          3D

 46 50  0  0  1  0  0  0  0  0999 V2000
    0.9158   -3.8136    4.9040 C   0  0  0  0  0  0  0  0  0  0  0  0
    1.5635   -2.5493    5.4948 C   0  0  2  0  0  0  0  0  0  0  0  0
    0.7330   -1.9424    6.6495 C   0  0  0  0  0  0  0  0  0  0  0  0
    0.6830   -0.4430    6.3720 C   0  0  2  0  0  0  0  0  0  0  0  0
   -0.4576    0.1814    6.9545 O   0  0  0  0  0  0  0  0  0  0  0  0
   -0.9175    1.3174    6.3177 C   0  0  0  0  0  0  0  0  0  0  0  0
   -1.9904    2.0783    6.8328 C   0  0  0  0  0  0  0  0  0  0  0  0
   -2.4922    1.7564    8.0593 O   0  0  0  0  0  0  0  0  0  0  0  0
   -2.5644    3.1516    6.1085 C   0  0  0  0  0  0  0  0  0  0  0  0
   -2.1148    3.4714    4.8073 C   0  0  0  0  0  0  0  0  0  0  0  0
   -1.0339    2.7513    4.2862 C   0  0  0  0  0  0  0  0  0  0  0  0
   -0.4388    1.7643    5.0675 C   0  0  0  0  0  0  0  0  0  0  0  0
    0.7530    1.1277    4.3935 C   0  0  2  0  0  0  0  0  0  0  0  0
    2.0646    1.8998    4.6853 C   0  0  0  0  0  0  0  0  0  0  0  0
    2.8233    1.9810    3.3518 C   0  0  0  0  0  0  0  0  0  0  0  0
    1.8407    1.7255    2.2710 N   0  0  1  0  0  0  0  0  0  0  0  0
    2.2740    0.6622    1.3317 C   0  0  0  0  0  0  0  0  0  0  0  0
    0.5268    1.4743    2.9146 C   0  0  2  0  0  0  0  0  0  0  0  0
   -0.3435    2.7519    2.9434 C   0  0  0  0  0  0  0  0  0  0  0  0
    0.7144   -0.3616    4.8388 C   0  0  1  0  0  0  0  0  0  0  0  0
    1.7506   -1.4264    4.4375 C   0  0  1  0  0  0  0  0  0  0  0  0
    3.0824   -0.9567    4.4939 O   0  0  0  0  0  0  0  0  0  0  0  0
   -0.0586   -3.6053    4.4600 H   0  0  0  0  0  0  0  0  0  0  0  0
    0.7791   -4.5815    5.6661 H   0  0  0  0  0  0  0  0  0  0  0  0
    1.5514   -4.2384    4.1273 H   0  0  0  0  0  0  0  0  0  0  0  0
    2.5335   -2.8429    5.8992 H   0  0  0  0  0  0  0  0  0  0  0  0
   -0.2786   -2.3516    6.6535 H   0  0  0  0  0  0  0  0  0  0  0  0
    1.1673   -2.1455    7.6301 H   0  0  0  0  0  0  0  0  0  0  0  0
    1.5792    0.0146    6.7940 H   0  0  0  0  0  0  0  0  0  0  0  0
   -3.0880    2.4015    8.4095 H   0  0  0  0  0  0  0  0  0  0  0  0
   -3.3815    3.7056    6.5397 H   0  0  0  0  0  0  0  0  0  0  0  0
   -2.5836    4.2512    4.2217 H   0  0  0  0  0  0  0  0  0  0  0  0
    1.8285    2.9245    4.9820 H   0  0  0  0  0  0  0  0  0  0  0  0
    2.6748    1.4774    5.4836 H   0  0  0  0  0  0  0  0  0  0  0  0
    3.2859    2.9566    3.2147 H   0  0  0  0  0  0  0  0  0  0  0  0
    3.6404    1.2620    3.3181 H   0  0  0  0  0  0  0  0  0  0  0  0
    2.3718   -0.3023    1.8284 H   0  0  0  0  0  0  0  0  0  0  0  0
    3.2409    0.9089    0.8918 H   0  0  0  0  0  0  0  0  0  0  0  0
    1.5519    0.5514    0.5250 H   0  0  0  0  0  0  0  0  0  0  0  0
   -0.0230    0.6793    2.4107 H   0  0  0  0  0  0  0  0  0  0  0  0
   -1.0612    2.7580    2.1238 H   0  0  0  0  0  0  0  0  0  0  0  0
    0.2586    3.6616    2.8820 H   0  0  0  0  0  0  0  0  0  0  0  0
   -0.2406   -0.7508    4.4766 H   0  0  0  0  0  0  0  0  0  0  0  0
    1.5659   -1.7899    3.4271 H   0  0  0  0  0  0  0  0  0  0  0  0
    3.2730   -0.6700    5.3748 H   0  0  0  0  0  0  0  0  0  0  0  0
    1.7421    2.5771    1.7251 H   0  0  0  0  0  0  0  0  0  0  0  0
  1  2  1  0
  1 23  1  0
  1 24  1  0
  1 25  1  0
  2 21  1  0
  2  3  1  0
  2 26  1  1
  3  4  1  0
  3 27  1  0
  3 28  1  0
  4 20  1  0
  4  5  1  0
  4 29  1  1
  5  6  1  0
  6 12  2  0
  6  7  1  0
  7  8  1  0
  7  9  2  0
  8 30  1  0
  9 10  1  0
  9 31  1  0
 10 11  2  0
 10 32  1  0
 11 19  1  0
 11 12  1  0
 12 13  1  0
 13 18  1  0
 13 14  1  1
 13 20  1  0
 14 15  1  0
 14 33  1  0
 14 34  1  0
 15 16  1  0
 15 35  1  0
 15 36  1  0
 16 17  1  0
 16 18  1  0
 16 46  1  6
 17 37  1  0
 17 38  1  0
 17 39  1  0
 18 19  1  0
 18 40  1  6
 19 41  1  0
 19 42  1  0
 20 21  1  0
 20 43  1  6
 21 22  1  0
 21 44  1  6
 22 45  1  0
M  CHG  1  16   1
M  END
>  <i_m_ct_stereo_status>  (192) 
1

>  <s_m_source_file>  (192) 
/var/tmp/pbs.5076255.sched01/tmpqm933_o1/456x1pmp19.sdf

>  <i_m_source_file_index>  (192) 
33

>  <i_lp_mmshare_version>  (192) 
48012

>  <i_f3d_flags>  (192) 
0

>  <s_epik_input>  (192) 
W0NIM11bQ0BIXShbQ0gyXTEpW0NASF0oW09IXSlbQ0BIXTJbQ0BIXTFPYyhjM1tDQF0yNDUpYyhbT0hdKVtjSF1bY0hdYzNbQ0gyXVtDQEhdNU4oW0NIM10pW0NIMl1bQ0gyXTQ=

>  <s_epik_cmdline>  (192) 
J2VwaWtfcHl0aG9uJywgJy1waHQnLCAnMi4wJywgJy1waCcsICc3LjAnLCAnLXRuJywgJzgnLCAnLW1hJywgJzIwMCcsICctaW1hZScsICc8aW5maWxlLm1hZT4nLCAnLW9tYWUnLCAnPG91dGZpbGUubWFlPic=

>  <r_lp_tautomer_probability>  (192) 
1

>  <r_epik_Ionization_Penalty>  (192) 
0.0112918

>  <r_epik_Ionization_Penalty_Charging>  (192) 
0.00815348

>  <r_epik_Ionization_Penalty_Neutral>  (192) 
0.00313835

>  <r_epik_State_Penalty>  (192) 
0.00612954

>  <r_epik_Charging_Adjusted_Penalty>  (192) 
0.014283

>  <i_epik_Tot_Q>  (192) 
1

>  <i_epik_Tot_abs_Q>  (192) 
1

>  <s_lp_Force_Field>  (192) 
OPLS3e

>  <r_lp_Energy>  (192) 
54.2616

>  <b_lp_Chiralities_Consistent>  (192) 
1

>  <s_lp_Variant>  (192) 
45:0-1

>  <s_i_glide_gridfile>  (192) 
pfpi4k_grid

>  <i_i_glide_lignum>  (192) 
33

>  <i_i_glide_rotatable_bonds>  (192) 
2

>  <r_i_docking_score>  (192) 
-3.12221

>  <r_i_glide_ligand_efficiency>  (192) 
-0.141919

>  <r_i_glide_ligand_efficiency_sa>  (192) 
-0.397662

>  <r_i_glide_ligand_efficiency_ln>  (192) 
-0.763183

>  <r_i_glide_gscore>  (192) 
-3.12221

>  <r_i_glide_lipo>  (192) 
-0.092128

>  <r_i_glide_hbond>  (192) 
-0.00230566

>  <r_i_glide_metal>  (192) 
-0

>  <r_i_glide_rewards>  (192) 
-1.34735

>  <r_i_glide_evdw>  (192) 
-15.0299

>  <r_i_glide_ecoul>  (192) 
-6.18709

>  <r_i_glide_erotb>  (192) 
0

>  <r_i_glide_esite>  (192) 
-0.000865205

>  <r_i_glide_emodel>  (192) 
-28.2029

>  <r_i_glide_energy>  (192) 
-21.217

>  <r_i_glide_einternal>  (192) 
0.185595

>  <r_i_glide_intrahb_reward>  (192) 
-0

>  <i_i_glide_confnum>  (192) 
1

>  <i_i_glide_posenum>  (192) 
2

>  <r_i_glide_eff_state_penalty>  (192) 
0

>  <ligand_id>  (192) 
45

>  <original_smiles>  (192) 
CC1CC2Oc3c(O)ccc4c3C3(CCN(C)C3C4)C2C1O

>  <smiles>  (192) 
[H]Oc1c([H])c([H])c2c3c1OC1([H])C([H])([H])C([H])(C([H])([H])[H])C([H])(O[H])C1([H])C31C([H])([H])C([H])([H])[N+]([H])(C([H])([H])[H])C1([H])C2([H])[H]

$$$$
45:1:0
     RDKit          3D

 45 49  0  0  1  0  0  0  0  0999 V2000
    4.4372    0.0042    3.1877 C   0  0  0  0  0  0  0  0  0  0  0  0
    4.2114   -0.3129    1.6965 C   0  0  2  0  0  0  0  0  0  0  0  0
    2.9472   -1.1857    1.4866 C   0  0  0  0  0  0  0  0  0  0  0  0
    3.4148   -2.4610    0.7810 C   0  0  2  0  0  0  0  0  0  0  0  0
    2.6447   -3.6124    1.1317 O   0  0  0  0  0  0  0  0  0  0  0  0
    3.3006   -4.8281    1.0572 C   0  0  0  0  0  0  0  0  0  0  0  0
    2.6424   -6.0488    1.3579 C   0  0  0  0  0  0  0  0  0  0  0  0
    1.2918   -6.0552    1.5704 O   0  0  0  0  0  0  0  0  0  0  0  0
    3.3505   -7.2782    1.4524 C   0  0  0  0  0  0  0  0  0  0  0  0
    4.7562   -7.3218    1.2916 C   0  0  0  0  0  0  0  0  0  0  0  0
    5.4247   -6.1323    0.9755 C   0  0  0  0  0  0  0  0  0  0  0  0
    4.6840   -4.9588    0.8087 C   0  0  0  0  0  0  0  0  0  0  0  0
    5.5489   -3.7655    0.4464 C   0  0  2  0  0  0  0  0  0  0  0  0
    5.7578   -3.6160   -1.0712 C   0  0  0  0  0  0  0  0  0  0  0  0
    7.2341   -3.2234   -1.2427 C   0  0  0  0  0  0  0  0  0  0  0  0
    7.9429   -3.7737   -0.0879 N   0  0  0  0  0  0  0  0  0  0  0  0
    8.9006   -2.8292    0.4673 C   0  0  0  0  0  0  0  0  0  0  0  0
    6.9490   -4.2151    0.8921 C   0  0  2  0  0  0  0  0  0  0  0  0
    6.8836   -5.7628    0.8796 C   0  0  0  0  0  0  0  0  0  0  0  0
    4.8964   -2.5565    1.1715 C   0  0  1  0  0  0  0  0  0  0  0  0
    5.3919   -1.1022    1.0779 C   0  0  1  0  0  0  0  0  0  0  0  0
    5.5609   -0.6544   -0.2594 O   0  0  0  0  0  0  0  0  0  0  0  0
    4.5736   -0.9017    3.7806 H   0  0  0  0  0  0  0  0  0  0  0  0
    3.5886    0.5533    3.6019 H   0  0  0  0  0  0  0  0  0  0  0  0
    5.3276    0.6163    3.3229 H   0  0  0  0  0  0  0  0  0  0  0  0
    4.0750    0.6383    1.1769 H   0  0  0  0  0  0  0  0  0  0  0  0
    2.4748   -1.4278    2.4430 H   0  0  0  0  0  0  0  0  0  0  0  0
    2.2090   -0.6620    0.8814 H   0  0  0  0  0  0  0  0  0  0  0  0
    3.3211   -2.3038   -0.2936 H   0  0  0  0  0  0  0  0  0  0  0  0
    0.9907   -6.9085    1.8396 H   0  0  0  0  0  0  0  0  0  0  0  0
    2.8225   -8.1885    1.6838 H   0  0  0  0  0  0  0  0  0  0  0  0
    5.3018   -8.2430    1.4316 H   0  0  0  0  0  0  0  0  0  0  0  0
    5.5972   -4.5817   -1.5505 H   0  0  0  0  0  0  0  0  0  0  0  0
    5.0783   -2.9153   -1.5533 H   0  0  0  0  0  0  0  0  0  0  0  0
    7.6584   -3.5894   -2.1815 H   0  0  0  0  0  0  0  0  0  0  0  0
    7.3344   -2.1413   -1.2686 H   0  0  0  0  0  0  0  0  0  0  0  0
    9.4449   -3.2977    1.2837 H   0  0  0  0  0  0  0  0  0  0  0  0
    8.4171   -1.9270    0.8428 H   0  0  0  0  0  0  0  0  0  0  0  0
    9.6370   -2.5331   -0.2817 H   0  0  0  0  0  0  0  0  0  0  0  0
    7.1628   -3.8712    1.9038 H   0  0  0  0  0  0  0  0  0  0  0  0
    7.4697   -6.1983    1.6851 H   0  0  0  0  0  0  0  0  0  0  0  0
    7.2742   -6.1820   -0.0426 H   0  0  0  0  0  0  0  0  0  0  0  0
    4.9312   -2.8096    2.2362 H   0  0  0  0  0  0  0  0  0  0  0  0
    6.3219   -0.9463    1.6230 H   0  0  0  0  0  0  0  0  0  0  0  0
    5.4145    0.2860   -0.2894 H   0  0  0  0  0  0  0  0  0  0  0  0
  1  2  1  0
  1 23  1  0
  1 24  1  0
  1 25  1  0
  2 21  1  0
  2  3  1  0
  2 26  1  6
  3  4  1  0
  3 27  1  0
  3 28  1  0
  4 20  1  0
  4  5  1  0
  4 29  1  6
  5  6  1  0
  6 12  2  0
  6  7  1  0
  7  8  1  0
  7  9  2  0
  8 30  1  0
  9 10  1  0
  9 31  1  0
 10 11  2  0
 10 32  1  0
 11 19  1  0
 11 12  1  0
 12 13  1  0
 13 18  1  0
 13 14  1  6
 13 20  1  0
 14 15  1  0
 14 33  1  0
 14 34  1  0
 15 16  1  0
 15 35  1  0
 15 36  1  0
 16 17  1  0
 16 18  1  0
 17 37  1  0
 17 38  1  0
 17 39  1  0
 18 19  1  0
 18 40  1  1
 19 41  1  0
 19 42  1  0
 20 21  1  0
 20 43  1  1
 21 22  1  0
 21 44  1  1
 22 45  1  0
M  END
>  <i_m_ct_stereo_status>  (193) 
1

>  <s_m_source_file>  (193) 
/var/tmp/pbs.5076255.sched01/tmpqm933_o1/456x1pmp19.sdf

>  <i_m_source_file_index>  (193) 
34

>  <i_lp_mmshare_version>  (193) 
48012

>  <i_f3d_flags>  (193) 
0

>  <s_epik_input>  (193) 
W0NIM11bQ0BIXShbQ0gyXTEpW0NASF0oW09IXSlbQ0BIXTJbQ0BIXTFPYyhjM1tDQF0yNDUpYyhbT0hdKVtjSF1bY0hdYzNbQ0gyXVtDQEhdNU4oW0NIM10pW0NIMl1bQ0gyXTQ=

>  <s_epik_cmdline>  (193) 
J2VwaWtfcHl0aG9uJywgJy1waHQnLCAnMi4wJywgJy1waCcsICc3LjAnLCAnLXRuJywgJzgnLCAnLW1hJywgJzIwMCcsICctaW1hZScsICc8aW5maWxlLm1hZT4nLCAnLW9tYWUnLCAnPG91dGZpbGUubWFlPic=

>  <r_lp_tautomer_probability>  (193) 
1

>  <r_epik_Ionization_Penalty>  (193) 
2.54366

>  <r_epik_Ionization_Penalty_Charging>  (193) 
0

>  <r_epik_Ionization_Penalty_Neutral>  (193) 
2.54366

>  <r_epik_State_Penalty>  (193) 
2.71144

>  <r_epik_Charging_Adjusted_Penalty>  (193) 
2.71144

>  <i_epik_Tot_Q>  (193) 
0

>  <i_epik_Tot_abs_Q>  (193) 
0

>  <s_lp_Force_Field>  (193) 
OPLS3e

>  <r_lp_Energy>  (193) 
50.0299

>  <b_lp_Chiralities_Consistent>  (193) 
1

>  <s_lp_Variant>  (193) 
45:0-2

>  <s_i_glide_gridfile>  (193) 
pfpi4k_grid

>  <i_i_glide_lignum>  (193) 
34

>  <i_i_glide_rotatable_bonds>  (193) 
2

>  <r_i_docking_score>  (193) 
-4.40964

>  <r_i_glide_ligand_efficiency>  (193) 
-0.200438

>  <r_i_glide_ligand_efficiency_sa>  (193) 
-0.561636

>  <r_i_glide_ligand_efficiency_ln>  (193) 
-1.07788

>  <r_i_glide_gscore>  (193) 
-4.40964

>  <r_i_glide_lipo>  (193) 
-1.02632

>  <r_i_glide_hbond>  (193) 
-0.32

>  <r_i_glide_metal>  (193) 
-0

>  <r_i_glide_rewards>  (193) 
-1.35423

>  <r_i_glide_evdw>  (193) 
-20.1995

>  <r_i_glide_ecoul>  (193) 
-4.6608

>  <r_i_glide_erotb>  (193) 
0

>  <r_i_glide_esite>  (193) 
0

>  <r_i_glide_emodel>  (193) 
-32.0271

>  <r_i_glide_energy>  (193) 
-24.8603

>  <r_i_glide_einternal>  (193) 
0.772745

>  <r_i_glide_intrahb_reward>  (193) 
-0

>  <i_i_glide_confnum>  (193) 
2

>  <i_i_glide_posenum>  (193) 
35

>  <r_i_glide_eff_state_penalty>  (193) 
0

>  <ligand_id>  (193) 
45

>  <original_smiles>  (193) 
CC1CC2Oc3c(O)ccc4c3C3(CCN(C)C3C4)C2C1O

>  <smiles>  (193) 
[H]Oc1c([H])c([H])c2c3c1OC1([H])C([H])([H])C([H])(C([H])([H])[H])C([H])(O[H])C1([H])C31C([H])([H])C([H])([H])N(C([H])([H])[H])C1([H])C2([H])[H]

$$$$
45:1:1
     RDKit          3D

 45 49  0  0  1  0  0  0  0  0999 V2000
    4.4397   -0.0816    3.2035 C   0  0  0  0  0  0  0  0  0  0  0  0
    4.2096   -0.3981    1.7120 C   0  0  2  0  0  0  0  0  0  0  0  0
    2.9499   -1.2761    1.4957 C   0  0  0  0  0  0  0  0  0  0  0  0
    3.4206   -2.5498    0.7946 C   0  0  2  0  0  0  0  0  0  0  0  0
    2.6594   -3.7080    1.1417 O   0  0  0  0  0  0  0  0  0  0  0  0
    3.3254   -4.9187    1.0640 C   0  0  0  0  0  0  0  0  0  0  0  0
    2.6748   -6.1456    1.3638 C   0  0  0  0  0  0  0  0  0  0  0  0
    1.3248   -6.1558    1.5743 O   0  0  0  0  0  0  0  0  0  0  0  0
    3.3912   -7.3665    1.4524 C   0  0  0  0  0  0  0  0  0  0  0  0
    4.7954   -7.4009    1.2878 C   0  0  0  0  0  0  0  0  0  0  0  0
    5.4561   -6.2054    0.9743 C   0  0  0  0  0  0  0  0  0  0  0  0
    4.7112   -5.0390    0.8112 C   0  0  0  0  0  0  0  0  0  0  0  0
    5.5646   -3.8393    0.4533 C   0  0  2  0  0  0  0  0  0  0  0  0
    5.7714   -3.6833   -1.0638 C   0  0  0  0  0  0  0  0  0  0  0  0
    7.2460   -3.2810   -1.2383 C   0  0  0  0  0  0  0  0  0  0  0  0
    7.9576   -3.8327   -0.0874 N   0  0  0  0  0  0  0  0  0  0  0  0
    8.9117   -2.8819    0.4659 C   0  0  0  0  0  0  0  0  0  0  0  0
    6.9682   -4.2826    0.8945 C   0  0  2  0  0  0  0  0  0  0  0  0
    6.9141   -5.8296    0.8758 C   0  0  0  0  0  0  0  0  0  0  0  0
    4.9042   -2.6407    1.1854 C   0  0  1  0  0  0  0  0  0  0  0  0
    5.3947   -1.1848    1.0959 C   0  0  1  0  0  0  0  0  0  0  0  0
    5.5725   -0.7440   -0.2367 O   0  0  0  0  0  0  0  0  0  0  0  0
    4.5789   -0.9891    3.7943 H   0  0  0  0  0  0  0  0  0  0  0  0
    3.5894    0.4607    3.6210 H   0  0  0  0  0  0  0  0  0  0  0  0
    5.3253    0.5410    3.3349 H   0  0  0  0  0  0  0  0  0  0  0  0
    4.0771    0.5560    1.1944 H   0  0  0  0  0  0  0  0  0  0  0  0
    2.4784   -1.5170    2.4511 H   0  0  0  0  0  0  0  0  0  0  0  0
    2.2088   -0.7583    0.8866 H   0  0  0  0  0  0  0  0  0  0  0  0
    3.3256   -2.3923   -0.2799 H   0  0  0  0  0  0  0  0  0  0  0  0
    1.0241   -7.0146    1.8367 H   0  0  0  0  0  0  0  0  0  0  0  0
    2.8702   -8.2830    1.6857 H   0  0  0  0  0  0  0  0  0  0  0  0
    5.3477   -8.3202    1.4265 H   0  0  0  0  0  0  0  0  0  0  0  0
    5.6107   -4.6495   -1.5441 H   0  0  0  0  0  0  0  0  0  0  0  0
    5.0843   -2.9863   -1.5461 H   0  0  0  0  0  0  0  0  0  0  0  0
    7.6697   -3.6419   -2.1793 H   0  0  0  0  0  0  0  0  0  0  0  0
    7.3396   -2.1987   -1.2611 H   0  0  0  0  0  0  0  0  0  0  0  0
    9.4587   -3.3466    1.2853 H   0  0  0  0  0  0  0  0  0  0  0  0
    8.4232   -1.9826    0.8452 H   0  0  0  0  0  0  0  0  0  0  0  0
    9.6435   -2.5794   -0.2829 H   0  0  0  0  0  0  0  0  0  0  0  0
    7.1849   -3.9391    1.9065 H   0  0  0  0  0  0  0  0  0  0  0  0
    7.5019   -6.2617    1.6827 H   0  0  0  0  0  0  0  0  0  0  0  0
    7.3080   -6.2432   -0.0477 H   0  0  0  0  0  0  0  0  0  0  0  0
    4.9419   -2.8945    2.2487 H   0  0  0  0  0  0  0  0  0  0  0  0
    6.3279   -1.0337    1.6382 H   0  0  0  0  0  0  0  0  0  0  0  0
    4.7213   -0.7335   -0.6541 H   0  0  0  0  0  0  0  0  0  0  0  0
  1  2  1  0
  1 23  1  0
  1 24  1  0
  1 25  1  0
  2 21  1  0
  2  3  1  0
  2 26  1  6
  3  4  1  0
  3 27  1  0
  3 28  1  0
  4 20  1  0
  4  5  1  0
  4 29  1  6
  5  6  1  0
  6 12  2  0
  6  7  1  0
  7  8  1  0
  7  9  2  0
  8 30  1  0
  9 10  1  0
  9 31  1  0
 10 11  2  0
 10 32  1  0
 11 19  1  0
 11 12  1  0
 12 13  1  0
 13 18  1  0
 13 14  1  6
 13 20  1  0
 14 15  1  0
 14 33  1  0
 14 34  1  0
 15 16  1  0
 15 35  1  0
 15 36  1  0
 16 17  1  0
 16 18  1  0
 17 37  1  0
 17 38  1  0
 17 39  1  0
 18 19  1  0
 18 40  1  1
 19 41  1  0
 19 42  1  0
 20 21  1  0
 20 43  1  1
 21 22  1  0
 21 44  1  1
 22 45  1  0
M  END
>  <i_m_ct_stereo_status>  (194) 
1

>  <s_m_source_file>  (194) 
/var/tmp/pbs.5076255.sched01/tmpqm933_o1/456x1pmp19.sdf

>  <i_m_source_file_index>  (194) 
34

>  <i_lp_mmshare_version>  (194) 
48012

>  <i_f3d_flags>  (194) 
0

>  <s_epik_input>  (194) 
W0NIM11bQ0BIXShbQ0gyXTEpW0NASF0oW09IXSlbQ0BIXTJbQ0BIXTFPYyhjM1tDQF0yNDUpYyhbT0hdKVtjSF1bY0hdYzNbQ0gyXVtDQEhdNU4oW0NIM10pW0NIMl1bQ0gyXTQ=

>  <s_epik_cmdline>  (194) 
J2VwaWtfcHl0aG9uJywgJy1waHQnLCAnMi4wJywgJy1waCcsICc3LjAnLCAnLXRuJywgJzgnLCAnLW1hJywgJzIwMCcsICctaW1hZScsICc8aW5maWxlLm1hZT4nLCAnLW9tYWUnLCAnPG91dGZpbGUubWFlPic=

>  <r_lp_tautomer_probability>  (194) 
1

>  <r_epik_Ionization_Penalty>  (194) 
2.54366

>  <r_epik_Ionization_Penalty_Charging>  (194) 
0

>  <r_epik_Ionization_Penalty_Neutral>  (194) 
2.54366

>  <r_epik_State_Penalty>  (194) 
2.71144

>  <r_epik_Charging_Adjusted_Penalty>  (194) 
2.71144

>  <i_epik_Tot_Q>  (194) 
0

>  <i_epik_Tot_abs_Q>  (194) 
0

>  <s_lp_Force_Field>  (194) 
OPLS3e

>  <r_lp_Energy>  (194) 
50.0299

>  <b_lp_Chiralities_Consistent>  (194) 
1

>  <s_lp_Variant>  (194) 
45:0-2

>  <s_i_glide_gridfile>  (194) 
pfpi4k_grid

>  <i_i_glide_lignum>  (194) 
34

>  <i_i_glide_rotatable_bonds>  (194) 
2

>  <r_i_docking_score>  (194) 
-3.78178

>  <r_i_glide_ligand_efficiency>  (194) 
-0.171899

>  <r_i_glide_ligand_efficiency_sa>  (194) 
-0.481669

>  <r_i_glide_ligand_efficiency_ln>  (194) 
-0.924406

>  <r_i_glide_gscore>  (194) 
-3.78178

>  <r_i_glide_lipo>  (194) 
-1.06483

>  <r_i_glide_hbond>  (194) 
0

>  <r_i_glide_metal>  (194) 
-0

>  <r_i_glide_rewards>  (194) 
-1.35423

>  <r_i_glide_evdw>  (194) 
-20.5163

>  <r_i_glide_ecoul>  (194) 
-2.24606

>  <r_i_glide_erotb>  (194) 
0

>  <r_i_glide_esite>  (194) 
0

>  <r_i_glide_emodel>  (194) 
-29.2582

>  <r_i_glide_energy>  (194) 
-22.7624

>  <r_i_glide_einternal>  (194) 
0.0686148

>  <r_i_glide_intrahb_reward>  (194) 
-0

>  <i_i_glide_confnum>  (194) 
1

>  <i_i_glide_posenum>  (194) 
9

>  <r_i_glide_eff_state_penalty>  (194) 
0

>  <ligand_id>  (194) 
45

>  <original_smiles>  (194) 
CC1CC2Oc3c(O)ccc4c3C3(CCN(C)C3C4)C2C1O

>  <smiles>  (194) 
[H]Oc1c([H])c([H])c2c3c1OC1([H])C([H])([H])C([H])(C([H])([H])[H])C([H])(O[H])C1([H])C31C([H])([H])C([H])([H])N(C([H])([H])[H])C1([H])C2([H])[H]

$$$$
45:1:2
     RDKit          3D

 45 49  0  0  1  0  0  0  0  0999 V2000
   -1.9720   -9.1201    2.1631 C   0  0  0  0  0  0  0  0  0  0  0  0
   -1.2702   -8.6682    3.4515 C   0  0  2  0  0  0  0  0  0  0  0  0
   -0.9121   -7.1612    3.4056 C   0  0  0  0  0  0  0  0  0  0  0  0
    0.6061   -7.0791    3.5725 C   0  0  2  0  0  0  0  0  0  0  0  0
    1.1875   -5.9779    2.8646 O   0  0  0  0  0  0  0  0  0  0  0  0
    2.5018   -6.1500    2.4685 C   0  0  0  0  0  0  0  0  0  0  0  0
    3.2108   -5.1268    1.7864 C   0  0  0  0  0  0  0  0  0  0  0  0
    2.6416   -3.8911    1.6663 O   0  0  0  0  0  0  0  0  0  0  0  0
    4.4947   -5.3492    1.2296 C   0  0  0  0  0  0  0  0  0  0  0  0
    5.1108   -6.6199    1.2929 C   0  0  0  0  0  0  0  0  0  0  0  0
    4.4357   -7.6429    1.9844 C   0  0  0  0  0  0  0  0  0  0  0  0
    3.2131   -7.3617    2.5890 C   0  0  0  0  0  0  0  0  0  0  0  0
    2.6300   -8.5637    3.3137 C   0  0  2  0  0  0  0  0  0  0  0  0
    3.1105   -8.6759    4.7729 C   0  0  0  0  0  0  0  0  0  0  0  0
    3.3682  -10.1723    5.0020 C   0  0  0  0  0  0  0  0  0  0  0  0
    3.7052  -10.7269    3.6936 N   0  0  0  0  0  0  0  0  0  0  0  0
    3.0538  -12.0070    3.4580 C   0  0  0  0  0  0  0  0  0  0  0  0
    3.3791   -9.7391    2.6676 C   0  0  2  0  0  0  0  0  0  0  0  0
    4.7008   -9.1155    2.1512 C   0  0  0  0  0  0  0  0  0  0  0  0
    1.0992   -8.4505    3.0939 C   0  0  1  0  0  0  0  0  0  0  0  0
    0.0645   -9.4232    3.6730 C   0  0  1  0  0  0  0  0  0  0  0  0
    0.2107   -9.6266    5.0604 O   0  0  0  0  0  0  0  0  0  0  0  0
   -1.3615   -8.9561    1.2829 H   0  0  0  0  0  0  0  0  0  0  0  0
   -2.9107   -8.5873    2.0148 H   0  0  0  0  0  0  0  0  0  0  0  0
   -2.1742  -10.1861    2.2023 H   0  0  0  0  0  0  0  0  0  0  0  0
   -1.9563   -8.8492    4.2851 H   0  0  0  0  0  0  0  0  0  0  0  0
   -1.2142   -6.7353    2.4471 H   0  0  0  0  0  0  0  0  0  0  0  0
   -1.4177   -6.5981    4.1973 H   0  0  0  0  0  0  0  0  0  0  0  0
    0.8192   -6.9557    4.6336 H   0  0  0  0  0  0  0  0  0  0  0  0
    1.8612   -3.8042    2.1921 H   0  0  0  0  0  0  0  0  0  0  0  0
    4.9906   -4.5373    0.7228 H   0  0  0  0  0  0  0  0  0  0  0  0
    6.0601   -6.8035    0.8157 H   0  0  0  0  0  0  0  0  0  0  0  0
    4.0620   -8.1557    4.8873 H   0  0  0  0  0  0  0  0  0  0  0  0
    2.4272   -8.2529    5.5089 H   0  0  0  0  0  0  0  0  0  0  0  0
    4.1786  -10.3428    5.7169 H   0  0  0  0  0  0  0  0  0  0  0  0
    2.4877  -10.6625    5.4184 H   0  0  0  0  0  0  0  0  0  0  0  0
    3.3636  -12.4163    2.4960 H   0  0  0  0  0  0  0  0  0  0  0  0
    1.9666  -11.9176    3.4544 H   0  0  0  0  0  0  0  0  0  0  0  0
    3.3333  -12.7294    4.2267 H   0  0  0  0  0  0  0  0  0  0  0  0
    2.8180  -10.1609    1.8317 H   0  0  0  0  0  0  0  0  0  0  0  0
    5.0167   -9.5810    1.2220 H   0  0  0  0  0  0  0  0  0  0  0  0
    5.5120   -9.2306    2.8725 H   0  0  0  0  0  0  0  0  0  0  0  0
    0.9556   -8.4962    2.0106 H   0  0  0  0  0  0  0  0  0  0  0  0
    0.0862  -10.3946    3.1829 H   0  0  0  0  0  0  0  0  0  0  0  0
   -0.4710  -10.2433    5.3073 H   0  0  0  0  0  0  0  0  0  0  0  0
  1  2  1  0
  1 23  1  0
  1 24  1  0
  1 25  1  0
  2 21  1  0
  2  3  1  0
  2 26  1  1
  3  4  1  0
  3 27  1  0
  3 28  1  0
  4 20  1  0
  4  5  1  0
  4 29  1  1
  5  6  1  0
  6 12  2  0
  6  7  1  0
  7  8  1  0
  7  9  2  0
  8 30  1  0
  9 10  1  0
  9 31  1  0
 10 11  2  0
 10 32  1  0
 11 19  1  0
 11 12  1  0
 12 13  1  0
 13 18  1  0
 13 14  1  1
 13 20  1  0
 14 15  1  0
 14 33  1  0
 14 34  1  0
 15 16  1  0
 15 35  1  0
 15 36  1  0
 16 17  1  0
 16 18  1  0
 17 37  1  0
 17 38  1  0
 17 39  1  0
 18 19  1  0
 18 40  1  6
 19 41  1  0
 19 42  1  0
 20 21  1  0
 20 43  1  6
 21 22  1  0
 21 44  1  6
 22 45  1  0
M  END
>  <i_m_ct_stereo_status>  (195) 
1

>  <s_m_source_file>  (195) 
/var/tmp/pbs.5076255.sched01/tmpqm933_o1/456x1pmp19.sdf

>  <i_m_source_file_index>  (195) 
34

>  <i_lp_mmshare_version>  (195) 
48012

>  <i_f3d_flags>  (195) 
0

>  <s_epik_input>  (195) 
W0NIM11bQ0BIXShbQ0gyXTEpW0NASF0oW09IXSlbQ0BIXTJbQ0BIXTFPYyhjM1tDQF0yNDUpYyhbT0hdKVtjSF1bY0hdYzNbQ0gyXVtDQEhdNU4oW0NIM10pW0NIMl1bQ0gyXTQ=

>  <s_epik_cmdline>  (195) 
J2VwaWtfcHl0aG9uJywgJy1waHQnLCAnMi4wJywgJy1waCcsICc3LjAnLCAnLXRuJywgJzgnLCAnLW1hJywgJzIwMCcsICctaW1hZScsICc8aW5maWxlLm1hZT4nLCAnLW9tYWUnLCAnPG91dGZpbGUubWFlPic=

>  <r_lp_tautomer_probability>  (195) 
1

>  <r_epik_Ionization_Penalty>  (195) 
2.54366

>  <r_epik_Ionization_Penalty_Charging>  (195) 
0

>  <r_epik_Ionization_Penalty_Neutral>  (195) 
2.54366

>  <r_epik_State_Penalty>  (195) 
2.71144

>  <r_epik_Charging_Adjusted_Penalty>  (195) 
2.71144

>  <i_epik_Tot_Q>  (195) 
0

>  <i_epik_Tot_abs_Q>  (195) 
0

>  <s_lp_Force_Field>  (195) 
OPLS3e

>  <r_lp_Energy>  (195) 
50.0299

>  <b_lp_Chiralities_Consistent>  (195) 
1

>  <s_lp_Variant>  (195) 
45:0-2

>  <s_i_glide_gridfile>  (195) 
pfpi4k_grid

>  <i_i_glide_lignum>  (195) 
34

>  <i_i_glide_rotatable_bonds>  (195) 
2

>  <r_i_docking_score>  (195) 
-3.42346

>  <r_i_glide_ligand_efficiency>  (195) 
-0.155612

>  <r_i_glide_ligand_efficiency_sa>  (195) 
-0.43603

>  <r_i_glide_ligand_efficiency_ln>  (195) 
-0.836818

>  <r_i_glide_gscore>  (195) 
-3.42346

>  <r_i_glide_lipo>  (195) 
-0.373256

>  <r_i_glide_hbond>  (195) 
-0.16

>  <r_i_glide_metal>  (195) 
-0

>  <r_i_glide_rewards>  (195) 
-1.35423

>  <r_i_glide_evdw>  (195) 
-19.1102

>  <r_i_glide_ecoul>  (195) 
-3.86976

>  <r_i_glide_erotb>  (195) 
0

>  <r_i_glide_esite>  (195) 
0

>  <r_i_glide_emodel>  (195) 
-28.5861

>  <r_i_glide_energy>  (195) 
-22.98

>  <r_i_glide_einternal>  (195) 
0.504026

>  <r_i_glide_intrahb_reward>  (195) 
-0

>  <i_i_glide_confnum>  (195) 
2

>  <i_i_glide_posenum>  (195) 
3

>  <r_i_glide_eff_state_penalty>  (195) 
0

>  <ligand_id>  (195) 
45

>  <original_smiles>  (195) 
CC1CC2Oc3c(O)ccc4c3C3(CCN(C)C3C4)C2C1O

>  <smiles>  (195) 
[H]Oc1c([H])c([H])c2c3c1OC1([H])C([H])([H])C([H])(C([H])([H])[H])C([H])(O[H])C1([H])C31C([H])([H])C([H])([H])N(C([H])([H])[H])C1([H])C2([H])[H]

$$$$
46:0:0
     RDKit          3D

 39 45  0  0  1  0  0  0  0  0999 V2000
    0.1347   -7.9145    1.7331 O   0  0  0  0  0  0  0  0  0  0  0  0
    1.4963   -7.8449    1.6951 C   0  0  0  0  0  0  0  0  0  0  0  0
    2.3033   -8.9764    1.9786 C   0  0  0  0  0  0  0  0  0  0  0  0
    3.7183   -8.8722    1.9623 C   0  0  0  0  0  0  0  0  0  0  0  0
    4.2997   -7.6393    1.6114 C   0  0  0  0  0  0  0  0  0  0  0  0
    3.4714   -6.5710    1.2882 C   0  0  0  0  0  0  0  0  0  0  0  0
    2.1056   -6.6230    1.3614 C   0  0  0  0  0  0  0  0  0  0  0  0
    1.5433   -5.4431    1.1190 O   0  0  0  0  0  0  0  0  0  0  0  0
    2.6194   -4.5561    0.7508 C   0  0  1  0  0  0  0  0  0  0  0  0
    3.2659   -3.7769    1.8611 C   0  0  2  0  0  0  0  0  0  0  0  0
    2.3716   -3.4407    2.9039 O   0  0  0  0  0  0  0  0  0  0  0  0
    3.3930   -2.4161    0.8882 C   0  0  0  0  0  0  0  0  0  0  0  0
    4.2288   -2.6458   -0.4465 C   0  0  0  0  0  0  0  0  0  0  0  0
    4.4464   -1.7337   -1.5192 C   0  0  0  0  0  0  0  0  0  0  0  0
    5.2096   -2.2453   -2.4743 N   0  0  0  0  0  0  0  0  0  0  0  0
    5.4985   -3.4927   -2.0484 N   0  0  0  0  0  0  0  0  0  0  0  0
    4.9346   -3.8007   -0.8307 C   0  0  0  0  0  0  0  0  0  0  0  0
    5.0594   -5.2126   -0.1198 C   0  0  1  0  0  0  0  0  0  0  0  0
    5.6898   -5.6035    1.3680 C   0  0  2  0  0  0  0  0  0  0  0  0
    5.7034   -7.1369    1.6401 C   0  0  0  0  0  0  0  0  0  0  0  0
    4.6746   -4.7201    2.4489 C   0  0  2  0  0  0  0  0  0  0  0  0
    5.1759   -3.9054    1.6720 C   0  0  0  0  0  0  0  0  0  0  0  0
    4.0351   -5.0934    0.8672 C   0  0  2  0  0  0  0  0  0  0  0  0
    6.0500   -4.1221   -2.6129 H   0  0  0  0  0  0  0  0  0  0  0  0
   -0.1720   -8.8008    1.5905 H   0  0  0  0  0  0  0  0  0  0  0  0
    1.8477   -9.9135    2.2543 H   0  0  0  0  0  0  0  0  0  0  0  0
    4.3351   -9.7152    2.2450 H   0  0  0  0  0  0  0  0  0  0  0  0
    2.3497   -4.1150   -0.2133 H   0  0  0  0  0  0  0  0  0  0  0  0
    1.7037   -2.8698    2.5551 H   0  0  0  0  0  0  0  0  0  0  0  0
    2.3922   -2.0609    0.6268 H   0  0  0  0  0  0  0  0  0  0  0  0
    3.8061   -1.5738    1.4460 H   0  0  0  0  0  0  0  0  0  0  0  0
    4.0786   -0.7213   -1.6244 H   0  0  0  0  0  0  0  0  0  0  0  0
    4.9255   -6.0462   -0.8080 H   0  0  0  0  0  0  0  0  0  0  0  0
    6.7828   -5.4650    1.4315 H   0  0  0  0  0  0  0  0  0  0  0  0
    6.1176   -7.3517    2.6266 H   0  0  0  0  0  0  0  0  0  0  0  0
    6.3005   -7.6748    0.9022 H   0  0  0  0  0  0  0  0  0  0  0  0
    5.0254   -4.5783    3.4744 H   0  0  0  0  0  0  0  0  0  0  0  0
    5.1279   -3.0056    2.3275 H   0  0  0  0  0  0  0  0  0  0  0  0
    6.2289   -3.6242    1.4086 H   0  0  0  0  0  0  0  0  0  0  0  0
  1  2  1  0
  1 25  1  0
  2  7  2  0
  2  3  1  0
  3  4  2  0
  3 26  1  0
  4  5  1  0
  4 27  1  0
  5 20  1  0
  5  6  2  0
  6 23  1  0
  6  7  1  0
  7  8  1  0
  8  9  1  0
  9 23  1  0
  9 10  1  0
  9 28  1  6
 10 21  1  0
 10 11  1  1
 10 12  1  0
 11 29  1  0
 12 30  1  0
 12 31  1  0
 12 13  1  0
 13 17  2  0
 13 14  1  0
 14 32  1  0
 14 15  2  0
 15 16  1  0
 16 24  1  0
 16 17  1  0
 17 18  1  0
 18 23  1  0
 18 19  1  0
 18 33  1  6
 19 20  1  0
 19 21  1  0
 19 34  1  6
 20 35  1  0
 20 36  1  0
 21 22  1  0
 21 37  1  1
 23 22  1  1
 22 38  1  0
 22 39  1  0
M  END
>  <i_m_ct_stereo_status>  (196) 
1

>  <s_m_source_file>  (196) 
/var/tmp/pbs.5076255.sched01/tmpqm933_o1/456x1pmp19.sdf

>  <i_m_source_file_index>  (196) 
35

>  <i_lp_mmshare_version>  (196) 
48012

>  <i_f3d_flags>  (196) 
0

>  <s_epik_input>  (196) 
W0NAQF0xMjNjNGM1W2NIXVtjSF1jKFtPSF0pYzRPW0NASF0xW0NAQF02KFtPSF0pW0NASF0oW0NIMl0zKVtDQEBIXShbQ0gyXTUpW0NAQEhdMmM3YyhbQ0gyXTYpW2NIXVtuSF1uNw==

>  <s_epik_cmdline>  (196) 
J2VwaWtfcHl0aG9uJywgJy1waHQnLCAnMi4wJywgJy1waCcsICc3LjAnLCAnLXRuJywgJzgnLCAnLW1hJywgJzIwMCcsICctaW1hZScsICc8aW5maWxlLm1hZT4nLCAnLW9tYWUnLCAnPG91dGZpbGUubWFlPic=

>  <r_lp_tautomer_probability>  (196) 
0.5

>  <r_epik_Ionization_Penalty>  (196) 
0.0206501

>  <r_epik_Ionization_Penalty_Charging>  (196) 
0

>  <r_epik_Ionization_Penalty_Neutral>  (196) 
0.0206501

>  <r_epik_State_Penalty>  (196) 
0.284272

>  <r_epik_Charging_Adjusted_Penalty>  (196) 
0.284272

>  <i_epik_Tot_Q>  (196) 
0

>  <i_epik_Tot_abs_Q>  (196) 
0

>  <s_lp_Force_Field>  (196) 
OPLS3e

>  <r_lp_Energy>  (196) 
460.61

>  <b_lp_Chiralities_Consistent>  (196) 
1

>  <s_lp_Variant>  (196) 
46:0-1

>  <s_i_glide_gridfile>  (196) 
pfpi4k_grid

>  <i_i_glide_lignum>  (196) 
35

>  <i_i_glide_rotatable_bonds>  (196) 
2

>  <r_i_docking_score>  (196) 
-4.10596

>  <r_i_glide_ligand_efficiency>  (196) 
-0.17852

>  <r_i_glide_ligand_efficiency_sa>  (196) 
-0.507688

>  <r_i_glide_ligand_efficiency_ln>  (196) 
-0.992859

>  <r_i_glide_gscore>  (196) 
-4.10596

>  <r_i_glide_lipo>  (196) 
-0.373615

>  <r_i_glide_hbond>  (196) 
-0.110653

>  <r_i_glide_metal>  (196) 
-0

>  <r_i_glide_rewards>  (196) 
-1.30683

>  <r_i_glide_evdw>  (196) 
-24.164

>  <r_i_glide_ecoul>  (196) 
-7.37775

>  <r_i_glide_erotb>  (196) 
0

>  <r_i_glide_esite>  (196) 
0

>  <r_i_glide_emodel>  (196) 
-39.4368

>  <r_i_glide_energy>  (196) 
-31.5418

>  <r_i_glide_einternal>  (196) 
0.91878

>  <r_i_glide_intrahb_reward>  (196) 
-0

>  <i_i_glide_confnum>  (196) 
1

>  <i_i_glide_posenum>  (196) 
6

>  <r_i_glide_eff_state_penalty>  (196) 
0

>  <ligand_id>  (196) 
46

>  <original_smiles>  (196) 
Oc1ccc2c3c1OC1C4(O)Cc5c[nH]nc5C5C(C2)C4CC351

>  <smiles>  (196) 
[H]Oc1c([H])c([H])c2c3c1OC1([H])C4(O[H])C([H])([H])c5c([H])nn([H])c5C5([H])C([H])(C2([H])[H])C4([H])C([H])([H])C315

$$$$
46:0:1
     RDKit          3D

 39 45  0  0  1  0  0  0  0  0999 V2000
    3.0436   -0.6167    4.5294 O   0  0  0  0  0  0  0  0  0  0  0  0
    3.2722   -1.7880    3.8676 C   0  0  0  0  0  0  0  0  0  0  0  0
    3.2555   -3.0127    4.5813 C   0  0  0  0  0  0  0  0  0  0  0  0
    3.5393   -4.2370    3.9282 C   0  0  0  0  0  0  0  0  0  0  0  0
    3.7832   -4.2114    2.5405 C   0  0  0  0  0  0  0  0  0  0  0  0
    3.7373   -2.9940    1.8685 C   0  0  0  0  0  0  0  0  0  0  0  0
    3.5371   -1.7828    2.4816 C   0  0  0  0  0  0  0  0  0  0  0  0
    3.6949   -0.7500    1.6354 O   0  0  0  0  0  0  0  0  0  0  0  0
    3.8551   -1.3426    0.3378 C   0  0  1  0  0  0  0  0  0  0  0  0
    5.2665   -1.5954   -0.0948 C   0  0  2  0  0  0  0  0  0  0  0  0
    6.1920   -0.6542    0.4074 O   0  0  0  0  0  0  0  0  0  0  0  0
    4.9137   -1.1075   -1.6560 C   0  0  0  0  0  0  0  0  0  0  0  0
    3.7708   -1.9494   -2.3550 C   0  0  0  0  0  0  0  0  0  0  0  0
    3.1786   -1.7476   -3.6270 C   0  0  0  0  0  0  0  0  0  0  0  0
    2.2755   -2.6616   -3.9138 N   0  0  0  0  0  0  0  0  0  0  0  0
    2.2215   -3.4482   -2.8260 N   0  0  0  0  0  0  0  0  0  0  0  0
    3.1107   -3.0891   -1.8482 C   0  0  0  0  0  0  0  0  0  0  0  0
    3.2557   -3.8283   -0.4549 C   0  0  1  0  0  0  0  0  0  0  0  0
    4.5772   -4.5707    0.2290 C   0  0  2  0  0  0  0  0  0  0  0  0
    4.2530   -5.2560    1.5876 C   0  0  0  0  0  0  0  0  0  0  0  0
    5.7065   -3.2746    0.3609 C   0  0  2  0  0  0  0  0  0  0  0  0
    5.3993   -3.3631   -0.8273 C   0  0  0  0  0  0  0  0  0  0  0  0
    4.0148   -2.8537    0.2632 C   0  0  2  0  0  0  0  0  0  0  0  0
    1.5956   -4.2474   -2.7932 H   0  0  0  0  0  0  0  0  0  0  0  0
    3.0717    0.1360    3.9567 H   0  0  0  0  0  0  0  0  0  0  0  0
    3.0807   -3.0055    5.6431 H   0  0  0  0  0  0  0  0  0  0  0  0
    3.6030   -5.1586    4.4864 H   0  0  0  0  0  0  0  0  0  0  0  0
    3.0848   -0.9144   -0.3081 H   0  0  0  0  0  0  0  0  0  0  0  0
    5.8317    0.2074    0.2762 H   0  0  0  0  0  0  0  0  0  0  0  0
    4.6119   -0.0566   -1.6543 H   0  0  0  0  0  0  0  0  0  0  0  0
    5.8119   -1.1099   -2.2755 H   0  0  0  0  0  0  0  0  0  0  0  0
    3.3885   -0.9745   -4.3550 H   0  0  0  0  0  0  0  0  0  0  0  0
    2.2938   -4.0809   -0.0078 H   0  0  0  0  0  0  0  0  0  0  0  0
    4.8858   -5.4916   -0.2942 H   0  0  0  0  0  0  0  0  0  0  0  0
    5.1429   -5.7239    2.0083 H   0  0  0  0  0  0  0  0  0  0  0  0
    3.4901   -6.0272    1.4807 H   0  0  0  0  0  0  0  0  0  0  0  0
    6.7555   -3.5250    0.5377 H   0  0  0  0  0  0  0  0  0  0  0  0
    6.3250   -2.9291   -1.2696 H   0  0  0  0  0  0  0  0  0  0  0  0
    5.4507   -4.1870   -1.5866 H   0  0  0  0  0  0  0  0  0  0  0  0
  1  2  1  0
  1 25  1  0
  2  7  2  0
  2  3  1  0
  3  4  2  0
  3 26  1  0
  4  5  1  0
  4 27  1  0
  5 20  1  0
  5  6  2  0
  6 23  1  0
  6  7  1  0
  7  8  1  0
  8  9  1  0
  9 23  1  0
  9 10  1  0
  9 28  1  6
 10 21  1  0
 10 11  1  1
 10 12  1  0
 11 29  1  0
 12 30  1  0
 12 31  1  0
 12 13  1  0
 13 17  2  0
 13 14  1  0
 14 32  1  0
 14 15  2  0
 15 16  1  0
 16 24  1  0
 16 17  1  0
 17 18  1  0
 18 23  1  0
 18 19  1  0
 18 33  1  1
 19 20  1  0
 19 21  1  0
 19 34  1  6
 20 35  1  0
 20 36  1  0
 21 22  1  0
 21 37  1  6
 23 22  1  1
 22 38  1  0
 22 39  1  0
M  END
>  <i_m_ct_stereo_status>  (197) 
1

>  <s_m_source_file>  (197) 
/var/tmp/pbs.5076255.sched01/tmpqm933_o1/456x1pmp19.sdf

>  <i_m_source_file_index>  (197) 
35

>  <i_lp_mmshare_version>  (197) 
48012

>  <i_f3d_flags>  (197) 
0

>  <s_epik_input>  (197) 
W0NAQF0xMjNjNGM1W2NIXVtjSF1jKFtPSF0pYzRPW0NASF0xW0NAQF02KFtPSF0pW0NASF0oW0NIMl0zKVtDQEBIXShbQ0gyXTUpW0NAQEhdMmM3YyhbQ0gyXTYpW2NIXVtuSF1uNw==

>  <s_epik_cmdline>  (197) 
J2VwaWtfcHl0aG9uJywgJy1waHQnLCAnMi4wJywgJy1waCcsICc3LjAnLCAnLXRuJywgJzgnLCAnLW1hJywgJzIwMCcsICctaW1hZScsICc8aW5maWxlLm1hZT4nLCAnLW9tYWUnLCAnPG91dGZpbGUubWFlPic=

>  <r_lp_tautomer_probability>  (197) 
0.5

>  <r_epik_Ionization_Penalty>  (197) 
0.0206501

>  <r_epik_Ionization_Penalty_Charging>  (197) 
0

>  <r_epik_Ionization_Penalty_Neutral>  (197) 
0.0206501

>  <r_epik_State_Penalty>  (197) 
0.284272

>  <r_epik_Charging_Adjusted_Penalty>  (197) 
0.284272

>  <i_epik_Tot_Q>  (197) 
0

>  <i_epik_Tot_abs_Q>  (197) 
0

>  <s_lp_Force_Field>  (197) 
OPLS3e

>  <r_lp_Energy>  (197) 
460.61

>  <b_lp_Chiralities_Consistent>  (197) 
1

>  <s_lp_Variant>  (197) 
46:0-1

>  <s_i_glide_gridfile>  (197) 
pfpi4k_grid

>  <i_i_glide_lignum>  (197) 
35

>  <i_i_glide_rotatable_bonds>  (197) 
2

>  <r_i_docking_score>  (197) 
-3.84448

>  <r_i_glide_ligand_efficiency>  (197) 
-0.167151

>  <r_i_glide_ligand_efficiency_sa>  (197) 
-0.475356

>  <r_i_glide_ligand_efficiency_ln>  (197) 
-0.92963

>  <r_i_glide_gscore>  (197) 
-3.84448

>  <r_i_glide_lipo>  (197) 
-0.423817

>  <r_i_glide_hbond>  (197) 
-0.235234

>  <r_i_glide_metal>  (197) 
-0

>  <r_i_glide_rewards>  (197) 
-1.30683

>  <r_i_glide_evdw>  (197) 
-25.7738

>  <r_i_glide_ecoul>  (197) 
-3.93272

>  <r_i_glide_erotb>  (197) 
0

>  <r_i_glide_esite>  (197) 
0

>  <r_i_glide_emodel>  (197) 
-37.6759

>  <r_i_glide_energy>  (197) 
-29.7065

>  <r_i_glide_einternal>  (197) 
0.0481623

>  <r_i_glide_intrahb_reward>  (197) 
-0

>  <i_i_glide_confnum>  (197) 
2

>  <i_i_glide_posenum>  (197) 
15

>  <r_i_glide_eff_state_penalty>  (197) 
0

>  <ligand_id>  (197) 
46

>  <original_smiles>  (197) 
Oc1ccc2c3c1OC1C4(O)Cc5c[nH]nc5C5C(C2)C4CC351

>  <smiles>  (197) 
[H]Oc1c([H])c([H])c2c3c1OC1([H])C4(O[H])C([H])([H])c5c([H])nn([H])c5C5([H])C([H])(C2([H])[H])C4([H])C([H])([H])C315

$$$$
46:0:2
     RDKit          3D

 39 45  0  0  1  0  0  0  0  0999 V2000
    1.2055   -6.8661    2.8858 O   0  0  0  0  0  0  0  0  0  0  0  0
    2.4990   -6.7415    2.4650 C   0  0  0  0  0  0  0  0  0  0  0  0
    3.4446   -7.7604    2.7479 C   0  0  0  0  0  0  0  0  0  0  0  0
    4.7995   -7.6213    2.3547 C   0  0  0  0  0  0  0  0  0  0  0  0
    5.1693   -6.4732    1.6291 C   0  0  0  0  0  0  0  0  0  0  0  0
    4.2000   -5.5206    1.3267 C   0  0  0  0  0  0  0  0  0  0  0  0
    2.8976   -5.5907    1.7512 C   0  0  0  0  0  0  0  0  0  0  0  0
    2.2108   -4.4770    1.4523 O   0  0  0  0  0  0  0  0  0  0  0  0
    3.0900   -3.6791    0.6411 C   0  0  1  0  0  0  0  0  0  0  0  0
    3.9283   -2.6767    1.3729 C   0  0  2  0  0  0  0  0  0  0  0  0
    3.2959   -2.1475    2.5222 O   0  0  0  0  0  0  0  0  0  0  0  0
    3.7098   -1.5484    0.1527 C   0  0  0  0  0  0  0  0  0  0  0  0
    4.2089   -2.0349   -1.2794 C   0  0  0  0  0  0  0  0  0  0  0  0
    4.0768   -1.3698   -2.5311 C   0  0  0  0  0  0  0  0  0  0  0  0
    4.6096   -2.0551   -3.5273 N   0  0  0  0  0  0  0  0  0  0  0  0
    5.1058   -3.1763   -2.9499 N   0  0  0  0  0  0  0  0  0  0  0  0
    4.8860   -3.2270   -1.5936 C   0  0  0  0  0  0  0  0  0  0  0  0
    5.2899   -4.4505   -0.6748 C   0  0  1  0  0  0  0  0  0  0  0  0
    6.2933   -4.5011    0.6488 C   0  0  2  0  0  0  0  0  0  0  0  0
    6.4949   -5.9366    1.2072 C   0  0  0  0  0  0  0  0  0  0  0  0
    5.5063   -3.4385    1.7551 C   0  0  2  0  0  0  0  0  0  0  0  0
    5.7372   -2.7905    0.7337 C   0  0  0  0  0  0  0  0  0  0  0  0
    4.5275   -4.1489    0.4962 C   0  0  2  0  0  0  0  0  0  0  0  0
    5.5568   -3.8958   -3.4945 H   0  0  0  0  0  0  0  0  0  0  0  0
    1.0493   -7.6744    3.3500 H   0  0  0  0  0  0  0  0  0  0  0  0
    3.1531   -8.6269    3.3151 H   0  0  0  0  0  0  0  0  0  0  0  0
    5.5350   -8.3622    2.6363 H   0  0  0  0  0  0  0  0  0  0  0  0
    2.5634   -3.4674   -0.2889 H   0  0  0  0  0  0  0  0  0  0  0  0
    2.5054   -1.7059    2.2511 H   0  0  0  0  0  0  0  0  0  0  0  0
    2.6477   -1.2910    0.0971 H   0  0  0  0  0  0  0  0  0  0  0  0
    4.1741   -0.5933    0.4095 H   0  0  0  0  0  0  0  0  0  0  0  0
    3.6096   -0.4151   -2.7357 H   0  0  0  0  0  0  0  0  0  0  0  0
    5.0493   -5.4164   -1.1255 H   0  0  0  0  0  0  0  0  0  0  0  0
    7.3544   -4.3234    0.4019 H   0  0  0  0  0  0  0  0  0  0  0  0
    7.1577   -5.9304    2.0736 H   0  0  0  0  0  0  0  0  0  0  0  0
    6.9408   -6.6047    0.4715 H   0  0  0  0  0  0  0  0  0  0  0  0
    6.0820   -3.0738    2.6096 H   0  0  0  0  0  0  0  0  0  0  0  0
    5.7839   -1.7756    1.1911 H   0  0  0  0  0  0  0  0  0  0  0  0
    6.6699   -2.5444    0.1591 H   0  0  0  0  0  0  0  0  0  0  0  0
  1  2  1  0
  1 25  1  0
  2  7  2  0
  2  3  1  0
  3  4  2  0
  3 26  1  0
  4  5  1  0
  4 27  1  0
  5 20  1  0
  5  6  2  0
  6 23  1  0
  6  7  1  0
  7  8  1  0
  8  9  1  0
  9 23  1  0
  9 10  1  0
  9 28  1  6
 10 21  1  0
 10 11  1  1
 10 12  1  0
 11 29  1  0
 12 30  1  0
 12 31  1  0
 12 13  1  0
 13 17  2  0
 13 14  1  0
 14 32  1  0
 14 15  2  0
 15 16  1  0
 16 24  1  0
 16 17  1  0
 17 18  1  0
 18 23  1  0
 18 19  1  0
 18 33  1  6
 19 20  1  0
 19 21  1  0
 19 34  1  6
 20 35  1  0
 20 36  1  0
 21 22  1  0
 21 37  1  1
 23 22  1  1
 22 38  1  0
 22 39  1  0
M  END
>  <i_m_ct_stereo_status>  (198) 
1

>  <s_m_source_file>  (198) 
/var/tmp/pbs.5076255.sched01/tmpqm933_o1/456x1pmp19.sdf

>  <i_m_source_file_index>  (198) 
35

>  <i_lp_mmshare_version>  (198) 
48012

>  <i_f3d_flags>  (198) 
0

>  <s_epik_input>  (198) 
W0NAQF0xMjNjNGM1W2NIXVtjSF1jKFtPSF0pYzRPW0NASF0xW0NAQF02KFtPSF0pW0NASF0oW0NIMl0zKVtDQEBIXShbQ0gyXTUpW0NAQEhdMmM3YyhbQ0gyXTYpW2NIXVtuSF1uNw==

>  <s_epik_cmdline>  (198) 
J2VwaWtfcHl0aG9uJywgJy1waHQnLCAnMi4wJywgJy1waCcsICc3LjAnLCAnLXRuJywgJzgnLCAnLW1hJywgJzIwMCcsICctaW1hZScsICc8aW5maWxlLm1hZT4nLCAnLW9tYWUnLCAnPG91dGZpbGUubWFlPic=

>  <r_lp_tautomer_probability>  (198) 
0.5

>  <r_epik_Ionization_Penalty>  (198) 
0.0206501

>  <r_epik_Ionization_Penalty_Charging>  (198) 
0

>  <r_epik_Ionization_Penalty_Neutral>  (198) 
0.0206501

>  <r_epik_State_Penalty>  (198) 
0.284272

>  <r_epik_Charging_Adjusted_Penalty>  (198) 
0.284272

>  <i_epik_Tot_Q>  (198) 
0

>  <i_epik_Tot_abs_Q>  (198) 
0

>  <s_lp_Force_Field>  (198) 
OPLS3e

>  <r_lp_Energy>  (198) 
460.61

>  <b_lp_Chiralities_Consistent>  (198) 
1

>  <s_lp_Variant>  (198) 
46:0-1

>  <s_i_glide_gridfile>  (198) 
pfpi4k_grid

>  <i_i_glide_lignum>  (198) 
35

>  <i_i_glide_rotatable_bonds>  (198) 
2

>  <r_i_docking_score>  (198) 
-3.63819

>  <r_i_glide_ligand_efficiency>  (198) 
-0.158182

>  <r_i_glide_ligand_efficiency_sa>  (198) 
-0.44985

>  <r_i_glide_ligand_efficiency_ln>  (198) 
-0.879749

>  <r_i_glide_gscore>  (198) 
-3.63819

>  <r_i_glide_lipo>  (198) 
-0.516185

>  <r_i_glide_hbond>  (198) 
-0.00241014

>  <r_i_glide_metal>  (198) 
-0

>  <r_i_glide_rewards>  (198) 
-1.30683

>  <r_i_glide_evdw>  (198) 
-24.839

>  <r_i_glide_ecoul>  (198) 
-3.80543

>  <r_i_glide_erotb>  (198) 
0

>  <r_i_glide_esite>  (198) 
0

>  <r_i_glide_emodel>  (198) 
-36.1384

>  <r_i_glide_energy>  (198) 
-28.6445

>  <r_i_glide_einternal>  (198) 
0.148553

>  <r_i_glide_intrahb_reward>  (198) 
-0

>  <i_i_glide_confnum>  (198) 
2

>  <i_i_glide_posenum>  (198) 
8

>  <r_i_glide_eff_state_penalty>  (198) 
0

>  <ligand_id>  (198) 
46

>  <original_smiles>  (198) 
Oc1ccc2c3c1OC1C4(O)Cc5c[nH]nc5C5C(C2)C4CC351

>  <smiles>  (198) 
[H]Oc1c([H])c([H])c2c3c1OC1([H])C4(O[H])C([H])([H])c5c([H])nn([H])c5C5([H])C([H])(C2([H])[H])C4([H])C([H])([H])C315

$$$$
46:1:0
     RDKit          3D

 39 45  0  0  1  0  0  0  0  0999 V2000
    2.2229   -3.0517   -3.6723 O   0  0  0  0  0  0  0  0  0  0  0  0
    3.0190   -2.4954   -2.7106 C   0  0  0  0  0  0  0  0  0  0  0  0
    3.8187   -1.3793   -3.0406 C   0  0  0  0  0  0  0  0  0  0  0  0
    4.6889   -0.7963   -2.0782 C   0  0  0  0  0  0  0  0  0  0  0  0
    4.6987   -1.3349   -0.7775 C   0  0  0  0  0  0  0  0  0  0  0  0
    3.8614   -2.4002   -0.4857 C   0  0  0  0  0  0  0  0  0  0  0  0
    3.0434   -3.0278   -1.3961 C   0  0  0  0  0  0  0  0  0  0  0  0
    2.4052   -4.0891   -0.8702 O   0  0  0  0  0  0  0  0  0  0  0  0
    2.7514   -4.1041    0.5197 C   0  0  1  0  0  0  0  0  0  0  0  0
    3.9704   -4.8858    0.8932 C   0  0  2  0  0  0  0  0  0  0  0  0
    4.1882   -6.0140    0.0791 O   0  0  0  0  0  0  0  0  0  0  0  0
    3.1918   -5.4645    2.2602 C   0  0  0  0  0  0  0  0  0  0  0  0
    2.6880   -4.3269    3.2609 C   0  0  0  0  0  0  0  0  0  0  0  0
    1.9787   -4.4624    4.4085 C   0  0  0  0  0  0  0  0  0  0  0  0
    1.8250   -3.1923    4.9278 N   0  0  0  0  0  0  0  0  0  0  0  0
    2.4087   -2.2258    4.1839 N   0  0  0  0  0  0  0  0  0  0  0  0
    2.9257   -2.8725    3.1561 C   0  0  0  0  0  0  0  0  0  0  0  0
    3.6442   -2.0659    1.9937 C   0  0  1  0  0  0  0  0  0  0  0  0
    5.2210   -2.1456    1.4979 C   0  0  2  0  0  0  0  0  0  0  0  0
    5.5552   -1.0783    0.4222 C   0  0  0  0  0  0  0  0  0  0  0  0
    5.3677   -3.7691    0.9305 C   0  0  2  0  0  0  0  0  0  0  0  0
    5.0035   -3.8285    2.1057 C   0  0  0  0  0  0  0  0  0  0  0  0
    3.7600   -3.0832    0.9991 C   0  0  2  0  0  0  0  0  0  0  0  0
    1.3408   -2.9823    5.7931 H   0  0  0  0  0  0  0  0  0  0  0  0
    1.6703   -3.7540   -3.3552 H   0  0  0  0  0  0  0  0  0  0  0  0
    3.8054   -0.9754   -4.0463 H   0  0  0  0  0  0  0  0  0  0  0  0
    5.3400    0.0234   -2.3294 H   0  0  0  0  0  0  0  0  0  0  0  0
    1.8144   -4.1419    1.0731 H   0  0  0  0  0  0  0  0  0  0  0  0
    4.0073   -5.7876   -0.8283 H   0  0  0  0  0  0  0  0  0  0  0  0
    2.3484   -6.0817    1.9515 H   0  0  0  0  0  0  0  0  0  0  0  0
    3.8247   -6.1793    2.7855 H   0  0  0  0  0  0  0  0  0  0  0  0
    1.5815   -5.3420    4.9018 H   0  0  0  0  0  0  0  0  0  0  0  0
    3.0894   -1.1781    1.6779 H   0  0  0  0  0  0  0  0  0  0  0  0
    5.9425   -1.7845    2.2457 H   0  0  0  0  0  0  0  0  0  0  0  0
    6.5897   -1.1561    0.1065 H   0  0  0  0  0  0  0  0  0  0  0  0
    5.3855   -0.0652    0.7779 H   0  0  0  0  0  0  0  0  0  0  0  0
    6.3728   -4.1648    0.7829 H   0  0  0  0  0  0  0  0  0  0  0  0
    5.4296   -4.8324    2.3378 H   0  0  0  0  0  0  0  0  0  0  0  0
    5.4293   -3.4383    3.0600 H   0  0  0  0  0  0  0  0  0  0  0  0
  1  2  1  0
  1 25  1  0
  2  7  2  0
  2  3  1  0
  3  4  2  0
  3 26  1  0
  4  5  1  0
  4 27  1  0
  5 20  1  0
  5  6  2  0
  6 23  1  0
  6  7  1  0
  7  8  1  0
  8  9  1  0
  9 23  1  0
  9 10  1  0
  9 28  1  1
 10 21  1  0
 10 11  1  6
 10 12  1  0
 11 29  1  0
 12 13  1  0
 12 30  1  0
 12 31  1  0
 13 17  1  0
 13 14  2  0
 14 15  1  0
 14 32  1  0
 15 24  1  0
 15 16  1  0
 16 17  2  0
 17 18  1  0
 18 23  1  0
 18 19  1  0
 18 33  1  6
 19 20  1  0
 19 21  1  0
 19 34  1  1
 20 35  1  0
 20 36  1  0
 21 22  1  0
 21 37  1  1
 23 22  1  1
 22 38  1  0
 22 39  1  0
M  END
>  <i_m_ct_stereo_status>  (199) 
1

>  <s_m_source_file>  (199) 
/var/tmp/pbs.5076255.sched01/tmpqm933_o1/456x1pmp19.sdf

>  <i_m_source_file_index>  (199) 
36

>  <i_lp_mmshare_version>  (199) 
48012

>  <i_f3d_flags>  (199) 
0

>  <s_epik_input>  (199) 
W0NAQF0xMjNjNGM1W2NIXVtjSF1jKFtPSF0pYzRPW0NASF0xW0NAQF02KFtPSF0pW0NASF0oW0NIMl0zKVtDQEBIXShbQ0gyXTUpW0NAQEhdMmM3YyhbQ0gyXTYpW2NIXVtuSF1uNw==

>  <s_epik_cmdline>  (199) 
J2VwaWtfcHl0aG9uJywgJy1waHQnLCAnMi4wJywgJy1waCcsICc3LjAnLCAnLXRuJywgJzgnLCAnLW1hJywgJzIwMCcsICctaW1hZScsICc8aW5maWxlLm1hZT4nLCAnLW9tYWUnLCAnPG91dGZpbGUubWFlPic=

>  <r_lp_tautomer_probability>  (199) 
0.5

>  <r_epik_Ionization_Penalty>  (199) 
0.090108

>  <r_epik_Ionization_Penalty_Charging>  (199) 
0

>  <r_epik_Ionization_Penalty_Neutral>  (199) 
0.090108

>  <r_epik_State_Penalty>  (199) 
0.61805

>  <r_epik_Charging_Adjusted_Penalty>  (199) 
0.61805

>  <i_epik_Tot_Q>  (199) 
0

>  <i_epik_Tot_abs_Q>  (199) 
0

>  <s_lp_Force_Field>  (199) 
OPLS3e

>  <r_lp_Energy>  (199) 
462.681

>  <b_lp_Chiralities_Consistent>  (199) 
1

>  <s_lp_Variant>  (199) 
46:0-2

>  <s_i_glide_gridfile>  (199) 
pfpi4k_grid

>  <i_i_glide_lignum>  (199) 
36

>  <i_i_glide_rotatable_bonds>  (199) 
2

>  <r_i_docking_score>  (199) 
-3.3419

>  <r_i_glide_ligand_efficiency>  (199) 
-0.1453

>  <r_i_glide_ligand_efficiency_sa>  (199) 
-0.413213

>  <r_i_glide_ligand_efficiency_ln>  (199) 
-0.808101

>  <r_i_glide_gscore>  (199) 
-3.3419

>  <r_i_glide_lipo>  (199) 
-0.279566

>  <r_i_glide_hbond>  (199) 
0

>  <r_i_glide_metal>  (199) 
-0

>  <r_i_glide_rewards>  (199) 
-1.30683

>  <r_i_glide_evdw>  (199) 
-25.0906

>  <r_i_glide_ecoul>  (199) 
-3.33979

>  <r_i_glide_erotb>  (199) 
0

>  <r_i_glide_esite>  (199) 
0

>  <r_i_glide_emodel>  (199) 
-34.5069

>  <r_i_glide_energy>  (199) 
-28.4304

>  <r_i_glide_einternal>  (199) 
0.483534

>  <r_i_glide_intrahb_reward>  (199) 
-0

>  <i_i_glide_confnum>  (199) 
1

>  <i_i_glide_posenum>  (199) 
4

>  <r_i_glide_eff_state_penalty>  (199) 
0

>  <ligand_id>  (199) 
46

>  <original_smiles>  (199) 
Oc1ccc2c3c1OC1C4(O)Cc5c[nH]nc5C5C(C2)C4CC351

>  <smiles>  (199) 
[H]Oc1c([H])c([H])c2c3c1OC1([H])C4(O[H])C([H])([H])c5c(nn([H])c5[H])C5([H])C([H])(C2([H])[H])C4([H])C([H])([H])C315

$$$$
46:1:1
     RDKit          3D

 39 45  0  0  1  0  0  0  0  0999 V2000
    5.2009    0.4019    4.4350 O   0  0  0  0  0  0  0  0  0  0  0  0
    4.9284   -0.8808    4.0610 C   0  0  0  0  0  0  0  0  0  0  0  0
    4.6822   -1.8711    5.0477 C   0  0  0  0  0  0  0  0  0  0  0  0
    4.4588   -3.2189    4.6830 C   0  0  0  0  0  0  0  0  0  0  0  0
    4.4246   -3.5420    3.3131 C   0  0  0  0  0  0  0  0  0  0  0  0
    4.6096   -2.5298    2.3719 C   0  0  0  0  0  0  0  0  0  0  0  0
    4.9042   -1.2284    2.6922 C   0  0  0  0  0  0  0  0  0  0  0  0
    5.1854   -0.4940    1.5994 O   0  0  0  0  0  0  0  0  0  0  0  0
    4.8925   -1.3406    0.4737 C   0  0  1  0  0  0  0  0  0  0  0  0
    6.0593   -2.1247   -0.0489 C   0  0  2  0  0  0  0  0  0  0  0  0
    7.2988   -1.4553    0.0982 O   0  0  0  0  0  0  0  0  0  0  0  0
    5.5735   -1.8553   -1.6298 C   0  0  0  0  0  0  0  0  0  0  0  0
    4.1165   -2.3932   -1.9687 C   0  0  0  0  0  0  0  0  0  0  0  0
    3.4066   -2.2712   -3.1304 C   0  0  0  0  0  0  0  0  0  0  0  0
    2.2181   -2.9359   -2.9340 N   0  0  0  0  0  0  0  0  0  0  0  0
    2.0850   -3.4583   -1.6970 N   0  0  0  0  0  0  0  0  0  0  0  0
    3.2184   -3.1590   -1.0914 C   0  0  0  0  0  0  0  0  0  0  0  0
    3.4371   -3.5877    0.4252 C   0  0  1  0  0  0  0  0  0  0  0  0
    4.5927   -4.5853    1.0780 C   0  0  2  0  0  0  0  0  0  0  0  0
    4.3593   -4.8465    2.5926 C   0  0  0  0  0  0  0  0  0  0  0  0
    6.0562   -3.7363    0.7438 C   0  0  2  0  0  0  0  0  0  0  0  0
    5.4989   -3.9351   -0.3403 C   0  0  0  0  0  0  0  0  0  0  0  0
    4.5798   -2.7975    0.7565 C   0  0  2  0  0  0  0  0  0  0  0  0
    1.4773   -3.0195   -3.6219 H   0  0  0  0  0  0  0  0  0  0  0  0
    5.1832    0.5328    5.3702 H   0  0  0  0  0  0  0  0  0  0  0  0
    4.7244   -1.6125    6.0904 H   0  0  0  0  0  0  0  0  0  0  0  0
    4.3499   -3.9862    5.4364 H   0  0  0  0  0  0  0  0  0  0  0  0
    4.1757   -0.8166   -0.1656 H   0  0  0  0  0  0  0  0  0  0  0  0
    7.4360   -1.2867    1.0205 H   0  0  0  0  0  0  0  0  0  0  0  0
    5.6208   -0.7826   -1.8334 H   0  0  0  0  0  0  0  0  0  0  0  0
    6.3049   -2.2726   -2.3224 H   0  0  0  0  0  0  0  0  0  0  0  0
    3.6468   -1.7743   -4.0605 H   0  0  0  0  0  0  0  0  0  0  0  0
    2.5592   -3.4102    1.0472 H   0  0  0  0  0  0  0  0  0  0  0  0
    4.5020   -5.6370    0.7570 H   0  0  0  0  0  0  0  0  0  0  0  0
    5.1361   -5.4971    2.9950 H   0  0  0  0  0  0  0  0  0  0  0  0
    3.3945   -5.3228    2.7755 H   0  0  0  0  0  0  0  0  0  0  0  0
    6.9916   -4.2934    0.8327 H   0  0  0  0  0  0  0  0  0  0  0  0
    6.4086   -3.9334   -0.9845 H   0  0  0  0  0  0  0  0  0  0  0  0
    5.1515   -4.8546   -0.8795 H   0  0  0  0  0  0  0  0  0  0  0  0
  1  2  1  0
  1 25  1  0
  2  7  2  0
  2  3  1  0
  3  4  2  0
  3 26  1  0
  4  5  1  0
  4 27  1  0
  5 20  1  0
  5  6  2  0
  6 23  1  0
  6  7  1  0
  7  8  1  0
  8  9  1  0
  9 23  1  0
  9 10  1  0
  9 28  1  6
 10 21  1  0
 10 11  1  6
 10 12  1  0
 11 29  1  0
 12 13  1  0
 12 30  1  0
 12 31  1  0
 13 17  1  0
 13 14  2  0
 14 15  1  0
 14 32  1  0
 15 24  1  0
 15 16  1  0
 16 17  2  0
 17 18  1  0
 18 23  1  0
 18 19  1  0
 18 33  1  1
 19 20  1  0
 19 21  1  0
 19 34  1  6
 20 35  1  0
 20 36  1  0
 21 22  1  0
 21 37  1  6
 23 22  1  1
 22 38  1  0
 22 39  1  0
M  END
>  <i_m_ct_stereo_status>  (200) 
1

>  <s_m_source_file>  (200) 
/var/tmp/pbs.5076255.sched01/tmpqm933_o1/456x1pmp19.sdf

>  <i_m_source_file_index>  (200) 
36

>  <i_lp_mmshare_version>  (200) 
48012

>  <i_f3d_flags>  (200) 
0

>  <s_epik_input>  (200) 
W0NAQF0xMjNjNGM1W2NIXVtjSF1jKFtPSF0pYzRPW0NASF0xW0NAQF02KFtPSF0pW0NASF0oW0NIMl0zKVtDQEBIXShbQ0gyXTUpW0NAQEhdMmM3YyhbQ0gyXTYpW2NIXVtuSF1uNw==

>  <s_epik_cmdline>  (200) 
J2VwaWtfcHl0aG9uJywgJy1waHQnLCAnMi4wJywgJy1waCcsICc3LjAnLCAnLXRuJywgJzgnLCAnLW1hJywgJzIwMCcsICctaW1hZScsICc8aW5maWxlLm1hZT4nLCAnLW9tYWUnLCAnPG91dGZpbGUubWFlPic=

>  <r_lp_tautomer_probability>  (200) 
0.5

>  <r_epik_Ionization_Penalty>  (200) 
0.090108

>  <r_epik_Ionization_Penalty_Charging>  (200) 
0

>  <r_epik_Ionization_Penalty_Neutral>  (200) 
0.090108

>  <r_epik_State_Penalty>  (200) 
0.61805

>  <r_epik_Charging_Adjusted_Penalty>  (200) 
0.61805

>  <i_epik_Tot_Q>  (200) 
0

>  <i_epik_Tot_abs_Q>  (200) 
0

>  <s_lp_Force_Field>  (200) 
OPLS3e

>  <r_lp_Energy>  (200) 
462.681

>  <b_lp_Chiralities_Consistent>  (200) 
1

>  <s_lp_Variant>  (200) 
46:0-2

>  <s_i_glide_gridfile>  (200) 
pfpi4k_grid

>  <i_i_glide_lignum>  (200) 
36

>  <i_i_glide_rotatable_bonds>  (200) 
2

>  <r_i_docking_score>  (200) 
-3.33742

>  <r_i_glide_ligand_efficiency>  (200) 
-0.145105

>  <r_i_glide_ligand_efficiency_sa>  (200) 
-0.41266

>  <r_i_glide_ligand_efficiency_ln>  (200) 
-0.807018

>  <r_i_glide_gscore>  (200) 
-3.33742

>  <r_i_glide_lipo>  (200) 
-0.575876

>  <r_i_glide_hbond>  (200) 
-0.0422032

>  <r_i_glide_metal>  (200) 
-0

>  <r_i_glide_rewards>  (200) 
-1.30683

>  <r_i_glide_evdw>  (200) 
-26.3103

>  <r_i_glide_ecoul>  (200) 
-0.646601

>  <r_i_glide_erotb>  (200) 
0

>  <r_i_glide_esite>  (200) 
0

>  <r_i_glide_emodel>  (200) 
-33.4452

>  <r_i_glide_energy>  (200) 
-26.9569

>  <r_i_glide_einternal>  (200) 
0.04618

>  <r_i_glide_intrahb_reward>  (200) 
-0

>  <i_i_glide_confnum>  (200) 
2

>  <i_i_glide_posenum>  (200) 
2

>  <r_i_glide_eff_state_penalty>  (200) 
0

>  <ligand_id>  (200) 
46

>  <original_smiles>  (200) 
Oc1ccc2c3c1OC1C4(O)Cc5c[nH]nc5C5C(C2)C4CC351

>  <smiles>  (200) 
[H]Oc1c([H])c([H])c2c3c1OC1([H])C4(O[H])C([H])([H])c5c(nn([H])c5[H])C5([H])C([H])(C2([H])[H])C4([H])C([H])([H])C315

$$$$
46:1:2
     RDKit          3D

 39 45  0  0  1  0  0  0  0  0999 V2000
    3.9297    0.2341    4.1861 O   0  0  0  0  0  0  0  0  0  0  0  0
    3.6979   -1.0043    3.6666 C   0  0  0  0  0  0  0  0  0  0  0  0
    3.1870   -2.0371    4.4962 C   0  0  0  0  0  0  0  0  0  0  0  0
    2.9977   -3.3459    3.9889 C   0  0  0  0  0  0  0  0  0  0  0  0
    3.2722   -3.5842    2.6288 C   0  0  0  0  0  0  0  0  0  0  0  0
    3.7161   -2.5289    1.8341 C   0  0  0  0  0  0  0  0  0  0  0  0
    3.9784   -1.2681    2.3086 C   0  0  0  0  0  0  0  0  0  0  0  0
    4.5438   -0.4865    1.3701 O   0  0  0  0  0  0  0  0  0  0  0  0
    4.4949   -1.2445    0.1511 C   0  0  1  0  0  0  0  0  0  0  0  0
    5.7187   -2.0586   -0.1417 C   0  0  2  0  0  0  0  0  0  0  0  0
    6.9135   -1.4606    0.3295 O   0  0  0  0  0  0  0  0  0  0  0  0
    5.6270   -1.6695   -1.7677 C   0  0  0  0  0  0  0  0  0  0  0  0
    4.2743   -2.0953   -2.4816 C   0  0  0  0  0  0  0  0  0  0  0  0
    3.8680   -1.8520   -3.7640 C   0  0  0  0  0  0  0  0  0  0  0  0
    2.6441   -2.4588   -3.9149 N   0  0  0  0  0  0  0  0  0  0  0  0
    2.2120   -3.0695   -2.7923 N   0  0  0  0  0  0  0  0  0  0  0  0
    3.1685   -2.8703   -1.8990 C   0  0  0  0  0  0  0  0  0  0  0  0
    3.0038   -3.4021   -0.4084 C   0  0  1  0  0  0  0  0  0  0  0  0
    3.9249   -4.4980    0.4268 C   0  0  2  0  0  0  0  0  0  0  0  0
    3.3297   -4.8382    1.8226 C   0  0  0  0  0  0  0  0  0  0  0  0
    5.4630   -3.7149    0.5047 C   0  0  2  0  0  0  0  0  0  0  0  0
    5.1704   -3.8175   -0.6877 C   0  0  0  0  0  0  0  0  0  0  0  0
    4.0615   -2.6972    0.2439 C   0  0  2  0  0  0  0  0  0  0  0  0
    2.0884   -2.4425   -4.7688 H   0  0  0  0  0  0  0  0  0  0  0  0
    3.7165    0.3070    5.1034 H   0  0  0  0  0  0  0  0  0  0  0  0
    2.9921   -1.8472    5.5381 H   0  0  0  0  0  0  0  0  0  0  0  0
    2.6841   -4.1501    4.6397 H   0  0  0  0  0  0  0  0  0  0  0  0
    3.9661   -0.6467   -0.5956 H   0  0  0  0  0  0  0  0  0  0  0  0
    6.8418   -1.3518    1.2673 H   0  0  0  0  0  0  0  0  0  0  0  0
    5.7653   -0.5910   -1.8762 H   0  0  0  0  0  0  0  0  0  0  0  0
    6.4818   -2.0869   -2.3037 H   0  0  0  0  0  0  0  0  0  0  0  0
    4.3449   -1.3105   -4.5625 H   0  0  0  0  0  0  0  0  0  0  0  0
    2.0139   -3.2038    0.0060 H   0  0  0  0  0  0  0  0  0  0  0  0
    3.8711   -5.5214    0.0184 H   0  0  0  0  0  0  0  0  0  0  0  0
    3.9610   -5.5529    2.3505 H   0  0  0  0  0  0  0  0  0  0  0  0
    2.3318   -5.2669    1.7421 H   0  0  0  0  0  0  0  0  0  0  0  0
    6.3285   -4.3271    0.7751 H   0  0  0  0  0  0  0  0  0  0  0  0
    6.2059   -3.8282   -1.1007 H   0  0  0  0  0  0  0  0  0  0  0  0
    4.9223   -4.6808   -1.3582 H   0  0  0  0  0  0  0  0  0  0  0  0
  1  2  1  0
  1 25  1  0
  2  7  2  0
  2  3  1  0
  3  4  2  0
  3 26  1  0
  4  5  1  0
  4 27  1  0
  5 20  1  0
  5  6  2  0
  6 23  1  0
  6  7  1  0
  7  8  1  0
  8  9  1  0
  9 23  1  0
  9 10  1  0
  9 28  1  6
 10 21  1  0
 10 11  1  1
 10 12  1  0
 11 29  1  0
 12 13  1  0
 12 30  1  0
 12 31  1  0
 13 17  1  0
 13 14  2  0
 14 15  1  0
 14 32  1  0
 15 24  1  0
 15 16  1  0
 16 17  2  0
 17 18  1  0
 18 23  1  0
 18 19  1  0
 18 33  1  1
 19 20  1  0
 19 21  1  0
 19 34  1  6
 20 35  1  0
 20 36  1  0
 21 22  1  0
 21 37  1  6
 23 22  1  1
 22 38  1  0
 22 39  1  0
M  END
>  <i_m_ct_stereo_status>  (201) 
1

>  <s_m_source_file>  (201) 
/var/tmp/pbs.5076255.sched01/tmpqm933_o1/456x1pmp19.sdf

>  <i_m_source_file_index>  (201) 
36

>  <i_lp_mmshare_version>  (201) 
48012

>  <i_f3d_flags>  (201) 
0

>  <s_epik_input>  (201) 
W0NAQF0xMjNjNGM1W2NIXVtjSF1jKFtPSF0pYzRPW0NASF0xW0NAQF02KFtPSF0pW0NASF0oW0NIMl0zKVtDQEBIXShbQ0gyXTUpW0NAQEhdMmM3YyhbQ0gyXTYpW2NIXVtuSF1uNw==

>  <s_epik_cmdline>  (201) 
J2VwaWtfcHl0aG9uJywgJy1waHQnLCAnMi4wJywgJy1waCcsICc3LjAnLCAnLXRuJywgJzgnLCAnLW1hJywgJzIwMCcsICctaW1hZScsICc8aW5maWxlLm1hZT4nLCAnLW9tYWUnLCAnPG91dGZpbGUubWFlPic=

>  <r_lp_tautomer_probability>  (201) 
0.5

>  <r_epik_Ionization_Penalty>  (201) 
0.090108

>  <r_epik_Ionization_Penalty_Charging>  (201) 
0

>  <r_epik_Ionization_Penalty_Neutral>  (201) 
0.090108

>  <r_epik_State_Penalty>  (201) 
0.61805

>  <r_epik_Charging_Adjusted_Penalty>  (201) 
0.61805

>  <i_epik_Tot_Q>  (201) 
0

>  <i_epik_Tot_abs_Q>  (201) 
0

>  <s_lp_Force_Field>  (201) 
OPLS3e

>  <r_lp_Energy>  (201) 
462.681

>  <b_lp_Chiralities_Consistent>  (201) 
1

>  <s_lp_Variant>  (201) 
46:0-2

>  <s_i_glide_gridfile>  (201) 
pfpi4k_grid

>  <i_i_glide_lignum>  (201) 
36

>  <i_i_glide_rotatable_bonds>  (201) 
2

>  <r_i_docking_score>  (201) 
-3.29982

>  <r_i_glide_ligand_efficiency>  (201) 
-0.143471

>  <r_i_glide_ligand_efficiency_sa>  (201) 
-0.408011

>  <r_i_glide_ligand_efficiency_ln>  (201) 
-0.797927

>  <r_i_glide_gscore>  (201) 
-3.29982

>  <r_i_glide_lipo>  (201) 
-0.344578

>  <r_i_glide_hbond>  (201) 
-0.32

>  <r_i_glide_metal>  (201) 
-0

>  <r_i_glide_rewards>  (201) 
-1.30683

>  <r_i_glide_evdw>  (201) 
-28.3673

>  <r_i_glide_ecoul>  (201) 
0.599688

>  <r_i_glide_erotb>  (201) 
0

>  <r_i_glide_esite>  (201) 
0

>  <r_i_glide_emodel>  (201) 
-34.1495

>  <r_i_glide_energy>  (201) 
-27.7676

>  <r_i_glide_einternal>  (201) 
0.0514058

>  <r_i_glide_intrahb_reward>  (201) 
-0

>  <i_i_glide_confnum>  (201) 
2

>  <i_i_glide_posenum>  (201) 
9

>  <r_i_glide_eff_state_penalty>  (201) 
0

>  <ligand_id>  (201) 
46

>  <original_smiles>  (201) 
Oc1ccc2c3c1OC1C4(O)Cc5c[nH]nc5C5C(C2)C4CC351

>  <smiles>  (201) 
[H]Oc1c([H])c([H])c2c3c1OC1([H])C4(O[H])C([H])([H])c5c(nn([H])c5[H])C5([H])C([H])(C2([H])[H])C4([H])C([H])([H])C315

$$$$
46:2:0
     RDKit          3D

 40 46  0  0  1  0  0  0  0  0999 V2000
    3.9764   -3.8554   -3.4502 O   0  0  0  0  0  0  0  0  0  0  0  0
    4.7405   -3.2915   -2.4697 C   0  0  0  0  0  0  0  0  0  0  0  0
    6.1232   -3.1212   -2.7064 C   0  0  0  0  0  0  0  0  0  0  0  0
    6.9918   -2.6562   -1.6949 C   0  0  0  0  0  0  0  0  0  0  0  0
    6.4224   -2.2596   -0.4759 C   0  0  0  0  0  0  0  0  0  0  0  0
    5.0478   -2.3701   -0.2994 C   0  0  0  0  0  0  0  0  0  0  0  0
    4.1949   -2.9225   -1.2229 C   0  0  0  0  0  0  0  0  0  0  0  0
    2.9600   -3.0722   -0.7241 O   0  0  0  0  0  0  0  0  0  0  0  0
    2.9810   -2.4061    0.5477 C   0  0  1  0  0  0  0  0  0  0  0  0
    3.2448   -3.2761    1.7264 C   0  0  2  0  0  0  0  0  0  0  0  0
    2.7673   -4.5996    1.5501 O   0  0  0  0  0  0  0  0  0  0  0  0
    2.1033   -2.4527    2.6396 C   0  0  0  0  0  0  0  0  0  0  0  0
    2.3555   -0.8949    2.8102 C   0  0  0  0  0  0  0  0  0  0  0  0
    1.5006    0.0070    3.4509 C   0  0  0  0  0  0  0  0  0  0  0  0
    2.1194    1.2199    3.3739 N   0  0  0  0  0  0  0  0  0  0  0  0
    3.2984    1.1109    2.7271 N   0  0  0  0  0  0  0  0  0  0  0  0
    3.5088   -0.1700    2.3324 C   0  0  0  0  0  0  0  0  0  0  0  0
    4.7546   -0.6448    1.4873 C   0  0  1  0  0  0  0  0  0  0  0  0
    5.9114   -1.7567    1.8802 C   0  0  2  0  0  0  0  0  0  0  0  0
    7.0331   -1.8448    0.8108 C   0  0  0  0  0  0  0  0  0  0  0  0
    5.0076   -3.2169    2.0485 C   0  0  2  0  0  0  0  0  0  0  0  0
    4.5383   -2.4076    2.8511 C   0  0  0  0  0  0  0  0  0  0  0  0
    4.3097   -1.9433    1.0935 C   0  0  2  0  0  0  0  0  0  0  0  0
    1.7856    2.1127    3.7114 H   0  0  0  0  0  0  0  0  0  0  0  0
    3.3583   -4.4914   -3.1004 H   0  0  0  0  0  0  0  0  0  0  0  0
    6.5384   -3.4483   -3.6382 H   0  0  0  0  0  0  0  0  0  0  0  0
    8.0609   -2.6371   -1.8624 H   0  0  0  0  0  0  0  0  0  0  0  0
    2.2127   -1.6315    0.5325 H   0  0  0  0  0  0  0  0  0  0  0  0
    3.2977   -5.0230    0.8902 H   0  0  0  0  0  0  0  0  0  0  0  0
    1.1165   -2.5969    2.1976 H   0  0  0  0  0  0  0  0  0  0  0  0
    1.9927   -2.9180    3.6193 H   0  0  0  0  0  0  0  0  0  0  0  0
    0.5391   -0.1149    3.9350 H   0  0  0  0  0  0  0  0  0  0  0  0
    4.9982    0.0403    0.6713 H   0  0  0  0  0  0  0  0  0  0  0  0
    6.5606   -1.4268    2.7079 H   0  0  0  0  0  0  0  0  0  0  0  0
    7.7745   -2.5993    1.0776 H   0  0  0  0  0  0  0  0  0  0  0  0
    7.5512   -0.8914    0.6925 H   0  0  0  0  0  0  0  0  0  0  0  0
    5.4899   -4.0600    2.5536 H   0  0  0  0  0  0  0  0  0  0  0  0
    4.1241   -3.1322    3.5914 H   0  0  0  0  0  0  0  0  0  0  0  0
    4.9628   -1.8185    3.7051 H   0  0  0  0  0  0  0  0  0  0  0  0
    3.9004    1.9191    2.5494 H   0  0  0  0  0  0  0  0  0  0  0  0
  1  2  1  0
  1 25  1  0
  2  7  2  0
  2  3  1  0
  3  4  2  0
  3 26  1  0
  4  5  1  0
  4 27  1  0
  5 20  1  0
  5  6  2  0
  6 23  1  0
  6  7  1  0
  7  8  1  0
  8  9  1  0
  9 23  1  0
  9 10  1  0
  9 28  1  1
 10 21  1  0
 10 11  1  6
 10 12  1  0
 11 29  1  0
 12 13  1  0
 12 30  1  0
 12 31  1  0
 13 17  1  0
 13 14  2  0
 14 15  1  0
 14 32  1  0
 15 24  1  0
 15 16  1  0
 16 17  2  0
 16 40  1  0
 17 18  1  0
 18 23  1  0
 18 19  1  0
 18 33  1  6
 19 20  1  0
 19 21  1  0
 19 34  1  1
 20 35  1  0
 20 36  1  0
 21 22  1  0
 21 37  1  1
 23 22  1  1
 22 38  1  0
 22 39  1  0
M  CHG  1  16   1
M  END
>  <i_m_ct_stereo_status>  (202) 
1

>  <s_m_source_file>  (202) 
/var/tmp/pbs.5076255.sched01/tmpqm933_o1/456x1pmp19.sdf

>  <i_m_source_file_index>  (202) 
37

>  <i_lp_mmshare_version>  (202) 
48012

>  <i_f3d_flags>  (202) 
0

>  <s_epik_input>  (202) 
W0NAQF0xMjNjNGM1W2NIXVtjSF1jKFtPSF0pYzRPW0NASF0xW0NAQF02KFtPSF0pW0NASF0oW0NIMl0zKVtDQEBIXShbQ0gyXTUpW0NAQEhdMmM3YyhbQ0gyXTYpW2NIXVtuSF1uNw==

>  <s_epik_cmdline>  (202) 
J2VwaWtfcHl0aG9uJywgJy1waHQnLCAnMi4wJywgJy1waCcsICc3LjAnLCAnLXRuJywgJzgnLCAnLW1hJywgJzIwMCcsICctaW1hZScsICc8aW5maWxlLm1hZT4nLCAnLW9tYWUnLCAnPG91dGZpbGUubWFlPic=

>  <r_lp_tautomer_probability>  (202) 
1

>  <r_epik_Ionization_Penalty>  (202) 
3.20526

>  <r_epik_Ionization_Penalty_Charging>  (202) 
3.20407

>  <r_epik_Ionization_Penalty_Neutral>  (202) 
0.0011944

>  <r_epik_State_Penalty>  (202) 
2.10289

>  <r_epik_Charging_Adjusted_Penalty>  (202) 
5.30696

>  <i_epik_Tot_Q>  (202) 
1

>  <i_epik_Tot_abs_Q>  (202) 
1

>  <s_lp_Force_Field>  (202) 
OPLS3e

>  <r_lp_Energy>  (202) 
470.609

>  <b_lp_Chiralities_Consistent>  (202) 
1

>  <s_lp_Variant>  (202) 
46:0-3

>  <s_i_glide_gridfile>  (202) 
pfpi4k_grid

>  <i_i_glide_lignum>  (202) 
37

>  <i_i_glide_rotatable_bonds>  (202) 
2

>  <r_i_docking_score>  (202) 
-4.83166

>  <r_i_glide_ligand_efficiency>  (202) 
-0.210072

>  <r_i_glide_ligand_efficiency_sa>  (202) 
-0.597418

>  <r_i_glide_ligand_efficiency_ln>  (202) 
-1.16834

>  <r_i_glide_gscore>  (202) 
-4.83166

>  <r_i_glide_lipo>  (202) 
-0.628689

>  <r_i_glide_hbond>  (202) 
0

>  <r_i_glide_metal>  (202) 
-0

>  <r_i_glide_rewards>  (202) 
-1.29996

>  <r_i_glide_evdw>  (202) 
-20.0618

>  <r_i_glide_ecoul>  (202) 
-12.6035

>  <r_i_glide_erotb>  (202) 
0

>  <r_i_glide_esite>  (202) 
-0.00939647

>  <r_i_glide_emodel>  (202) 
-42.8586

>  <r_i_glide_energy>  (202) 
-32.6653

>  <r_i_glide_einternal>  (202) 
1.82954

>  <r_i_glide_intrahb_reward>  (202) 
-0

>  <i_i_glide_confnum>  (202) 
1

>  <i_i_glide_posenum>  (202) 
8

>  <r_i_glide_eff_state_penalty>  (202) 
0

>  <ligand_id>  (202) 
46

>  <original_smiles>  (202) 
Oc1ccc2c3c1OC1C4(O)Cc5c[nH]nc5C5C(C2)C4CC351

>  <smiles>  (202) 
[H]Oc1c([H])c([H])c2c3c1OC1([H])C4(O[H])C([H])([H])c5c([H])n([H])[n+]([H])c5C5([H])C([H])(C2([H])[H])C4([H])C([H])([H])C315

$$$$
46:2:1
     RDKit          3D

 40 46  0  0  1  0  0  0  0  0999 V2000
    2.8769   -0.0132    4.0480 O   0  0  0  0  0  0  0  0  0  0  0  0
    2.8448   -1.2440    3.4637 C   0  0  0  0  0  0  0  0  0  0  0  0
    2.3763   -2.3628    4.1943 C   0  0  0  0  0  0  0  0  0  0  0  0
    2.3910   -3.6605    3.6253 C   0  0  0  0  0  0  0  0  0  0  0  0
    2.8291   -3.8008    2.2957 C   0  0  0  0  0  0  0  0  0  0  0  0
    3.2240   -2.6670    1.5888 C   0  0  0  0  0  0  0  0  0  0  0  0
    3.2937   -1.4080    2.1331 C   0  0  0  0  0  0  0  0  0  0  0  0
    3.8572   -0.5260    1.2982 O   0  0  0  0  0  0  0  0  0  0  0  0
    4.0148   -1.2243    0.0524 C   0  0  1  0  0  0  0  0  0  0  0  0
    5.3435   -1.8882   -0.1473 C   0  0  2  0  0  0  0  0  0  0  0  0
    6.4173   -1.1947    0.4588 O   0  0  0  0  0  0  0  0  0  0  0  0
    5.3443   -1.4402   -1.7627 C   0  0  0  0  0  0  0  0  0  0  0  0
    4.1242   -1.9819   -2.6214 C   0  0  0  0  0  0  0  0  0  0  0  0
    3.8733   -1.6626   -3.9566 C   0  0  0  0  0  0  0  0  0  0  0  0
    2.7517   -2.3597   -4.2994 N   0  0  0  0  0  0  0  0  0  0  0  0
    2.2927   -3.0705   -3.2461 N   0  0  0  0  0  0  0  0  0  0  0  0
    3.0963   -2.8851   -2.1624 C   0  0  0  0  0  0  0  0  0  0  0  0
    2.8446   -3.5079   -0.7340 C   0  0  1  0  0  0  0  0  0  0  0  0
    3.8018   -4.5321    0.1475 C   0  0  2  0  0  0  0  0  0  0  0  0
    3.1132   -5.0015    1.4570 C   0  0  0  0  0  0  0  0  0  0  0  0
    5.2213   -3.5899    0.4136 C   0  0  2  0  0  0  0  0  0  0  0  0
    5.0713   -3.6688   -0.8059 C   0  0  0  0  0  0  0  0  0  0  0  0
    3.7504   -2.7228    0.0440 C   0  0  2  0  0  0  0  0  0  0  0  0
    2.2455   -2.3349   -5.1967 H   0  0  0  0  0  0  0  0  0  0  0  0
    3.1981    0.6592    3.4675 H   0  0  0  0  0  0  0  0  0  0  0  0
    2.0630   -2.2366    5.2152 H   0  0  0  0  0  0  0  0  0  0  0  0
    2.1081   -4.5237    4.2115 H   0  0  0  0  0  0  0  0  0  0  0  0
    3.4996   -0.6567   -0.7173 H   0  0  0  0  0  0  0  0  0  0  0  0
    6.2762   -1.1818    1.3940 H   0  0  0  0  0  0  0  0  0  0  0  0
    5.3687   -0.3467   -1.8332 H   0  0  0  0  0  0  0  0  0  0  0  0
    6.2766   -1.7490   -2.2374 H   0  0  0  0  0  0  0  0  0  0  0  0
    4.3857   -1.0151   -4.6543 H   0  0  0  0  0  0  0  0  0  0  0  0
    1.8083   -3.4321   -0.4254 H   0  0  0  0  0  0  0  0  0  0  0  0
    3.9059   -5.5342   -0.3038 H   0  0  0  0  0  0  0  0  0  0  0  0
    3.7672   -5.6668    2.0238 H   0  0  0  0  0  0  0  0  0  0  0  0
    2.1855   -5.5368    1.2532 H   0  0  0  0  0  0  0  0  0  0  0  0
    6.1212   -4.1097    0.7539 H   0  0  0  0  0  0  0  0  0  0  0  0
    6.1375   -3.5438   -1.1071 H   0  0  0  0  0  0  0  0  0  0  0  0
    4.9932   -4.5219   -1.5289 H   0  0  0  0  0  0  0  0  0  0  0  0
    1.4549   -3.6415   -3.3140 H   0  0  0  0  0  0  0  0  0  0  0  0
  1  2  1  0
  1 25  1  0
  2  7  2  0
  2  3  1  0
  3  4  2  0
  3 26  1  0
  4  5  1  0
  4 27  1  0
  5 20  1  0
  5  6  2  0
  6 23  1  0
  6  7  1  0
  7  8  1  0
  8  9  1  0
  9 23  1  0
  9 10  1  0
  9 28  1  6
 10 21  1  0
 10 11  1  1
 10 12  1  0
 11 29  1  0
 12 13  1  0
 12 30  1  0
 12 31  1  0
 13 17  1  0
 13 14  2  0
 14 15  1  0
 14 32  1  0
 15 24  1  0
 15 16  1  0
 16 17  2  0
 16 40  1  0
 17 18  1  0
 18 23  1  0
 18 19  1  0
 18 33  1  1
 19 20  1  0
 19 21  1  0
 19 34  1  6
 20 35  1  0
 20 36  1  0
 21 22  1  0
 21 37  1  6
 23 22  1  1
 22 38  1  0
 22 39  1  0
M  CHG  1  16   1
M  END
>  <i_m_ct_stereo_status>  (203) 
1

>  <s_m_source_file>  (203) 
/var/tmp/pbs.5076255.sched01/tmpqm933_o1/456x1pmp19.sdf

>  <i_m_source_file_index>  (203) 
37

>  <i_lp_mmshare_version>  (203) 
48012

>  <i_f3d_flags>  (203) 
0

>  <s_epik_input>  (203) 
W0NAQF0xMjNjNGM1W2NIXVtjSF1jKFtPSF0pYzRPW0NASF0xW0NAQF02KFtPSF0pW0NASF0oW0NIMl0zKVtDQEBIXShbQ0gyXTUpW0NAQEhdMmM3YyhbQ0gyXTYpW2NIXVtuSF1uNw==

>  <s_epik_cmdline>  (203) 
J2VwaWtfcHl0aG9uJywgJy1waHQnLCAnMi4wJywgJy1waCcsICc3LjAnLCAnLXRuJywgJzgnLCAnLW1hJywgJzIwMCcsICctaW1hZScsICc8aW5maWxlLm1hZT4nLCAnLW9tYWUnLCAnPG91dGZpbGUubWFlPic=

>  <r_lp_tautomer_probability>  (203) 
1

>  <r_epik_Ionization_Penalty>  (203) 
3.20526

>  <r_epik_Ionization_Penalty_Charging>  (203) 
3.20407

>  <r_epik_Ionization_Penalty_Neutral>  (203) 
0.0011944

>  <r_epik_State_Penalty>  (203) 
2.10289

>  <r_epik_Charging_Adjusted_Penalty>  (203) 
5.30696

>  <i_epik_Tot_Q>  (203) 
1

>  <i_epik_Tot_abs_Q>  (203) 
1

>  <s_lp_Force_Field>  (203) 
OPLS3e

>  <r_lp_Energy>  (203) 
470.609

>  <b_lp_Chiralities_Consistent>  (203) 
1

>  <s_lp_Variant>  (203) 
46:0-3

>  <s_i_glide_gridfile>  (203) 
pfpi4k_grid

>  <i_i_glide_lignum>  (203) 
37

>  <i_i_glide_rotatable_bonds>  (203) 
2

>  <r_i_docking_score>  (203) 
-4.67297

>  <r_i_glide_ligand_efficiency>  (203) 
-0.203173

>  <r_i_glide_ligand_efficiency_sa>  (203) 
-0.577796

>  <r_i_glide_ligand_efficiency_ln>  (203) 
-1.12997

>  <r_i_glide_gscore>  (203) 
-4.67297

>  <r_i_glide_lipo>  (203) 
-0.172444

>  <r_i_glide_hbond>  (203) 
-0.297086

>  <r_i_glide_metal>  (203) 
-0

>  <r_i_glide_rewards>  (203) 
-1.82996

>  <r_i_glide_evdw>  (203) 
-23.2129

>  <r_i_glide_ecoul>  (203) 
-8.04772

>  <r_i_glide_erotb>  (203) 
0

>  <r_i_glide_esite>  (203) 
-0.0056811

>  <r_i_glide_emodel>  (203) 
-42.4597

>  <r_i_glide_energy>  (203) 
-31.2606

>  <r_i_glide_einternal>  (203) 
0.0155084

>  <r_i_glide_intrahb_reward>  (203) 
-0

>  <i_i_glide_confnum>  (203) 
1

>  <i_i_glide_posenum>  (203) 
36

>  <r_i_glide_eff_state_penalty>  (203) 
0

>  <ligand_id>  (203) 
46

>  <original_smiles>  (203) 
Oc1ccc2c3c1OC1C4(O)Cc5c[nH]nc5C5C(C2)C4CC351

>  <smiles>  (203) 
[H]Oc1c([H])c([H])c2c3c1OC1([H])C4(O[H])C([H])([H])c5c([H])n([H])[n+]([H])c5C5([H])C([H])(C2([H])[H])C4([H])C([H])([H])C315

$$$$
46:2:2
     RDKit          3D

 40 46  0  0  1  0  0  0  0  0999 V2000
    1.7604   -1.6872    4.7205 O   0  0  0  0  0  0  0  0  0  0  0  0
    2.0734   -2.7271    3.8969 C   0  0  0  0  0  0  0  0  0  0  0  0
    1.8644   -4.0592    4.3305 C   0  0  0  0  0  0  0  0  0  0  0  0
    2.2313   -5.1554    3.5092 C   0  0  0  0  0  0  0  0  0  0  0  0
    2.7566   -4.8850    2.2309 C   0  0  0  0  0  0  0  0  0  0  0  0
    2.8949   -3.5606    1.8222 C   0  0  0  0  0  0  0  0  0  0  0  0
    2.6205   -2.4796    2.6188 C   0  0  0  0  0  0  0  0  0  0  0  0
    2.9911   -1.3239    2.0476 O   0  0  0  0  0  0  0  0  0  0  0  0
    3.3887   -1.6642    0.7103 C   0  0  1  0  0  0  0  0  0  0  0  0
    4.8439   -1.9396    0.5094 C   0  0  2  0  0  0  0  0  0  0  0  0
    5.6756   -1.1816    1.3668 O   0  0  0  0  0  0  0  0  0  0  0  0
    4.8132   -1.1492   -0.9734 C   0  0  0  0  0  0  0  0  0  0  0  0
    3.8074   -1.7530   -2.0527 C   0  0  0  0  0  0  0  0  0  0  0  0
    3.5515   -1.2170   -3.3206 C   0  0  0  0  0  0  0  0  0  0  0  0
    2.6518   -2.0630   -3.9115 N   0  0  0  0  0  0  0  0  0  0  0  0
    2.3287   -3.0661   -3.0637 N   0  0  0  0  0  0  0  0  0  0  0  0
    3.0119   -2.9467   -1.8923 C   0  0  0  0  0  0  0  0  0  0  0  0
    2.8491   -3.9100   -0.6527 C   0  0  1  0  0  0  0  0  0  0  0  0
    3.9852   -4.8635    0.0906 C   0  0  2  0  0  0  0  0  0  0  0  0
    3.3714   -5.7660    1.1967 C   0  0  0  0  0  0  0  0  0  0  0  0
    5.1141   -3.7053    0.6902 C   0  0  2  0  0  0  0  0  0  0  0  0
    5.0472   -3.5393   -0.5285 C   0  0  0  0  0  0  0  0  0  0  0  0
    3.4952   -3.1393    0.3614 C   0  0  2  0  0  0  0  0  0  0  0  0
    2.2194   -1.9837   -4.8313 H   0  0  0  0  0  0  0  0  0  0  0  0
    1.9546   -0.8482    4.3318 H   0  0  0  0  0  0  0  0  0  0  0  0
    1.4804   -4.2441    5.3191 H   0  0  0  0  0  0  0  0  0  0  0  0
    2.1454   -6.1697    3.8731 H   0  0  0  0  0  0  0  0  0  0  0  0
    2.7932   -1.0548    0.0309 H   0  0  0  0  0  0  0  0  0  0  0  0
    5.4917   -1.4309    2.2608 H   0  0  0  0  0  0  0  0  0  0  0  0
    4.5688   -0.0982   -0.8027 H   0  0  0  0  0  0  0  0  0  0  0  0
    5.8167   -1.0999   -1.3994 H   0  0  0  0  0  0  0  0  0  0  0  0
    3.9180   -0.3296   -3.8203 H   0  0  0  0  0  0  0  0  0  0  0  0
    1.8114   -4.1644   -0.4537 H   0  0  0  0  0  0  0  0  0  0  0  0
    4.3581   -5.6869   -0.5420 H   0  0  0  0  0  0  0  0  0  0  0  0
    4.1397   -6.3719    1.6792 H   0  0  0  0  0  0  0  0  0  0  0  0
    2.6175   -6.4419    0.7942 H   0  0  0  0  0  0  0  0  0  0  0  0
    6.0963   -4.0686    1.0074 H   0  0  0  0  0  0  0  0  0  0  0  0
    6.0633   -3.1065   -0.6874 H   0  0  0  0  0  0  0  0  0  0  0  0
    5.2188   -4.2047   -1.4140 H   0  0  0  0  0  0  0  0  0  0  0  0
    1.6479   -3.7788   -3.3139 H   0  0  0  0  0  0  0  0  0  0  0  0
  1  2  1  0
  1 25  1  0
  2  7  2  0
  2  3  1  0
  3  4  2  0
  3 26  1  0
  4  5  1  0
  4 27  1  0
  5 20  1  0
  5  6  2  0
  6 23  1  0
  6  7  1  0
  7  8  1  0
  8  9  1  0
  9 23  1  0
  9 10  1  0
  9 28  1  6
 10 21  1  0
 10 11  1  1
 10 12  1  0
 11 29  1  0
 12 13  1  0
 12 30  1  0
 12 31  1  0
 13 17  1  0
 13 14  2  0
 14 15  1  0
 14 32  1  0
 15 24  1  0
 15 16  1  0
 16 17  2  0
 16 40  1  0
 17 18  1  0
 18 23  1  0
 18 19  1  0
 18 33  1  1
 19 20  1  0
 19 21  1  0
 19 34  1  6
 20 35  1  0
 20 36  1  0
 21 22  1  0
 21 37  1  6
 23 22  1  1
 22 38  1  0
 22 39  1  0
M  CHG  1  16   1
M  END
>  <i_m_ct_stereo_status>  (204) 
1

>  <s_m_source_file>  (204) 
/var/tmp/pbs.5076255.sched01/tmpqm933_o1/456x1pmp19.sdf

>  <i_m_source_file_index>  (204) 
37

>  <i_lp_mmshare_version>  (204) 
48012

>  <i_f3d_flags>  (204) 
0

>  <s_epik_input>  (204) 
W0NAQF0xMjNjNGM1W2NIXVtjSF1jKFtPSF0pYzRPW0NASF0xW0NAQF02KFtPSF0pW0NASF0oW0NIMl0zKVtDQEBIXShbQ0gyXTUpW0NAQEhdMmM3YyhbQ0gyXTYpW2NIXVtuSF1uNw==

>  <s_epik_cmdline>  (204) 
J2VwaWtfcHl0aG9uJywgJy1waHQnLCAnMi4wJywgJy1waCcsICc3LjAnLCAnLXRuJywgJzgnLCAnLW1hJywgJzIwMCcsICctaW1hZScsICc8aW5maWxlLm1hZT4nLCAnLW9tYWUnLCAnPG91dGZpbGUubWFlPic=

>  <r_lp_tautomer_probability>  (204) 
1

>  <r_epik_Ionization_Penalty>  (204) 
3.20526

>  <r_epik_Ionization_Penalty_Charging>  (204) 
3.20407

>  <r_epik_Ionization_Penalty_Neutral>  (204) 
0.0011944

>  <r_epik_State_Penalty>  (204) 
2.10289

>  <r_epik_Charging_Adjusted_Penalty>  (204) 
5.30696

>  <i_epik_Tot_Q>  (204) 
1

>  <i_epik_Tot_abs_Q>  (204) 
1

>  <s_lp_Force_Field>  (204) 
OPLS3e

>  <r_lp_Energy>  (204) 
470.609

>  <b_lp_Chiralities_Consistent>  (204) 
1

>  <s_lp_Variant>  (204) 
46:0-3

>  <s_i_glide_gridfile>  (204) 
pfpi4k_grid

>  <i_i_glide_lignum>  (204) 
37

>  <i_i_glide_rotatable_bonds>  (204) 
2

>  <r_i_docking_score>  (204) 
-4.60912

>  <r_i_glide_ligand_efficiency>  (204) 
-0.200397

>  <r_i_glide_ligand_efficiency_sa>  (204) 
-0.569901

>  <r_i_glide_ligand_efficiency_ln>  (204) 
-1.11453

>  <r_i_glide_gscore>  (204) 
-4.60912

>  <r_i_glide_lipo>  (204) 
-0.248983

>  <r_i_glide_hbond>  (204) 
-0.32

>  <r_i_glide_metal>  (204) 
-0

>  <r_i_glide_rewards>  (204) 
-1.82996

>  <r_i_glide_evdw>  (204) 
-24.676

>  <r_i_glide_ecoul>  (204) 
-6.5092

>  <r_i_glide_erotb>  (204) 
0

>  <r_i_glide_esite>  (204) 
0

>  <r_i_glide_emodel>  (204) 
-42.2673

>  <r_i_glide_energy>  (204) 
-31.1852

>  <r_i_glide_einternal>  (204) 
0.00748861

>  <r_i_glide_intrahb_reward>  (204) 
-0

>  <i_i_glide_confnum>  (204) 
1

>  <i_i_glide_posenum>  (204) 
3

>  <r_i_glide_eff_state_penalty>  (204) 
0

>  <ligand_id>  (204) 
46

>  <original_smiles>  (204) 
Oc1ccc2c3c1OC1C4(O)Cc5c[nH]nc5C5C(C2)C4CC351

>  <smiles>  (204) 
[H]Oc1c([H])c([H])c2c3c1OC1([H])C4(O[H])C([H])([H])c5c([H])n([H])[n+]([H])c5C5([H])C([H])(C2([H])[H])C4([H])C([H])([H])C315

$$$$
47:1:0
     RDKit          3D

 31 33  0  0  1  0  0  0  0  0999 V2000
    3.2666    0.4467    2.9511 C   0  0  0  0  0  0  0  0  0  0  0  0
    1.9828   -0.1751    2.3755 C   0  0  0  0  0  0  0  0  0  0  0  0
    1.7104   -1.4846    2.9636 N   0  0  0  0  0  0  0  0  0  0  0  0
    0.9418   -1.7302    4.0545 C   0  0  0  0  0  0  0  0  0  0  0  0
    0.2727   -0.8870    4.6497 O   0  0  0  0  0  0  0  0  0  0  0  0
    1.0477   -3.1674    4.3038 C   0  0  0  0  0  0  0  0  0  0  0  0
    0.3721   -3.8635    5.2901 C   0  0  0  0  0  0  0  0  0  0  0  0
   -0.3769   -3.0551    6.6561 S   0  0  0  0  0  0  0  0  0  0  0  0
   -0.5584   -4.6103    7.5208 C   0  0  0  0  0  0  0  0  0  0  0  0
   -0.9533   -4.7144    8.6834 O   0  0  0  0  0  0  0  0  0  0  0  0
   -0.2066   -5.6575    6.6687 N   0  0  0  0  0  0  0  0  0  0  0  0
    0.2180   -5.3314    5.5037 C   0  0  0  0  0  0  0  0  0  0  0  0
    0.4180   -6.3978    4.4893 C   0  0  0  0  0  0  0  0  0  0  0  0
    0.3139   -7.7679    4.8394 C   0  0  0  0  0  0  0  0  0  0  0  0
    0.4638   -8.7351    3.8237 C   0  0  0  0  0  0  0  0  0  0  0  0
    0.7450   -8.3089    2.5113 C   0  0  0  0  0  0  0  0  0  0  0  0
    0.7776   -7.0090    2.1619 N   0  0  0  0  0  0  0  0  0  0  0  0
    0.5955   -6.1065    3.1291 C   0  0  0  0  0  0  0  0  0  0  0  0
    1.9455   -3.6407    3.2721 C   0  0  0  0  0  0  0  0  0  0  0  0
    2.2982   -2.6291    2.4849 C   0  0  0  0  0  0  0  0  0  0  0  0
    3.2508   -2.7423    1.0487 Cl  0  0  0  0  0  0  0  0  0  0  0  0
    3.4084    1.4384    2.5282 H   0  0  0  0  0  0  0  0  0  0  0  0
    4.1488   -0.1468    2.7048 H   0  0  0  0  0  0  0  0  0  0  0  0
    3.2190    0.5471    4.0361 H   0  0  0  0  0  0  0  0  0  0  0  0
    1.1243    0.4783    2.5543 H   0  0  0  0  0  0  0  0  0  0  0  0
    2.0738   -0.2813    1.2941 H   0  0  0  0  0  0  0  0  0  0  0  0
    0.0742   -8.0879    5.8547 H   0  0  0  0  0  0  0  0  0  0  0  0
    0.3624   -9.7847    4.0411 H   0  0  0  0  0  0  0  0  0  0  0  0
    0.8851   -9.0075    1.6944 H   0  0  0  0  0  0  0  0  0  0  0  0
    0.4283   -5.1167    2.7486 H   0  0  0  0  0  0  0  0  0  0  0  0
    2.3340   -4.6445    3.0975 H   0  0  0  0  0  0  0  0  0  0  0  0
  1  2  1  0
  1 22  1  0
  1 23  1  0
  1 24  1  0
  2  3  1  0
  2 25  1  0
  2 26  1  0
  3 20  1  0
  3  4  1  0
  4  5  2  0
  4  6  1  0
  6  7  2  3
  6 19  1  0
  7 12  1  0
  7  8  1  0
  8  9  1  0
  9 10  2  0
  9 11  1  0
 11 12  2  0
 12 13  1  0
 13 18  1  0
 13 14  2  0
 14 15  1  0
 14 27  1  0
 15 16  2  0
 15 28  1  0
 16 17  1  0
 16 29  1  0
 17 18  2  0
 18 30  1  0
 19 20  2  0
 19 31  1  0
 20 21  1  0
M  END
>  <i_m_ct_stereo_status>  (205) 
1

>  <s_m_source_file>  (205) 
/var/tmp/pbs.5076255.sched01/tmpqm933_o1/456x1pmp19.sdf

>  <i_m_source_file_index>  (205) 
39

>  <i_lp_mmshare_version>  (205) 
48012

>  <i_f3d_flags>  (205) 
1

>  <s_epik_input>  (205) 
W0NIM11bQ0gyXU4xQyg9TykvQyhbQ0hdPUMxQ2wpPUMyL1NDKD1PKU49QzJjM1tjSF1bY0hdW2NIXW5bY0hdMw==

>  <s_epik_cmdline>  (205) 
J2VwaWtfcHl0aG9uJywgJy1waHQnLCAnMi4wJywgJy1waCcsICc3LjAnLCAnLXRuJywgJzgnLCAnLW1hJywgJzIwMCcsICctaW1hZScsICc8aW5maWxlLm1hZT4nLCAnLW9tYWUnLCAnPG91dGZpbGUubWFlPic=

>  <r_lp_tautomer_probability>  (205) 
1

>  <r_epik_Ionization_Penalty>  (205) 
8.49317e-07

>  <r_epik_Ionization_Penalty_Charging>  (205) 
0

>  <r_epik_Ionization_Penalty_Neutral>  (205) 
8.49317e-07

>  <r_epik_State_Penalty>  (205) 
-0

>  <r_epik_Charging_Adjusted_Penalty>  (205) 
0

>  <i_epik_Tot_Q>  (205) 
0

>  <i_epik_Tot_abs_Q>  (205) 
0

>  <s_epik_Chemistry_Notes>  (205) 
This compound has an imine and may undergo hydrolysis.

>  <s_lp_Force_Field>  (205) 
OPLS3e

>  <r_lp_Energy>  (205) 
37.6393

>  <b_lp_Chiralities_Consistent>  (205) 
1

>  <s_lp_Variant>  (205) 
47:0-2

>  <s_i_glide_gridfile>  (205) 
pfpi4k_grid

>  <i_i_glide_lignum>  (205) 
39

>  <i_i_glide_rotatable_bonds>  (205) 
2

>  <r_i_docking_score>  (205) 
-2.70076

>  <r_i_glide_ligand_efficiency>  (205) 
-0.128608

>  <r_i_glide_ligand_efficiency_sa>  (205) 
-0.354819

>  <r_i_glide_ligand_efficiency_ln>  (205) 
-0.667757

>  <r_i_glide_gscore>  (205) 
-2.70076

>  <r_i_glide_lipo>  (205) 
-0.0484414

>  <r_i_glide_hbond>  (205) 
0

>  <r_i_glide_metal>  (205) 
-0

>  <r_i_glide_rewards>  (205) 
-1.23283

>  <r_i_glide_evdw>  (205) 
-21.9366

>  <r_i_glide_ecoul>  (205) 
-3.20506

>  <r_i_glide_erotb>  (205) 
0.182526

>  <r_i_glide_esite>  (205) 
-0.0244271

>  <r_i_glide_emodel>  (205) 
-26.4954

>  <r_i_glide_energy>  (205) 
-25.1417

>  <r_i_glide_einternal>  (205) 
0.378376

>  <r_i_glide_intrahb_reward>  (205) 
-0

>  <i_i_glide_confnum>  (205) 
4

>  <i_i_glide_posenum>  (205) 
31

>  <r_i_glide_eff_state_penalty>  (205) 
0

>  <ligand_id>  (205) 
47

>  <original_smiles>  (205) 
CCN1C(=O)C(=C2SC(=O)N=C2c2cccnc2)C=C1Cl

>  <smiles>  (205) 
[H]C1=C(Cl)N(C([H])([H])C([H])([H])[H])C(=O)C1=C1SC(=O)N=C1c1c([H])nc([H])c([H])c1[H]

$$$$
47:1:1
     RDKit          3D

 31 33  0  0  1  0  0  0  0  0999 V2000
    5.3392   -3.3767    0.8025 C   0  0  0  0  0  0  0  0  0  0  0  0
    5.4906   -2.3573    1.9463 C   0  0  0  0  0  0  0  0  0  0  0  0
    4.1934   -1.8725    2.4150 N   0  0  0  0  0  0  0  0  0  0  0  0
    3.4789   -2.3757    3.4460 C   0  0  0  0  0  0  0  0  0  0  0  0
    3.8652   -3.2895    4.1727 O   0  0  0  0  0  0  0  0  0  0  0  0
    2.2551   -1.5665    3.5101 C   0  0  0  0  0  0  0  0  0  0  0  0
    1.2619   -1.7364    4.4392 C   0  0  0  0  0  0  0  0  0  0  0  0
    1.1108   -3.1662    5.4299 S   0  0  0  0  0  0  0  0  0  0  0  0
   -0.5316   -2.7069    5.9195 C   0  0  0  0  0  0  0  0  0  0  0  0
   -1.2667   -3.4010    6.6227 O   0  0  0  0  0  0  0  0  0  0  0  0
   -0.8358   -1.4306    5.4232 N   0  0  0  0  0  0  0  0  0  0  0  0
    0.0697   -0.8846    4.7024 C   0  0  0  0  0  0  0  0  0  0  0  0
   -0.1019    0.5369    4.3073 C   0  0  0  0  0  0  0  0  0  0  0  0
   -1.3870    1.1195    4.2358 C   0  0  0  0  0  0  0  0  0  0  0  0
   -1.5176    2.4790    3.8739 C   0  0  0  0  0  0  0  0  0  0  0  0
   -0.3422    3.2062    3.6106 C   0  0  0  0  0  0  0  0  0  0  0  0
    0.8892    2.6796    3.7406 N   0  0  0  0  0  0  0  0  0  0  0  0
    1.0020    1.3817    4.0858 C   0  0  0  0  0  0  0  0  0  0  0  0
    2.3747   -0.6084    2.4315 C   0  0  0  0  0  0  0  0  0  0  0  0
    3.5368   -0.8072    1.8219 C   0  0  0  0  0  0  0  0  0  0  0  0
    4.1783    0.1166    0.5127 Cl  0  0  0  0  0  0  0  0  0  0  0  0
    6.3137   -3.7689    0.4973 H   0  0  0  0  0  0  0  0  0  0  0  0
    4.8747   -2.9262   -0.0764 H   0  0  0  0  0  0  0  0  0  0  0  0
    4.7228   -4.2235    1.1057 H   0  0  0  0  0  0  0  0  0  0  0  0
    6.0414   -2.8156    2.7698 H   0  0  0  0  0  0  0  0  0  0  0  0
    6.1086   -1.5253    1.6106 H   0  0  0  0  0  0  0  0  0  0  0  0
   -2.2829    0.5534    4.4516 H   0  0  0  0  0  0  0  0  0  0  0  0
   -2.4845    2.9549    3.8168 H   0  0  0  0  0  0  0  0  0  0  0  0
   -0.3823    4.2455    3.3013 H   0  0  0  0  0  0  0  0  0  0  0  0
    2.0183    1.0214    4.2329 H   0  0  0  0  0  0  0  0  0  0  0  0
    1.6568    0.1365    2.1241 H   0  0  0  0  0  0  0  0  0  0  0  0
  1  2  1  0
  1 22  1  0
  1 23  1  0
  1 24  1  0
  2  3  1  0
  2 25  1  0
  2 26  1  0
  3 20  1  0
  3  4  1  0
  4  5  2  0
  4  6  1  0
  6  7  2  3
  6 19  1  0
  7 12  1  0
  7  8  1  0
  8  9  1  0
  9 10  2  0
  9 11  1  0
 11 12  2  0
 12 13  1  0
 13 18  1  0
 13 14  2  0
 14 15  1  0
 14 27  1  0
 15 16  2  0
 15 28  1  0
 16 17  1  0
 16 29  1  0
 17 18  2  0
 18 30  1  0
 19 20  2  0
 19 31  1  0
 20 21  1  0
M  END
>  <i_m_ct_stereo_status>  (206) 
1

>  <s_m_source_file>  (206) 
/var/tmp/pbs.5076255.sched01/tmpqm933_o1/456x1pmp19.sdf

>  <i_m_source_file_index>  (206) 
39

>  <i_lp_mmshare_version>  (206) 
48012

>  <i_f3d_flags>  (206) 
1

>  <s_epik_input>  (206) 
W0NIM11bQ0gyXU4xQyg9TykvQyhbQ0hdPUMxQ2wpPUMyL1NDKD1PKU49QzJjM1tjSF1bY0hdW2NIXW5bY0hdMw==

>  <s_epik_cmdline>  (206) 
J2VwaWtfcHl0aG9uJywgJy1waHQnLCAnMi4wJywgJy1waCcsICc3LjAnLCAnLXRuJywgJzgnLCAnLW1hJywgJzIwMCcsICctaW1hZScsICc8aW5maWxlLm1hZT4nLCAnLW9tYWUnLCAnPG91dGZpbGUubWFlPic=

>  <r_lp_tautomer_probability>  (206) 
1

>  <r_epik_Ionization_Penalty>  (206) 
8.49317e-07

>  <r_epik_Ionization_Penalty_Charging>  (206) 
0

>  <r_epik_Ionization_Penalty_Neutral>  (206) 
8.49317e-07

>  <r_epik_State_Penalty>  (206) 
-0

>  <r_epik_Charging_Adjusted_Penalty>  (206) 
0

>  <i_epik_Tot_Q>  (206) 
0

>  <i_epik_Tot_abs_Q>  (206) 
0

>  <s_epik_Chemistry_Notes>  (206) 
This compound has an imine and may undergo hydrolysis.

>  <s_lp_Force_Field>  (206) 
OPLS3e

>  <r_lp_Energy>  (206) 
37.6393

>  <b_lp_Chiralities_Consistent>  (206) 
1

>  <s_lp_Variant>  (206) 
47:0-2

>  <s_i_glide_gridfile>  (206) 
pfpi4k_grid

>  <i_i_glide_lignum>  (206) 
39

>  <i_i_glide_rotatable_bonds>  (206) 
2

>  <r_i_docking_score>  (206) 
-2.61845

>  <r_i_glide_ligand_efficiency>  (206) 
-0.124688

>  <r_i_glide_ligand_efficiency_sa>  (206) 
-0.344006

>  <r_i_glide_ligand_efficiency_ln>  (206) 
-0.647408

>  <r_i_glide_gscore>  (206) 
-2.61845

>  <r_i_glide_lipo>  (206) 
-0.172422

>  <r_i_glide_hbond>  (206) 
0

>  <r_i_glide_metal>  (206) 
-0

>  <r_i_glide_rewards>  (206) 
-1.23931

>  <r_i_glide_evdw>  (206) 
-20.9539

>  <r_i_glide_ecoul>  (206) 
-2.01102

>  <r_i_glide_erotb>  (206) 
0.182526

>  <r_i_glide_esite>  (206) 
-0.0398972

>  <r_i_glide_emodel>  (206) 
-26.4725

>  <r_i_glide_energy>  (206) 
-22.9649

>  <r_i_glide_einternal>  (206) 
0.354705

>  <r_i_glide_intrahb_reward>  (206) 
-0

>  <i_i_glide_confnum>  (206) 
2

>  <i_i_glide_posenum>  (206) 
19

>  <r_i_glide_eff_state_penalty>  (206) 
0

>  <ligand_id>  (206) 
47

>  <original_smiles>  (206) 
CCN1C(=O)C(=C2SC(=O)N=C2c2cccnc2)C=C1Cl

>  <smiles>  (206) 
[H]C1=C(Cl)N(C([H])([H])C([H])([H])[H])C(=O)C1=C1SC(=O)N=C1c1c([H])nc([H])c([H])c1[H]

$$$$
47:1:2
     RDKit          3D

 31 33  0  0  1  0  0  0  0  0999 V2000
    5.8638   -3.2263    1.9156 C   0  0  0  0  0  0  0  0  0  0  0  0
    4.5436   -3.2075    1.1305 C   0  0  0  0  0  0  0  0  0  0  0  0
    3.6123   -2.2111    1.6517 N   0  0  0  0  0  0  0  0  0  0  0  0
    2.6975   -2.4103    2.6354 C   0  0  0  0  0  0  0  0  0  0  0  0
    2.5952   -3.4506    3.2833 O   0  0  0  0  0  0  0  0  0  0  0  0
    1.9606   -1.1537    2.7456 C   0  0  0  0  0  0  0  0  0  0  0  0
    0.9648   -0.9125    3.6624 C   0  0  0  0  0  0  0  0  0  0  0  0
    0.1657   -2.1976    4.5534 S   0  0  0  0  0  0  0  0  0  0  0  0
   -1.1249   -1.0783    5.0546 C   0  0  0  0  0  0  0  0  0  0  0  0
   -2.1435   -1.4300    5.6647 O   0  0  0  0  0  0  0  0  0  0  0  0
   -0.8038    0.2173    4.6736 N   0  0  0  0  0  0  0  0  0  0  0  0
    0.2778    0.3578    4.0091 C   0  0  0  0  0  0  0  0  0  0  0  0
    0.7716    1.7397    3.7577 C   0  0  0  0  0  0  0  0  0  0  0  0
   -0.0714    2.8699    3.9228 C   0  0  0  0  0  0  0  0  0  0  0  0
    0.4501    4.1677    3.7063 C   0  0  0  0  0  0  0  0  0  0  0  0
    1.7959    4.2783    3.2893 C   0  0  0  0  0  0  0  0  0  0  0  0
    2.6142    3.2167    3.2017 N   0  0  0  0  0  0  0  0  0  0  0  0
    2.1289    1.9921    3.4555 C   0  0  0  0  0  0  0  0  0  0  0  0
    2.5192   -0.2714    1.7404 C   0  0  0  0  0  0  0  0  0  0  0  0
    3.5296   -0.9402    1.1302 C   0  0  0  0  0  0  0  0  0  0  0  0
    4.5863   -0.2817   -0.0519 Cl  0  0  0  0  0  0  0  0  0  0  0  0
    6.5468   -3.9665    1.4935 H   0  0  0  0  0  0  0  0  0  0  0  0
    5.6886   -3.4851    2.9613 H   0  0  0  0  0  0  0  0  0  0  0  0
    6.3611   -2.2538    1.8882 H   0  0  0  0  0  0  0  0  0  0  0  0
    4.7436   -3.0148    0.0746 H   0  0  0  0  0  0  0  0  0  0  0  0
    4.0748   -4.1951    1.1672 H   0  0  0  0  0  0  0  0  0  0  0  0
   -1.1014    2.7743    4.2445 H   0  0  0  0  0  0  0  0  0  0  0  0
   -0.1413    5.0576    3.8455 H   0  0  0  0  0  0  0  0  0  0  0  0
    2.2523    5.2405    3.0651 H   0  0  0  0  0  0  0  0  0  0  0  0
    2.8717    1.1983    3.4676 H   0  0  0  0  0  0  0  0  0  0  0  0
    2.2295    0.7175    1.4590 H   0  0  0  0  0  0  0  0  0  0  0  0
  1  2  1  0
  1 22  1  0
  1 23  1  0
  1 24  1  0
  2  3  1  0
  2 25  1  0
  2 26  1  0
  3 20  1  0
  3  4  1  0
  4  5  2  0
  4  6  1  0
  6  7  2  3
  6 19  1  0
  7 12  1  0
  7  8  1  0
  8  9  1  0
  9 10  2  0
  9 11  1  0
 11 12  2  0
 12 13  1  0
 13 18  1  0
 13 14  2  0
 14 15  1  0
 14 27  1  0
 15 16  2  0
 15 28  1  0
 16 17  1  0
 16 29  1  0
 17 18  2  0
 18 30  1  0
 19 20  2  0
 19 31  1  0
 20 21  1  0
M  END
>  <i_m_ct_stereo_status>  (207) 
1

>  <s_m_source_file>  (207) 
/var/tmp/pbs.5076255.sched01/tmpqm933_o1/456x1pmp19.sdf

>  <i_m_source_file_index>  (207) 
39

>  <i_lp_mmshare_version>  (207) 
48012

>  <i_f3d_flags>  (207) 
1

>  <s_epik_input>  (207) 
W0NIM11bQ0gyXU4xQyg9TykvQyhbQ0hdPUMxQ2wpPUMyL1NDKD1PKU49QzJjM1tjSF1bY0hdW2NIXW5bY0hdMw==

>  <s_epik_cmdline>  (207) 
J2VwaWtfcHl0aG9uJywgJy1waHQnLCAnMi4wJywgJy1waCcsICc3LjAnLCAnLXRuJywgJzgnLCAnLW1hJywgJzIwMCcsICctaW1hZScsICc8aW5maWxlLm1hZT4nLCAnLW9tYWUnLCAnPG91dGZpbGUubWFlPic=

>  <r_lp_tautomer_probability>  (207) 
1

>  <r_epik_Ionization_Penalty>  (207) 
8.49317e-07

>  <r_epik_Ionization_Penalty_Charging>  (207) 
0

>  <r_epik_Ionization_Penalty_Neutral>  (207) 
8.49317e-07

>  <r_epik_State_Penalty>  (207) 
-0

>  <r_epik_Charging_Adjusted_Penalty>  (207) 
0

>  <i_epik_Tot_Q>  (207) 
0

>  <i_epik_Tot_abs_Q>  (207) 
0

>  <s_epik_Chemistry_Notes>  (207) 
This compound has an imine and may undergo hydrolysis.

>  <s_lp_Force_Field>  (207) 
OPLS3e

>  <r_lp_Energy>  (207) 
37.6393

>  <b_lp_Chiralities_Consistent>  (207) 
1

>  <s_lp_Variant>  (207) 
47:0-2

>  <s_i_glide_gridfile>  (207) 
pfpi4k_grid

>  <i_i_glide_lignum>  (207) 
39

>  <i_i_glide_rotatable_bonds>  (207) 
2

>  <r_i_docking_score>  (207) 
-2.56245

>  <r_i_glide_ligand_efficiency>  (207) 
-0.122022

>  <r_i_glide_ligand_efficiency_sa>  (207) 
-0.336648

>  <r_i_glide_ligand_efficiency_ln>  (207) 
-0.633561

>  <r_i_glide_gscore>  (207) 
-2.56245

>  <r_i_glide_lipo>  (207) 
-0.153385

>  <r_i_glide_hbond>  (207) 
-0.0143289

>  <r_i_glide_metal>  (207) 
-0

>  <r_i_glide_rewards>  (207) 
-1.22886

>  <r_i_glide_evdw>  (207) 
-23.7158

>  <r_i_glide_ecoul>  (207) 
-0.673582

>  <r_i_glide_erotb>  (207) 
0.182526

>  <r_i_glide_esite>  (207) 
-0.0615712

>  <r_i_glide_emodel>  (207) 
-26.7682

>  <r_i_glide_energy>  (207) 
-24.3894

>  <r_i_glide_einternal>  (207) 
0.0739265

>  <r_i_glide_intrahb_reward>  (207) 
-0

>  <i_i_glide_confnum>  (207) 
4

>  <i_i_glide_posenum>  (207) 
3

>  <r_i_glide_eff_state_penalty>  (207) 
0

>  <ligand_id>  (207) 
47

>  <original_smiles>  (207) 
CCN1C(=O)C(=C2SC(=O)N=C2c2cccnc2)C=C1Cl

>  <smiles>  (207) 
[H]C1=C(Cl)N(C([H])([H])C([H])([H])[H])C(=O)C1=C1SC(=O)N=C1c1c([H])nc([H])c([H])c1[H]

$$$$
48:0:0
     RDKit          3D

 29 32  0  0  1  0  0  0  0  0999 V2000
    3.7708   -3.5100   -4.3159 O   0  0  0  0  0  0  0  0  0  0  0  0
    4.0887   -2.5966   -3.5284 C   0  0  0  0  0  0  0  0  0  0  0  0
    3.4669   -1.2787   -3.9350 C   0  0  0  0  0  0  0  0  0  0  0  0
    4.0182   -0.4375   -2.8273 C   0  0  0  0  0  0  0  0  0  0  0  0
    4.7554   -1.1297   -1.9678 C   0  0  0  0  0  0  0  0  0  0  0  0
    5.4489   -0.7206   -0.8523 N   0  0  0  0  0  0  0  0  0  0  0  0
    6.4097   -1.5796   -0.2941 C   0  0  0  0  0  0  0  0  0  0  0  0
    7.4246   -1.2435    0.4931 N   0  0  0  0  0  0  0  0  0  0  0  0
    8.1445   -2.4131    0.4639 C   0  0  0  0  0  0  0  0  0  0  0  0
    7.6060   -3.4143   -0.2406 N   0  0  0  0  0  0  0  0  0  0  0  0
    6.4690   -2.8511   -0.7058 N   0  0  0  0  0  0  0  0  0  0  0  0
    5.5471   -3.5364   -1.5835 C   0  0  1  0  0  0  0  0  0  0  0  0
    4.6321   -4.3818   -0.7111 C   0  0  0  0  0  0  0  0  0  0  0  0
    3.2715   -4.0576   -0.5337 C   0  0  0  0  0  0  0  0  0  0  0  0
    2.4802   -4.9129    0.2418 C   0  0  0  0  0  0  0  0  0  0  0  0
    2.9306   -6.0053    0.8804 N   0  0  0  0  0  0  0  0  0  0  0  0
    4.2324   -6.3043    0.7247 C   0  0  0  0  0  0  0  0  0  0  0  0
    5.1188   -5.5314   -0.0493 C   0  0  0  0  0  0  0  0  0  0  0  0
    4.8168   -2.4840   -2.3805 C   0  0  0  0  0  0  0  0  0  0  0  0
    2.3749   -1.3060   -3.9034 H   0  0  0  0  0  0  0  0  0  0  0  0
    3.8161   -0.9292   -4.9062 H   0  0  0  0  0  0  0  0  0  0  0  0
    3.8324    0.6145   -2.7669 H   0  0  0  0  0  0  0  0  0  0  0  0
    9.0770   -2.5544    0.9855 H   0  0  0  0  0  0  0  0  0  0  0  0
    6.0884   -4.1445   -2.3029 H   0  0  0  0  0  0  0  0  0  0  0  0
    2.8008   -3.2307   -1.0478 H   0  0  0  0  0  0  0  0  0  0  0  0
    1.4310   -4.7200    0.3295 H   0  0  0  0  0  0  0  0  0  0  0  0
    4.5763   -7.1892    1.2326 H   0  0  0  0  0  0  0  0  0  0  0  0
    6.1483   -5.8371   -0.1579 H   0  0  0  0  0  0  0  0  0  0  0  0
    5.4644    0.2699   -0.6280 H   0  0  0  0  0  0  0  0  0  0  0  0
  1  2  1  0
  2  3  1  0
  2 19  2  0
  3  4  1  0
  3 20  1  0
  3 21  1  0
  4 22  1  0
  4  5  2  0
  5 19  1  0
  5  6  1  0
  6  7  1  0
  6 29  1  0
  7 11  1  0
  7  8  2  0
  8  9  1  0
  9 10  2  0
  9 23  1  0
 10 11  1  0
 11 12  1  0
 12 13  1  0
 12 24  1  6
 12 19  1  0
 13 18  1  0
 13 14  2  0
 14 15  1  0
 14 25  1  0
 15 16  2  0
 15 26  1  0
 16 17  1  0
 17 18  2  0
 17 27  1  0
 18 28  1  0
M  CHG  1   1  -1
M  END
>  <i_m_ct_stereo_status>  (208) 
1

>  <s_m_source_file>  (208) 
/var/tmp/pbs.5076255.sched01/tmpqm933_o1/456x1pmp19.sdf

>  <i_m_source_file_index>  (208) 
40

>  <i_lp_mmshare_version>  (208) 
48012

>  <i_f3d_flags>  (208) 
0

>  <s_epik_input>  (208) 
bjFbY0hdbmMoTjIpbjFbQ0BIXShbQ0BASF0oQz0yMylDKD1PKVtDSDJdW0NIMl0zKWM0W2NIXVtjSF1uW2NIXVtjSF00

>  <s_epik_cmdline>  (208) 
J2VwaWtfcHl0aG9uJywgJy1waHQnLCAnMi4wJywgJy1waCcsICc3LjAnLCAnLXRuJywgJzgnLCAnLW1hJywgJzIwMCcsICctaW1hZScsICc8aW5maWxlLm1hZT4nLCAnLW9tYWUnLCAnPG91dGZpbGUubWFlPic=

>  <r_epik_Ionization_Penalty>  (208) 
0.411929

>  <r_epik_Ionization_Penalty_Charging>  (208) 
0.410807

>  <r_epik_Ionization_Penalty_Neutral>  (208) 
0.00112289

>  <r_epik_State_Penalty>  (208) 
0.268825

>  <r_epik_Charging_Adjusted_Penalty>  (208) 
0.679632

>  <i_epik_Tot_Q>  (208) 
-1

>  <i_epik_Tot_abs_Q>  (208) 
1

>  <s_epik_Chemistry_Notes>  (208) 
This compound has an imine and may undergo hydrolysis.

>  <s_lp_Force_Field>  (208) 
OPLS3e

>  <r_lp_Energy>  (208) 
21.6303

>  <b_lp_Chiralities_Consistent>  (208) 
1

>  <s_lp_Variant>  (208) 
48:0-1

>  <s_i_glide_gridfile>  (208) 
pfpi4k_grid

>  <i_i_glide_lignum>  (208) 
40

>  <i_i_glide_rotatable_bonds>  (208) 
1

>  <r_i_docking_score>  (208) 
-4.11315

>  <r_i_glide_ligand_efficiency>  (208) 
-0.216481

>  <r_i_glide_ligand_efficiency_sa>  (208) 
-0.577659

>  <r_i_glide_ligand_efficiency_ln>  (208) 
-1.04277

>  <r_i_glide_gscore>  (208) 
-4.11315

>  <r_i_glide_lipo>  (208) 
-0.832139

>  <r_i_glide_hbond>  (208) 
-0.409556

>  <r_i_glide_metal>  (208) 
-0

>  <r_i_glide_rewards>  (208) 
-1.98427

>  <r_i_glide_evdw>  (208) 
-20.6053

>  <r_i_glide_ecoul>  (208) 
-0.184636

>  <r_i_glide_erotb>  (208) 
0.275727

>  <r_i_glide_esite>  (208) 
-0.104949

>  <r_i_glide_emodel>  (208) 
-27.6092

>  <r_i_glide_energy>  (208) 
-20.7899

>  <r_i_glide_einternal>  (208) 
1.01623

>  <r_i_glide_intrahb_reward>  (208) 
-0

>  <i_i_glide_confnum>  (208) 
1

>  <i_i_glide_posenum>  (208) 
17

>  <r_i_glide_eff_state_penalty>  (208) 
0

>  <ligand_id>  (208) 
48

>  <original_smiles>  (208) 
O=C1CCC2=Nc3ncnn3C(c3ccncc3)C12

>  <smiles>  (208) 
[H]C1=C2C(=C([O-])C1([H])[H])C([H])(c1c([H])c([H])nc([H])c1[H])n1nc([H])nc1N2[H]

$$$$
48:0:1
     RDKit          3D

 29 32  0  0  1  0  0  0  0  0999 V2000
    1.3763    0.4476    6.9320 O   0  0  0  0  0  0  0  0  0  0  0  0
    1.9178    0.9540    5.9168 C   0  0  0  0  0  0  0  0  0  0  0  0
    2.9080    0.0069    5.2485 C   0  0  0  0  0  0  0  0  0  0  0  0
    3.3811    0.8810    4.1083 C   0  0  0  0  0  0  0  0  0  0  0  0
    2.7899    2.0724    4.1331 C   0  0  0  0  0  0  0  0  0  0  0  0
    3.0176    3.1755    3.3270 N   0  0  0  0  0  0  0  0  0  0  0  0
    2.5667    4.4323    3.7318 C   0  0  0  0  0  0  0  0  0  0  0  0
    2.9605    5.6101    3.2727 N   0  0  0  0  0  0  0  0  0  0  0  0
    2.2535    6.4270    4.1216 C   0  0  0  0  0  0  0  0  0  0  0  0
    1.5041    5.8180    5.0463 N   0  0  0  0  0  0  0  0  0  0  0  0
    1.7115    4.5091    4.7631 N   0  0  0  0  0  0  0  0  0  0  0  0
    1.0763    3.4102    5.4928 C   0  0  1  0  0  0  0  0  0  0  0  0
   -0.3646    3.2531    5.0408 C   0  0  0  0  0  0  0  0  0  0  0  0
   -0.6795    3.1642    3.6659 C   0  0  0  0  0  0  0  0  0  0  0  0
   -2.0204    3.0094    3.2844 C   0  0  0  0  0  0  0  0  0  0  0  0
   -3.0212    2.9436    4.1778 N   0  0  0  0  0  0  0  0  0  0  0  0
   -2.7156    3.0047    5.4890 C   0  0  0  0  0  0  0  0  0  0  0  0
   -1.4107    3.1649    5.9788 C   0  0  0  0  0  0  0  0  0  0  0  0
    1.8656    2.1446    5.2237 C   0  0  0  0  0  0  0  0  0  0  0  0
    2.4187   -0.8905    4.8746 H   0  0  0  0  0  0  0  0  0  0  0  0
    3.7364   -0.2537    5.9095 H   0  0  0  0  0  0  0  0  0  0  0  0
    4.1297    0.5571    3.4079 H   0  0  0  0  0  0  0  0  0  0  0  0
    2.3187    7.5037    4.0810 H   0  0  0  0  0  0  0  0  0  0  0  0
    1.1269    3.6267    6.5579 H   0  0  0  0  0  0  0  0  0  0  0  0
    0.0857    3.2154    2.9045 H   0  0  0  0  0  0  0  0  0  0  0  0
   -2.3028    2.9587    2.2443 H   0  0  0  0  0  0  0  0  0  0  0  0
   -3.5535    2.9435    6.1653 H   0  0  0  0  0  0  0  0  0  0  0  0
   -1.2247    3.2015    7.0426 H   0  0  0  0  0  0  0  0  0  0  0  0
    3.7329    3.1354    2.6083 H   0  0  0  0  0  0  0  0  0  0  0  0
  1  2  1  0
  2  3  1  0
  2 19  2  0
  3  4  1  0
  3 20  1  0
  3 21  1  0
  4 22  1  0
  4  5  2  0
  5 19  1  0
  5  6  1  0
  6  7  1  0
  6 29  1  0
  7 11  1  0
  7  8  2  0
  8  9  1  0
  9 10  2  0
  9 23  1  0
 10 11  1  0
 11 12  1  0
 12 13  1  0
 12 24  1  1
 12 19  1  0
 13 18  1  0
 13 14  2  0
 14 15  1  0
 14 25  1  0
 15 16  2  0
 15 26  1  0
 16 17  1  0
 17 18  2  0
 17 27  1  0
 18 28  1  0
M  CHG  1   1  -1
M  END
>  <i_m_ct_stereo_status>  (209) 
1

>  <s_m_source_file>  (209) 
/var/tmp/pbs.5076255.sched01/tmpqm933_o1/456x1pmp19.sdf

>  <i_m_source_file_index>  (209) 
40

>  <i_lp_mmshare_version>  (209) 
48012

>  <i_f3d_flags>  (209) 
0

>  <s_epik_input>  (209) 
bjFbY0hdbmMoTjIpbjFbQ0BIXShbQ0BASF0oQz0yMylDKD1PKVtDSDJdW0NIMl0zKWM0W2NIXVtjSF1uW2NIXVtjSF00

>  <s_epik_cmdline>  (209) 
J2VwaWtfcHl0aG9uJywgJy1waHQnLCAnMi4wJywgJy1waCcsICc3LjAnLCAnLXRuJywgJzgnLCAnLW1hJywgJzIwMCcsICctaW1hZScsICc8aW5maWxlLm1hZT4nLCAnLW9tYWUnLCAnPG91dGZpbGUubWFlPic=

>  <r_epik_Ionization_Penalty>  (209) 
0.411929

>  <r_epik_Ionization_Penalty_Charging>  (209) 
0.410807

>  <r_epik_Ionization_Penalty_Neutral>  (209) 
0.00112289

>  <r_epik_State_Penalty>  (209) 
0.268825

>  <r_epik_Charging_Adjusted_Penalty>  (209) 
0.679632

>  <i_epik_Tot_Q>  (209) 
-1

>  <i_epik_Tot_abs_Q>  (209) 
1

>  <s_epik_Chemistry_Notes>  (209) 
This compound has an imine and may undergo hydrolysis.

>  <s_lp_Force_Field>  (209) 
OPLS3e

>  <r_lp_Energy>  (209) 
21.6303

>  <b_lp_Chiralities_Consistent>  (209) 
1

>  <s_lp_Variant>  (209) 
48:0-1

>  <s_i_glide_gridfile>  (209) 
pfpi4k_grid

>  <i_i_glide_lignum>  (209) 
40

>  <i_i_glide_rotatable_bonds>  (209) 
1

>  <r_i_docking_score>  (209) 
-3.05409

>  <r_i_glide_ligand_efficiency>  (209) 
-0.160741

>  <r_i_glide_ligand_efficiency_sa>  (209) 
-0.428923

>  <r_i_glide_ligand_efficiency_ln>  (209) 
-0.774277

>  <r_i_glide_gscore>  (209) 
-3.05409

>  <r_i_glide_lipo>  (209) 
-0.0145027

>  <r_i_glide_hbond>  (209) 
-0.32

>  <r_i_glide_metal>  (209) 
-0

>  <r_i_glide_rewards>  (209) 
-1.6892

>  <r_i_glide_evdw>  (209) 
-16.5042

>  <r_i_glide_ecoul>  (209) 
-2.67412

>  <r_i_glide_erotb>  (209) 
0.275727

>  <r_i_glide_esite>  (209) 
-0.0797902

>  <r_i_glide_emodel>  (209) 
-24.57

>  <r_i_glide_energy>  (209) 
-19.1783

>  <r_i_glide_einternal>  (209) 
0.151197

>  <r_i_glide_intrahb_reward>  (209) 
-0

>  <i_i_glide_confnum>  (209) 
1

>  <i_i_glide_posenum>  (209) 
16

>  <r_i_glide_eff_state_penalty>  (209) 
0

>  <ligand_id>  (209) 
48

>  <original_smiles>  (209) 
O=C1CCC2=Nc3ncnn3C(c3ccncc3)C12

>  <smiles>  (209) 
[H]C1=C2C(=C([O-])C1([H])[H])C([H])(c1c([H])c([H])nc([H])c1[H])n1nc([H])nc1N2[H]

$$$$
48:0:2
     RDKit          3D

 29 32  0  0  1  0  0  0  0  0999 V2000
    4.6129   -4.0598   -4.3089 O   0  0  0  0  0  0  0  0  0  0  0  0
    4.3434   -3.0849   -3.5480 C   0  0  0  0  0  0  0  0  0  0  0  0
    3.4722   -2.0554   -4.2389 C   0  0  0  0  0  0  0  0  0  0  0  0
    3.3771   -1.0078   -3.1685 C   0  0  0  0  0  0  0  0  0  0  0  0
    4.0444   -1.3756   -2.0871 C   0  0  0  0  0  0  0  0  0  0  0  0
    4.2567   -0.6664   -0.9275 N   0  0  0  0  0  0  0  0  0  0  0  0
    5.2104   -1.1050   -0.0319 C   0  0  0  0  0  0  0  0  0  0  0  0
    5.7273   -0.3999    0.9494 N   0  0  0  0  0  0  0  0  0  0  0  0
    6.7036   -1.2708    1.3181 C   0  0  0  0  0  0  0  0  0  0  0  0
    6.7930   -2.4255    0.6618 N   0  0  0  0  0  0  0  0  0  0  0  0
    5.7713   -2.3113   -0.2070 N   0  0  0  0  0  0  0  0  0  0  0  0
    5.4091   -3.3430   -1.1612 C   0  0  1  0  0  0  0  0  0  0  0  0
    4.6072   -4.4104   -0.4297 C   0  0  0  0  0  0  0  0  0  0  0  0
    3.2110   -4.2799   -0.2578 C   0  0  0  0  0  0  0  0  0  0  0  0
    2.5225   -5.3127    0.3976 C   0  0  0  0  0  0  0  0  0  0  0  0
    3.1191   -6.4116    0.8952 N   0  0  0  0  0  0  0  0  0  0  0  0
    4.4518   -6.5245    0.7399 C   0  0  0  0  0  0  0  0  0  0  0  0
    5.2413   -5.5544    0.0975 C   0  0  0  0  0  0  0  0  0  0  0  0
    4.6181   -2.6797   -2.2701 C   0  0  0  0  0  0  0  0  0  0  0  0
    2.4876   -2.4561   -4.4727 H   0  0  0  0  0  0  0  0  0  0  0  0
    3.9575   -1.6282   -5.1120 H   0  0  0  0  0  0  0  0  0  0  0  0
    2.8478   -0.0826   -3.3070 H   0  0  0  0  0  0  0  0  0  0  0  0
    7.4141   -1.0140    2.0835 H   0  0  0  0  0  0  0  0  0  0  0  0
    6.3174   -3.7502   -1.5973 H   0  0  0  0  0  0  0  0  0  0  0  0
    2.6692   -3.4377   -0.6681 H   0  0  0  0  0  0  0  0  0  0  0  0
    1.4512   -5.2748    0.5029 H   0  0  0  0  0  0  0  0  0  0  0  0
    4.8992   -7.4195    1.1435 H   0  0  0  0  0  0  0  0  0  0  0  0
    6.3058   -5.6983   -0.0003 H   0  0  0  0  0  0  0  0  0  0  0  0
    3.9109    0.2706   -0.7970 H   0  0  0  0  0  0  0  0  0  0  0  0
  1  2  1  0
  2  3  1  0
  2 19  2  0
  3  4  1  0
  3 20  1  0
  3 21  1  0
  4 22  1  0
  4  5  2  0
  5 19  1  0
  5  6  1  0
  6  7  1  0
  6 29  1  0
  7 11  1  0
  7  8  2  0
  8  9  1  0
  9 10  2  0
  9 23  1  0
 10 11  1  0
 11 12  1  0
 12 13  1  0
 12 24  1  6
 12 19  1  0
 13 18  1  0
 13 14  2  0
 14 15  1  0
 14 25  1  0
 15 16  2  0
 15 26  1  0
 16 17  1  0
 17 18  2  0
 17 27  1  0
 18 28  1  0
M  CHG  1   1  -1
M  END
>  <i_m_ct_stereo_status>  (210) 
1

>  <s_m_source_file>  (210) 
/var/tmp/pbs.5076255.sched01/tmpqm933_o1/456x1pmp19.sdf

>  <i_m_source_file_index>  (210) 
40

>  <i_lp_mmshare_version>  (210) 
48012

>  <i_f3d_flags>  (210) 
0

>  <s_epik_input>  (210) 
bjFbY0hdbmMoTjIpbjFbQ0BIXShbQ0BASF0oQz0yMylDKD1PKVtDSDJdW0NIMl0zKWM0W2NIXVtjSF1uW2NIXVtjSF00

>  <s_epik_cmdline>  (210) 
J2VwaWtfcHl0aG9uJywgJy1waHQnLCAnMi4wJywgJy1waCcsICc3LjAnLCAnLXRuJywgJzgnLCAnLW1hJywgJzIwMCcsICctaW1hZScsICc8aW5maWxlLm1hZT4nLCAnLW9tYWUnLCAnPG91dGZpbGUubWFlPic=

>  <r_epik_Ionization_Penalty>  (210) 
0.411929

>  <r_epik_Ionization_Penalty_Charging>  (210) 
0.410807

>  <r_epik_Ionization_Penalty_Neutral>  (210) 
0.00112289

>  <r_epik_State_Penalty>  (210) 
0.268825

>  <r_epik_Charging_Adjusted_Penalty>  (210) 
0.679632

>  <i_epik_Tot_Q>  (210) 
-1

>  <i_epik_Tot_abs_Q>  (210) 
1

>  <s_epik_Chemistry_Notes>  (210) 
This compound has an imine and may undergo hydrolysis.

>  <s_lp_Force_Field>  (210) 
OPLS3e

>  <r_lp_Energy>  (210) 
21.6303

>  <b_lp_Chiralities_Consistent>  (210) 
1

>  <s_lp_Variant>  (210) 
48:0-1

>  <s_i_glide_gridfile>  (210) 
pfpi4k_grid

>  <i_i_glide_lignum>  (210) 
40

>  <i_i_glide_rotatable_bonds>  (210) 
1

>  <r_i_docking_score>  (210) 
-2.93183

>  <r_i_glide_ligand_efficiency>  (210) 
-0.154307

>  <r_i_glide_ligand_efficiency_sa>  (210) 
-0.411752

>  <r_i_glide_ligand_efficiency_ln>  (210) 
-0.743281

>  <r_i_glide_gscore>  (210) 
-2.93183

>  <r_i_glide_lipo>  (210) 
-0.58948

>  <r_i_glide_hbond>  (210) 
-0.0581441

>  <r_i_glide_metal>  (210) 
-0

>  <r_i_glide_rewards>  (210) 
-1.76263

>  <r_i_glide_evdw>  (210) 
-22.065

>  <r_i_glide_ecoul>  (210) 
2.31853

>  <r_i_glide_erotb>  (210) 
0.275727

>  <r_i_glide_esite>  (210) 
-0.0418241

>  <r_i_glide_emodel>  (210) 
-24.7615

>  <r_i_glide_energy>  (210) 
-19.7465

>  <r_i_glide_einternal>  (210) 
0.206056

>  <r_i_glide_intrahb_reward>  (210) 
-0

>  <i_i_glide_confnum>  (210) 
3

>  <i_i_glide_posenum>  (210) 
26

>  <r_i_glide_eff_state_penalty>  (210) 
0

>  <ligand_id>  (210) 
48

>  <original_smiles>  (210) 
O=C1CCC2=Nc3ncnn3C(c3ccncc3)C12

>  <smiles>  (210) 
[H]C1=C2C(=C([O-])C1([H])[H])C([H])(c1c([H])c([H])nc([H])c1[H])n1nc([H])nc1N2[H]

$$$$
48:1:0
     RDKit          3D

 30 33  0  0  1  0  0  0  0  0999 V2000
    3.3770   -3.8311   -3.8760 O   0  0  0  0  0  0  0  0  0  0  0  0
    3.8669   -2.7885   -3.2039 C   0  0  0  0  0  0  0  0  0  0  0  0
    3.4133   -1.4353   -3.6848 C   0  0  0  0  0  0  0  0  0  0  0  0
    4.1898   -0.6009   -2.6791 C   0  0  0  0  0  0  0  0  0  0  0  0
    4.8844   -1.3648   -1.8233 C   0  0  0  0  0  0  0  0  0  0  0  0
    5.7341   -0.9836   -0.7960 N   0  0  0  0  0  0  0  0  0  0  0  0
    6.6385   -1.9054   -0.2752 C   0  0  0  0  0  0  0  0  0  0  0  0
    7.7409   -1.6378    0.4018 N   0  0  0  0  0  0  0  0  0  0  0  0
    8.2653   -2.8975    0.4783 C   0  0  0  0  0  0  0  0  0  0  0  0
    7.5427   -3.8763   -0.0724 N   0  0  0  0  0  0  0  0  0  0  0  0
    6.4837   -3.2006   -0.5804 N   0  0  0  0  0  0  0  0  0  0  0  0
    5.3700   -3.8203   -1.3081 C   0  0  1  0  0  0  0  0  0  0  0  0
    4.4406   -4.4659   -0.2962 C   0  0  0  0  0  0  0  0  0  0  0  0
    3.4540   -3.7053    0.3709 C   0  0  0  0  0  0  0  0  0  0  0  0
    2.6120   -4.3569    1.2781 C   0  0  0  0  0  0  0  0  0  0  0  0
    2.6665   -5.6797    1.5382 N   0  0  0  0  0  0  0  0  0  0  0  0
    3.6279   -6.3968    0.9177 C   0  0  0  0  0  0  0  0  0  0  0  0
    4.5403   -5.8361    0.0069 C   0  0  0  0  0  0  0  0  0  0  0  0
    4.6737   -2.7419   -2.1333 C   0  0  0  0  0  0  0  0  0  0  0  0
    2.3383   -1.3055   -3.5606 H   0  0  0  0  0  0  0  0  0  0  0  0
    3.7095   -1.2120   -4.7117 H   0  0  0  0  0  0  0  0  0  0  0  0
    4.1693    0.4762   -2.6931 H   0  0  0  0  0  0  0  0  0  0  0  0
    9.2073   -3.1041    0.9730 H   0  0  0  0  0  0  0  0  0  0  0  0
    5.7709   -4.5437   -2.0053 H   0  0  0  0  0  0  0  0  0  0  0  0
    3.3211   -2.6473    0.1797 H   0  0  0  0  0  0  0  0  0  0  0  0
    1.8327   -3.8048    1.7892 H   0  0  0  0  0  0  0  0  0  0  0  0
    3.6440   -7.4561    1.1352 H   0  0  0  0  0  0  0  0  0  0  0  0
    5.2743   -6.4566   -0.4763 H   0  0  0  0  0  0  0  0  0  0  0  0
    5.8354    0.0008   -0.5831 H   0  0  0  0  0  0  0  0  0  0  0  0
    3.4777   -4.5890   -3.3145 H   0  0  0  0  0  0  0  0  0  0  0  0
  1  2  1  0
  1 30  1  0
  2  3  1  0
  2 19  2  0
  3  4  1  0
  3 20  1  0
  3 21  1  0
  4 22  1  0
  4  5  2  0
  5 19  1  0
  5  6  1  0
  6  7  1  0
  6 29  1  0
  7 11  1  0
  7  8  2  0
  8  9  1  0
  9 10  2  0
  9 23  1  0
 10 11  1  0
 11 12  1  0
 12 13  1  0
 12 24  1  6
 12 19  1  0
 13 18  1  0
 13 14  2  0
 14 15  1  0
 14 25  1  0
 15 16  2  0
 15 26  1  0
 16 17  1  0
 17 18  2  0
 17 27  1  0
 18 28  1  0
M  END
>  <i_m_ct_stereo_status>  (211) 
1

>  <s_m_source_file>  (211) 
/var/tmp/pbs.5076255.sched01/tmpqm933_o1/456x1pmp19.sdf

>  <i_m_source_file_index>  (211) 
41

>  <i_lp_mmshare_version>  (211) 
48012

>  <i_f3d_flags>  (211) 
0

>  <s_epik_input>  (211) 
bjFbY0hdbmMoTjIpbjFbQ0BIXShbQ0BASF0oQz0yMylDKD1PKVtDSDJdW0NIMl0zKWM0W2NIXVtjSF1uW2NIXVtjSF00

>  <s_epik_cmdline>  (211) 
J2VwaWtfcHl0aG9uJywgJy1waHQnLCAnMi4wJywgJy1waCcsICc3LjAnLCAnLXRuJywgJzgnLCAnLW1hJywgJzIwMCcsICctaW1hZScsICc8aW5maWxlLm1hZT4nLCAnLW9tYWUnLCAnPG91dGZpbGUubWFlPic=

>  <r_epik_Ionization_Penalty>  (211) 
0.415989

>  <r_epik_Ionization_Penalty_Charging>  (211) 
9.11783e-11

>  <r_epik_Ionization_Penalty_Neutral>  (211) 
0.415989

>  <r_epik_State_Penalty>  (211) 
0.602051

>  <r_epik_Charging_Adjusted_Penalty>  (211) 
0.602051

>  <i_epik_Tot_Q>  (211) 
0

>  <i_epik_Tot_abs_Q>  (211) 
0

>  <s_epik_Chemistry_Notes>  (211) 
This compound has an imine and may undergo hydrolysis.

>  <s_lp_Force_Field>  (211) 
OPLS3e

>  <r_lp_Energy>  (211) 
21.5146

>  <b_lp_Chiralities_Consistent>  (211) 
1

>  <s_lp_Variant>  (211) 
48:0-2

>  <s_i_glide_gridfile>  (211) 
pfpi4k_grid

>  <i_i_glide_lignum>  (211) 
41

>  <i_i_glide_rotatable_bonds>  (211) 
2

>  <r_i_docking_score>  (211) 
-5.21725

>  <r_i_glide_ligand_efficiency>  (211) 
-0.274592

>  <r_i_glide_ligand_efficiency_sa>  (211) 
-0.732721

>  <r_i_glide_ligand_efficiency_ln>  (211) 
-1.32268

>  <r_i_glide_gscore>  (211) 
-5.21725

>  <r_i_glide_lipo>  (211) 
-0.597093

>  <r_i_glide_hbond>  (211) 
-0.607846

>  <r_i_glide_metal>  (211) 
-0

>  <r_i_glide_rewards>  (211) 
-2.06191

>  <r_i_glide_evdw>  (211) 
-23.7635

>  <r_i_glide_ecoul>  (211) 
-6.20036

>  <r_i_glide_erotb>  (211) 
0.273846

>  <r_i_glide_esite>  (211) 
-0.106013

>  <r_i_glide_emodel>  (211) 
-40.276

>  <r_i_glide_energy>  (211) 
-29.9639

>  <r_i_glide_einternal>  (211) 
1.04255

>  <r_i_glide_intrahb_reward>  (211) 
-0

>  <i_i_glide_confnum>  (211) 
3

>  <i_i_glide_posenum>  (211) 
19

>  <r_i_glide_eff_state_penalty>  (211) 
0

>  <ligand_id>  (211) 
48

>  <original_smiles>  (211) 
O=C1CCC2=Nc3ncnn3C(c3ccncc3)C12

>  <smiles>  (211) 
[H]OC1=C2C(=C([H])C1([H])[H])N([H])c1nc([H])nn1C2([H])c1c([H])c([H])nc([H])c1[H]

$$$$
48:1:1
     RDKit          3D

 30 33  0  0  1  0  0  0  0  0999 V2000
    2.9762   -0.2860    0.8811 O   0  0  0  0  0  0  0  0  0  0  0  0
    3.4730   -1.4687    1.2252 C   0  0  0  0  0  0  0  0  0  0  0  0
    2.7403   -2.2245    2.3154 C   0  0  0  0  0  0  0  0  0  0  0  0
    3.6518   -3.4444    2.3354 C   0  0  0  0  0  0  0  0  0  0  0  0
    4.6455   -3.3465    1.4452 C   0  0  0  0  0  0  0  0  0  0  0  0
    5.7307   -4.1789    1.2351 N   0  0  0  0  0  0  0  0  0  0  0  0
    6.8149   -3.7164    0.4968 C   0  0  0  0  0  0  0  0  0  0  0  0
    8.0099   -4.2631    0.4238 N   0  0  0  0  0  0  0  0  0  0  0  0
    8.6307   -3.3299   -0.3599 C   0  0  0  0  0  0  0  0  0  0  0  0
    7.8906   -2.2895   -0.7606 N   0  0  0  0  0  0  0  0  0  0  0  0
    6.6987   -2.5662   -0.1894 N   0  0  0  0  0  0  0  0  0  0  0  0
    5.5040   -1.7371   -0.3700 C   0  0  1  0  0  0  0  0  0  0  0  0
    4.9151   -1.9745   -1.7579 C   0  0  0  0  0  0  0  0  0  0  0  0
    4.3706   -0.9131   -2.5102 C   0  0  0  0  0  0  0  0  0  0  0  0
    3.8152   -1.1996   -3.7747 C   0  0  0  0  0  0  0  0  0  0  0  0
    3.8013   -2.4348   -4.3108 N   0  0  0  0  0  0  0  0  0  0  0  0
    4.3006   -3.4494   -3.5854 C   0  0  0  0  0  0  0  0  0  0  0  0
    4.8689   -3.2738   -2.3137 C   0  0  0  0  0  0  0  0  0  0  0  0
    4.5188   -2.1199    0.7146 C   0  0  0  0  0  0  0  0  0  0  0  0
    1.7138   -2.4945    2.0511 H   0  0  0  0  0  0  0  0  0  0  0  0
    2.7641   -1.7002    3.2759 H   0  0  0  0  0  0  0  0  0  0  0  0
    3.5332   -4.2559    3.0354 H   0  0  0  0  0  0  0  0  0  0  0  0
    9.6764   -3.4097   -0.6122 H   0  0  0  0  0  0  0  0  0  0  0  0
    5.7891   -0.6913   -0.2491 H   0  0  0  0  0  0  0  0  0  0  0  0
    4.3582    0.1037   -2.1374 H   0  0  0  0  0  0  0  0  0  0  0  0
    3.3872   -0.4159   -4.3835 H   0  0  0  0  0  0  0  0  0  0  0  0
    4.2640   -4.4294   -4.0342 H   0  0  0  0  0  0  0  0  0  0  0  0
    5.2539   -4.1386   -1.7903 H   0  0  0  0  0  0  0  0  0  0  0  0
    5.8436   -5.0239    1.7743 H   0  0  0  0  0  0  0  0  0  0  0  0
    2.0461   -0.3229    1.0428 H   0  0  0  0  0  0  0  0  0  0  0  0
  1  2  1  0
  1 30  1  0
  2  3  1  0
  2 19  2  0
  3  4  1  0
  3 20  1  0
  3 21  1  0
  4 22  1  0
  4  5  2  0
  5 19  1  0
  5  6  1  0
  6  7  1  0
  6 29  1  0
  7 11  1  0
  7  8  2  0
  8  9  1  0
  9 10  2  0
  9 23  1  0
 10 11  1  0
 11 12  1  0
 12 13  1  0
 12 24  1  6
 12 19  1  0
 13 18  1  0
 13 14  2  0
 14 15  1  0
 14 25  1  0
 15 16  2  0
 15 26  1  0
 16 17  1  0
 17 18  2  0
 17 27  1  0
 18 28  1  0
M  END
>  <i_m_ct_stereo_status>  (212) 
1

>  <s_m_source_file>  (212) 
/var/tmp/pbs.5076255.sched01/tmpqm933_o1/456x1pmp19.sdf

>  <i_m_source_file_index>  (212) 
41

>  <i_lp_mmshare_version>  (212) 
48012

>  <i_f3d_flags>  (212) 
0

>  <s_epik_input>  (212) 
bjFbY0hdbmMoTjIpbjFbQ0BIXShbQ0BASF0oQz0yMylDKD1PKVtDSDJdW0NIMl0zKWM0W2NIXVtjSF1uW2NIXVtjSF00

>  <s_epik_cmdline>  (212) 
J2VwaWtfcHl0aG9uJywgJy1waHQnLCAnMi4wJywgJy1waCcsICc3LjAnLCAnLXRuJywgJzgnLCAnLW1hJywgJzIwMCcsICctaW1hZScsICc8aW5maWxlLm1hZT4nLCAnLW9tYWUnLCAnPG91dGZpbGUubWFlPic=

>  <r_epik_Ionization_Penalty>  (212) 
0.415989

>  <r_epik_Ionization_Penalty_Charging>  (212) 
9.11783e-11

>  <r_epik_Ionization_Penalty_Neutral>  (212) 
0.415989

>  <r_epik_State_Penalty>  (212) 
0.602051

>  <r_epik_Charging_Adjusted_Penalty>  (212) 
0.602051

>  <i_epik_Tot_Q>  (212) 
0

>  <i_epik_Tot_abs_Q>  (212) 
0

>  <s_epik_Chemistry_Notes>  (212) 
This compound has an imine and may undergo hydrolysis.

>  <s_lp_Force_Field>  (212) 
OPLS3e

>  <r_lp_Energy>  (212) 
21.5146

>  <b_lp_Chiralities_Consistent>  (212) 
1

>  <s_lp_Variant>  (212) 
48:0-2

>  <s_i_glide_gridfile>  (212) 
pfpi4k_grid

>  <i_i_glide_lignum>  (212) 
41

>  <i_i_glide_rotatable_bonds>  (212) 
2

>  <r_i_docking_score>  (212) 
-4.87649

>  <r_i_glide_ligand_efficiency>  (212) 
-0.256658

>  <r_i_glide_ligand_efficiency_sa>  (212) 
-0.684866

>  <r_i_glide_ligand_efficiency_ln>  (212) 
-1.2363

>  <r_i_glide_gscore>  (212) 
-4.87649

>  <r_i_glide_lipo>  (212) 
-0.487319

>  <r_i_glide_hbond>  (212) 
-0.491057

>  <r_i_glide_metal>  (212) 
-0

>  <r_i_glide_rewards>  (212) 
-1.87736

>  <r_i_glide_evdw>  (212) 
-27.2443

>  <r_i_glide_ecoul>  (212) 
-6.21596

>  <r_i_glide_erotb>  (212) 
0.273846

>  <r_i_glide_esite>  (212) 
0

>  <r_i_glide_emodel>  (212) 
-41.451

>  <r_i_glide_energy>  (212) 
-33.4603

>  <r_i_glide_einternal>  (212) 
3.72825

>  <r_i_glide_intrahb_reward>  (212) 
-0

>  <i_i_glide_confnum>  (212) 
2

>  <i_i_glide_posenum>  (212) 
1

>  <r_i_glide_eff_state_penalty>  (212) 
0

>  <ligand_id>  (212) 
48

>  <original_smiles>  (212) 
O=C1CCC2=Nc3ncnn3C(c3ccncc3)C12

>  <smiles>  (212) 
[H]OC1=C2C(=C([H])C1([H])[H])N([H])c1nc([H])nn1C2([H])c1c([H])c([H])nc([H])c1[H]

$$$$
48:1:2
     RDKit          3D

 30 33  0  0  1  0  0  0  0  0999 V2000
    2.3885   -2.6294    1.4060 O   0  0  0  0  0  0  0  0  0  0  0  0
    3.3442   -3.5634    1.3733 C   0  0  0  0  0  0  0  0  0  0  0  0
    3.0028   -4.8809    2.0317 C   0  0  0  0  0  0  0  0  0  0  0  0
    4.3262   -5.5823    1.7642 C   0  0  0  0  0  0  0  0  0  0  0  0
    5.1880   -4.7927    1.1161 C   0  0  0  0  0  0  0  0  0  0  0  0
    6.5116   -5.0326    0.7873 N   0  0  0  0  0  0  0  0  0  0  0  0
    7.3230   -3.9669    0.4127 C   0  0  0  0  0  0  0  0  0  0  0  0
    8.6414   -3.9728    0.3362 N   0  0  0  0  0  0  0  0  0  0  0  0
    8.8444   -2.6476    0.0740 C   0  0  0  0  0  0  0  0  0  0  0  0
    7.7582   -1.8806   -0.0531 N   0  0  0  0  0  0  0  0  0  0  0  0
    6.7614   -2.7696    0.1646 N   0  0  0  0  0  0  0  0  0  0  0  0
    5.3339   -2.4311    0.1061 C   0  0  1  0  0  0  0  0  0  0  0  0
    4.8917   -2.3348   -1.3475 C   0  0  0  0  0  0  0  0  0  0  0  0
    4.3629   -1.1416   -1.8784 C   0  0  0  0  0  0  0  0  0  0  0  0
    3.9382   -1.1311   -3.2237 C   0  0  0  0  0  0  0  0  0  0  0  0
    4.0277   -2.2040   -4.0396 N   0  0  0  0  0  0  0  0  0  0  0  0
    4.5278   -3.3457   -3.5218 C   0  0  0  0  0  0  0  0  0  0  0  0
    4.9765   -3.4589   -2.1951 C   0  0  0  0  0  0  0  0  0  0  0  0
    4.5719   -3.5272    0.8383 C   0  0  0  0  0  0  0  0  0  0  0  0
    2.1763   -5.3901    1.5373 H   0  0  0  0  0  0  0  0  0  0  0  0
    2.8165   -4.7762    3.1025 H   0  0  0  0  0  0  0  0  0  0  0  0
    4.5345   -6.5820    2.1134 H   0  0  0  0  0  0  0  0  0  0  0  0
    9.8356   -2.2384   -0.0271 H   0  0  0  0  0  0  0  0  0  0  0  0
    5.1877   -1.4822    0.6218 H   0  0  0  0  0  0  0  0  0  0  0  0
    4.2632   -0.2543   -1.2726 H   0  0  0  0  0  0  0  0  0  0  0  0
    3.5275   -0.2334   -3.6655 H   0  0  0  0  0  0  0  0  0  0  0  0
    4.5813   -4.1924   -4.1915 H   0  0  0  0  0  0  0  0  0  0  0  0
    5.3562   -4.4053   -1.8425 H   0  0  0  0  0  0  0  0  0  0  0  0
    6.9568   -5.9032    1.0364 H   0  0  0  0  0  0  0  0  0  0  0  0
    2.6805   -1.8941    0.8902 H   0  0  0  0  0  0  0  0  0  0  0  0
  1  2  1  0
  1 30  1  0
  2  3  1  0
  2 19  2  0
  3  4  1  0
  3 20  1  0
  3 21  1  0
  4 22  1  0
  4  5  2  0
  5 19  1  0
  5  6  1  0
  6  7  1  0
  6 29  1  0
  7 11  1  0
  7  8  2  0
  8  9  1  0
  9 10  2  0
  9 23  1  0
 10 11  1  0
 11 12  1  0
 12 13  1  0
 12 24  1  1
 12 19  1  0
 13 18  1  0
 13 14  2  0
 14 15  1  0
 14 25  1  0
 15 16  2  0
 15 26  1  0
 16 17  1  0
 17 18  2  0
 17 27  1  0
 18 28  1  0
M  END
>  <i_m_ct_stereo_status>  (213) 
1

>  <s_m_source_file>  (213) 
/var/tmp/pbs.5076255.sched01/tmpqm933_o1/456x1pmp19.sdf

>  <i_m_source_file_index>  (213) 
41

>  <i_lp_mmshare_version>  (213) 
48012

>  <i_f3d_flags>  (213) 
0

>  <s_epik_input>  (213) 
bjFbY0hdbmMoTjIpbjFbQ0BIXShbQ0BASF0oQz0yMylDKD1PKVtDSDJdW0NIMl0zKWM0W2NIXVtjSF1uW2NIXVtjSF00

>  <s_epik_cmdline>  (213) 
J2VwaWtfcHl0aG9uJywgJy1waHQnLCAnMi4wJywgJy1waCcsICc3LjAnLCAnLXRuJywgJzgnLCAnLW1hJywgJzIwMCcsICctaW1hZScsICc8aW5maWxlLm1hZT4nLCAnLW9tYWUnLCAnPG91dGZpbGUubWFlPic=

>  <r_epik_Ionization_Penalty>  (213) 
0.415989

>  <r_epik_Ionization_Penalty_Charging>  (213) 
9.11783e-11

>  <r_epik_Ionization_Penalty_Neutral>  (213) 
0.415989

>  <r_epik_State_Penalty>  (213) 
0.602051

>  <r_epik_Charging_Adjusted_Penalty>  (213) 
0.602051

>  <i_epik_Tot_Q>  (213) 
0

>  <i_epik_Tot_abs_Q>  (213) 
0

>  <s_epik_Chemistry_Notes>  (213) 
This compound has an imine and may undergo hydrolysis.

>  <s_lp_Force_Field>  (213) 
OPLS3e

>  <r_lp_Energy>  (213) 
21.5146

>  <b_lp_Chiralities_Consistent>  (213) 
1

>  <s_lp_Variant>  (213) 
48:0-2

>  <s_i_glide_gridfile>  (213) 
pfpi4k_grid

>  <i_i_glide_lignum>  (213) 
41

>  <i_i_glide_rotatable_bonds>  (213) 
2

>  <r_i_docking_score>  (213) 
-4.74244

>  <r_i_glide_ligand_efficiency>  (213) 
-0.249602

>  <r_i_glide_ligand_efficiency_sa>  (213) 
-0.666039

>  <r_i_glide_ligand_efficiency_ln>  (213) 
-1.20231

>  <r_i_glide_gscore>  (213) 
-4.74244

>  <r_i_glide_lipo>  (213) 
-0.554529

>  <r_i_glide_hbond>  (213) 
-0.372264

>  <r_i_glide_metal>  (213) 
-0

>  <r_i_glide_rewards>  (213) 
-2.00332

>  <r_i_glide_evdw>  (213) 
-26.663

>  <r_i_glide_ecoul>  (213) 
-4.80447

>  <r_i_glide_erotb>  (213) 
0.273846

>  <r_i_glide_esite>  (213) 
-0.0323531

>  <r_i_glide_emodel>  (213) 
-41.6172

>  <r_i_glide_energy>  (213) 
-31.4674

>  <r_i_glide_einternal>  (213) 
0.129589

>  <r_i_glide_intrahb_reward>  (213) 
-0

>  <i_i_glide_confnum>  (213) 
2

>  <i_i_glide_posenum>  (213) 
33

>  <r_i_glide_eff_state_penalty>  (213) 
0

>  <ligand_id>  (213) 
48

>  <original_smiles>  (213) 
O=C1CCC2=Nc3ncnn3C(c3ccncc3)C12

>  <smiles>  (213) 
[H]OC1=C2C(=C([H])C1([H])[H])N([H])c1nc([H])nn1C2([H])c1c([H])c([H])nc([H])c1[H]

$$$$
49:0:0
     RDKit          3D

 33 36  0  0  1  0  0  0  0  0999 V2000
    5.0035   -3.5481   -3.9444 C   0  0  0  0  0  0  0  0  0  0  0  0
    5.6445   -3.3962   -2.5521 C   0  0  0  0  0  0  0  0  0  0  0  0
    4.9488   -2.4356   -1.5349 C   0  0  1  0  0  0  0  0  0  0  0  0
    5.2277   -0.9492   -1.8991 C   0  0  0  0  0  0  0  0  0  0  0  0
    4.1174   -0.5219   -2.8686 C   0  0  0  0  0  0  0  0  0  0  0  0
    2.9466   -1.2835   -2.2813 C   0  0  0  0  0  0  0  0  0  0  0  0
    3.3993   -2.5697   -1.6110 C   0  0  2  0  0  0  0  0  0  0  0  0
    2.7891   -2.9304   -0.2211 C   0  0  2  0  0  0  0  0  0  0  0  0
    3.2680   -1.8751    0.7762 C   0  0  0  0  0  0  0  0  0  0  0  0
    4.6046   -1.7912    0.8761 C   0  0  0  0  0  0  0  0  0  0  0  0
    5.3810   -2.7528   -0.0527 C   0  0  1  0  0  0  0  0  0  0  0  0
    4.8159   -4.1164    0.2533 C   0  0  0  0  0  0  0  0  0  0  0  0
    5.3797   -5.2987    0.5431 N   0  0  0  0  0  0  0  0  0  0  0  0
    4.2099   -6.0328    0.6113 C   0  0  0  0  0  0  0  0  0  0  0  0
    3.0677   -5.3928    0.4065 N   0  0  0  0  0  0  0  0  0  0  0  0
    3.5282   -4.1437    0.1519 N   0  0  0  0  0  0  0  0  0  0  0  0
    5.5403   -4.2472   -4.5869 H   0  0  0  0  0  0  0  0  0  0  0  0
    5.0155   -2.5760   -4.3885 H   0  0  0  0  0  0  0  0  0  0  0  0
    3.9680   -3.8765   -3.9897 H   0  0  0  0  0  0  0  0  0  0  0  0
    5.6709   -4.3986   -2.1505 H   0  0  0  0  0  0  0  0  0  0  0  0
    6.6870   -3.0931   -2.6759 H   0  0  0  0  0  0  0  0  0  0  0  0
    5.1673   -0.2781   -1.0289 H   0  0  0  0  0  0  0  0  0  0  0  0
    6.2032   -0.8400   -2.3135 H   0  0  0  0  0  0  0  0  0  0  0  0
    3.9407    0.5544   -2.8957 H   0  0  0  0  0  0  0  0  0  0  0  0
    4.2114   -0.8036   -3.9113 H   0  0  0  0  0  0  0  0  0  0  0  0
    2.6182   -0.6815   -1.4631 H   0  0  0  0  0  0  0  0  0  0  0  0
    2.1444   -1.4933   -2.9766 H   0  0  0  0  0  0  0  0  0  0  0  0
    3.0277   -3.3805   -2.2211 H   0  0  0  0  0  0  0  0  0  0  0  0
    1.7334   -3.0955   -0.2468 H   0  0  0  0  0  0  0  0  0  0  0  0
    2.5441   -1.3106    1.3519 H   0  0  0  0  0  0  0  0  0  0  0  0
    5.1283   -1.1284    1.5490 H   0  0  0  0  0  0  0  0  0  0  0  0
    6.4366   -2.7173    0.1133 H   0  0  0  0  0  0  0  0  0  0  0  0
    4.2149   -7.1009    0.8475 H   0  0  0  0  0  0  0  0  0  0  0  0
  1  2  1  0
  1 17  1  0
  1 18  1  0
  1 19  1  0
  3  2  1  6
  2 20  1  0
  2 21  1  0
  3  7  1  0
  3 11  1  0
  3  4  1  0
  4  5  1  0
  4 22  1  0
  4 23  1  0
  5  6  1  0
  5 24  1  0
  5 25  1  0
  6  7  1  0
  6 26  1  0
  6 27  1  0
  7  8  1  0
  7 28  1  6
  8 16  1  0
  8  9  1  0
  8 29  1  6
  9 10  2  0
  9 30  1  0
 10 11  1  0
 10 31  1  0
 11 12  1  0
 11 32  1  6
 12 16  1  0
 12 13  2  0
 13 14  1  0
 14 15  2  0
 14 33  1  0
 15 16  1  0
M  END
>  <i_m_ct_stereo_status>  (214) 
1

>  <s_m_source_file>  (214) 
/var/tmp/pbs.5076255.sched01/tmpqm933_o1/456x1pmp19.sdf

>  <i_m_source_file_index>  (214) 
42

>  <i_lp_mmshare_version>  (214) 
48012

>  <i_f3d_flags>  (214) 
0

>  <s_epik_input>  (214) 
W0NIM11bQ0gyXVtDQF0xMltDQEhdKFtDSDJdW0NIMl1bQ0gyXTEpW0NASF0zbjRjKG5bY0hdbjQpW0NAQEhdMltDSF09W0NIXTM=

>  <s_epik_cmdline>  (214) 
J2VwaWtfcHl0aG9uJywgJy1waHQnLCAnMi4wJywgJy1waCcsICc3LjAnLCAnLXRuJywgJzgnLCAnLW1hJywgJzIwMCcsICctaW1hZScsICc8aW5maWxlLm1hZT4nLCAnLW9tYWUnLCAnPG91dGZpbGUubWFlPic=

>  <r_lp_tautomer_probability>  (214) 
1

>  <r_epik_Ionization_Penalty>  (214) 
0.00335119

>  <r_epik_Ionization_Penalty_Charging>  (214) 
0

>  <r_epik_Ionization_Penalty_Neutral>  (214) 
0.00335119

>  <r_epik_State_Penalty>  (214) 
0.00237068

>  <r_epik_Charging_Adjusted_Penalty>  (214) 
0.00237068

>  <i_epik_Tot_Q>  (214) 
0

>  <i_epik_Tot_abs_Q>  (214) 
0

>  <s_lp_Force_Field>  (214) 
OPLS3e

>  <r_lp_Energy>  (214) 
49.4575

>  <b_lp_Chiralities_Consistent>  (214) 
1

>  <s_lp_Variant>  (214) 
49:0-1

>  <s_i_glide_gridfile>  (214) 
pfpi4k_grid

>  <i_i_glide_lignum>  (214) 
42

>  <i_i_glide_rotatable_bonds>  (214) 
1

>  <r_i_docking_score>  (214) 
-3.52811

>  <r_i_glide_ligand_efficiency>  (214) 
-0.220507

>  <r_i_glide_ligand_efficiency_sa>  (214) 
-0.555642

>  <r_i_glide_ligand_efficiency_ln>  (214) 
-0.935196

>  <r_i_glide_gscore>  (214) 
-3.52811

>  <r_i_glide_lipo>  (214) 
-0.603461

>  <r_i_glide_hbond>  (214) 
0

>  <r_i_glide_metal>  (214) 
-0

>  <r_i_glide_rewards>  (214) 
-2.13581

>  <r_i_glide_evdw>  (214) 
-14.7038

>  <r_i_glide_ecoul>  (214) 
-0.293347

>  <r_i_glide_erotb>  (214) 
0

>  <r_i_glide_esite>  (214) 
-0.00964856

>  <r_i_glide_emodel>  (214) 
-15.1949

>  <r_i_glide_energy>  (214) 
-14.9972

>  <r_i_glide_einternal>  (214) 
4.55912

>  <r_i_glide_intrahb_reward>  (214) 
-0

>  <i_i_glide_confnum>  (214) 
1

>  <i_i_glide_posenum>  (214) 
7

>  <r_i_glide_eff_state_penalty>  (214) 
0

>  <ligand_id>  (214) 
49

>  <original_smiles>  (214) 
CCC12CCCC1C1C=CC2c2ncnn21

>  <smiles>  (214) 
[H]C1=C([H])C2([H])n3nc([H])nc3C1([H])C1(C([H])([H])C([H])([H])[H])C([H])([H])C([H])([H])C([H])([H])C21[H]

$$$$
49:0:1
     RDKit          3D

 33 36  0  0  1  0  0  0  0  0999 V2000
    1.4276   -3.9007   -1.4205 C   0  0  0  0  0  0  0  0  0  0  0  0
    2.2232   -3.4329   -2.6512 C   0  0  0  0  0  0  0  0  0  0  0  0
    3.6970   -2.9418   -2.4349 C   0  0  1  0  0  0  0  0  0  0  0  0
    4.3109   -2.7078   -3.8453 C   0  0  0  0  0  0  0  0  0  0  0  0
    4.0301   -1.2461   -4.1953 C   0  0  0  0  0  0  0  0  0  0  0  0
    4.2121   -0.5112   -2.8725 C   0  0  0  0  0  0  0  0  0  0  0  0
    3.7285   -1.4934   -1.7805 C   0  0  2  0  0  0  0  0  0  0  0  0
    4.5922   -1.4881   -0.4710 C   0  0  2  0  0  0  0  0  0  0  0  0
    5.9799   -2.0265   -0.8671 C   0  0  0  0  0  0  0  0  0  0  0  0
    5.9770   -3.2621   -1.4061 C   0  0  0  0  0  0  0  0  0  0  0  0
    4.5824   -3.9073   -1.5295 C   0  0  1  0  0  0  0  0  0  0  0  0
    4.0514   -3.8107   -0.1151 C   0  0  0  0  0  0  0  0  0  0  0  0
    3.5276   -4.6860    0.7414 N   0  0  0  0  0  0  0  0  0  0  0  0
    3.1364   -3.8117    1.7235 C   0  0  0  0  0  0  0  0  0  0  0  0
    3.3923   -2.5101    1.5227 N   0  0  0  0  0  0  0  0  0  0  0  0
    4.0369   -2.5652    0.3371 N   0  0  0  0  0  0  0  0  0  0  0  0
    0.3962   -4.1404   -1.6526 H   0  0  0  0  0  0  0  0  0  0  0  0
    1.4187   -3.1164   -0.6667 H   0  0  0  0  0  0  0  0  0  0  0  0
    1.8869   -4.7832   -0.9743 H   0  0  0  0  0  0  0  0  0  0  0  0
    2.2169   -4.2431   -3.3696 H   0  0  0  0  0  0  0  0  0  0  0  0
    1.6529   -2.6318   -3.1281 H   0  0  0  0  0  0  0  0  0  0  0  0
    5.3909   -2.8591   -3.8473 H   0  0  0  0  0  0  0  0  0  0  0  0
    3.9209   -3.3870   -4.6030 H   0  0  0  0  0  0  0  0  0  0  0  0
    4.6774   -0.8563   -4.9774 H   0  0  0  0  0  0  0  0  0  0  0  0
    3.0063   -1.1329   -4.5473 H   0  0  0  0  0  0  0  0  0  0  0  0
    5.2611   -0.2613   -2.7308 H   0  0  0  0  0  0  0  0  0  0  0  0
    3.6652    0.4304   -2.8669 H   0  0  0  0  0  0  0  0  0  0  0  0
    2.7081   -1.1973   -1.5251 H   0  0  0  0  0  0  0  0  0  0  0  0
    4.6151   -0.5320    0.0648 H   0  0  0  0  0  0  0  0  0  0  0  0
    6.8788   -1.4575   -0.6537 H   0  0  0  0  0  0  0  0  0  0  0  0
    6.8655   -3.8089   -1.7022 H   0  0  0  0  0  0  0  0  0  0  0  0
    4.6321   -4.9464   -1.8830 H   0  0  0  0  0  0  0  0  0  0  0  0
    2.5587   -4.1277    2.5783 H   0  0  0  0  0  0  0  0  0  0  0  0
  1  2  1  0
  1 17  1  0
  1 18  1  0
  1 19  1  0
  3  2  1  6
  2 20  1  0
  2 21  1  0
  3  7  1  0
  3 11  1  0
  3  4  1  0
  4  5  1  0
  4 22  1  0
  4 23  1  0
  5  6  1  0
  5 24  1  0
  5 25  1  0
  6  7  1  0
  6 26  1  0
  6 27  1  0
  7  8  1  0
  7 28  1  1
  8 16  1  0
  8  9  1  0
  8 29  1  1
  9 10  2  0
  9 30  1  0
 10 11  1  0
 10 31  1  0
 11 12  1  0
 11 32  1  6
 12 16  1  0
 12 13  2  0
 13 14  1  0
 14 15  2  0
 14 33  1  0
 15 16  1  0
M  END
>  <i_m_ct_stereo_status>  (215) 
1

>  <s_m_source_file>  (215) 
/var/tmp/pbs.5076255.sched01/tmpqm933_o1/456x1pmp19.sdf

>  <i_m_source_file_index>  (215) 
42

>  <i_lp_mmshare_version>  (215) 
48012

>  <i_f3d_flags>  (215) 
0

>  <s_epik_input>  (215) 
W0NIM11bQ0gyXVtDQF0xMltDQEhdKFtDSDJdW0NIMl1bQ0gyXTEpW0NASF0zbjRjKG5bY0hdbjQpW0NAQEhdMltDSF09W0NIXTM=

>  <s_epik_cmdline>  (215) 
J2VwaWtfcHl0aG9uJywgJy1waHQnLCAnMi4wJywgJy1waCcsICc3LjAnLCAnLXRuJywgJzgnLCAnLW1hJywgJzIwMCcsICctaW1hZScsICc8aW5maWxlLm1hZT4nLCAnLW9tYWUnLCAnPG91dGZpbGUubWFlPic=

>  <r_lp_tautomer_probability>  (215) 
1

>  <r_epik_Ionization_Penalty>  (215) 
0.00335119

>  <r_epik_Ionization_Penalty_Charging>  (215) 
0

>  <r_epik_Ionization_Penalty_Neutral>  (215) 
0.00335119

>  <r_epik_State_Penalty>  (215) 
0.00237068

>  <r_epik_Charging_Adjusted_Penalty>  (215) 
0.00237068

>  <i_epik_Tot_Q>  (215) 
0

>  <i_epik_Tot_abs_Q>  (215) 
0

>  <s_lp_Force_Field>  (215) 
OPLS3e

>  <r_lp_Energy>  (215) 
49.4575

>  <b_lp_Chiralities_Consistent>  (215) 
1

>  <s_lp_Variant>  (215) 
49:0-1

>  <s_i_glide_gridfile>  (215) 
pfpi4k_grid

>  <i_i_glide_lignum>  (215) 
42

>  <i_i_glide_rotatable_bonds>  (215) 
1

>  <r_i_docking_score>  (215) 
-3.45433

>  <r_i_glide_ligand_efficiency>  (215) 
-0.215896

>  <r_i_glide_ligand_efficiency_sa>  (215) 
-0.544023

>  <r_i_glide_ligand_efficiency_ln>  (215) 
-0.915639

>  <r_i_glide_gscore>  (215) 
-3.45433

>  <r_i_glide_lipo>  (215) 
-0.599883

>  <r_i_glide_hbond>  (215) 
0

>  <r_i_glide_metal>  (215) 
-0

>  <r_i_glide_rewards>  (215) 
-1.9424

>  <r_i_glide_evdw>  (215) 
-19.0223

>  <r_i_glide_ecoul>  (215) 
0.32152

>  <r_i_glide_erotb>  (215) 
0

>  <r_i_glide_esite>  (215) 
-0.00915227

>  <r_i_glide_emodel>  (215) 
-18.0507

>  <r_i_glide_energy>  (215) 
-18.7008

>  <r_i_glide_einternal>  (215) 
7.53627

>  <r_i_glide_intrahb_reward>  (215) 
-0

>  <i_i_glide_confnum>  (215) 
2

>  <i_i_glide_posenum>  (215) 
39

>  <r_i_glide_eff_state_penalty>  (215) 
0

>  <ligand_id>  (215) 
49

>  <original_smiles>  (215) 
CCC12CCCC1C1C=CC2c2ncnn21

>  <smiles>  (215) 
[H]C1=C([H])C2([H])n3nc([H])nc3C1([H])C1(C([H])([H])C([H])([H])[H])C([H])([H])C([H])([H])C([H])([H])C21[H]

$$$$
49:0:2
     RDKit          3D

 33 36  0  0  1  0  0  0  0  0999 V2000
    4.8105   -4.4340   -4.3478 C   0  0  0  0  0  0  0  0  0  0  0  0
    5.5512   -3.7655   -3.1794 C   0  0  0  0  0  0  0  0  0  0  0  0
    4.7752   -2.6254   -2.4686 C   0  0  1  0  0  0  0  0  0  0  0  0
    4.2081   -1.6162   -3.5048 C   0  0  0  0  0  0  0  0  0  0  0  0
    2.8019   -2.1315   -3.8507 C   0  0  0  0  0  0  0  0  0  0  0  0
    2.3093   -2.7160   -2.5380 C   0  0  0  0  0  0  0  0  0  0  0  0
    3.5157   -3.1984   -1.7486 C   0  0  2  0  0  0  0  0  0  0  0  0
    3.5481   -2.9430   -0.2101 C   0  0  2  0  0  0  0  0  0  0  0  0
    3.6933   -1.4353   -0.0396 C   0  0  0  0  0  0  0  0  0  0  0  0
    4.8056   -0.9294   -0.6144 C   0  0  0  0  0  0  0  0  0  0  0  0
    5.6753   -1.9633   -1.3559 C   0  0  1  0  0  0  0  0  0  0  0  0
    5.9573   -3.0251   -0.3224 C   0  0  0  0  0  0  0  0  0  0  0  0
    7.0571   -3.6257    0.1088 N   0  0  0  0  0  0  0  0  0  0  0  0
    6.4627   -4.5013    0.9964 C   0  0  0  0  0  0  0  0  0  0  0  0
    5.1317   -4.4642    1.0846 N   0  0  0  0  0  0  0  0  0  0  0  0
    4.8395   -3.4874    0.2087 N   0  0  0  0  0  0  0  0  0  0  0  0
    5.3571   -5.1428   -4.9368 H   0  0  0  0  0  0  0  0  0  0  0  0
    4.6086   -3.7065   -5.0912 H   0  0  0  0  0  0  0  0  0  0  0  0
    3.8709   -4.8726   -4.0514 H   0  0  0  0  0  0  0  0  0  0  0  0
    5.7804   -4.5180   -2.4325 H   0  0  0  0  0  0  0  0  0  0  0  0
    6.5084   -3.3760   -3.5240 H   0  0  0  0  0  0  0  0  0  0  0  0
    4.1077   -0.6136   -3.0741 H   0  0  0  0  0  0  0  0  0  0  0  0
    4.8341   -1.5039   -4.3864 H   0  0  0  0  0  0  0  0  0  0  0  0
    2.1883   -1.3296   -4.2545 H   0  0  0  0  0  0  0  0  0  0  0  0
    2.7516   -2.9229   -4.5923 H   0  0  0  0  0  0  0  0  0  0  0  0
    1.9506   -1.8531   -2.0340 H   0  0  0  0  0  0  0  0  0  0  0  0
    1.4975   -3.4475   -2.6249 H   0  0  0  0  0  0  0  0  0  0  0  0
    3.5428   -4.2499   -1.8409 H   0  0  0  0  0  0  0  0  0  0  0  0
    2.7323   -3.3669    0.3606 H   0  0  0  0  0  0  0  0  0  0  0  0
    2.9651   -0.8578    0.5226 H   0  0  0  0  0  0  0  0  0  0  0  0
    5.0877    0.1085   -0.5709 H   0  0  0  0  0  0  0  0  0  0  0  0
    6.5985   -1.5537   -1.7358 H   0  0  0  0  0  0  0  0  0  0  0  0
    7.0412   -5.2020    1.6102 H   0  0  0  0  0  0  0  0  0  0  0  0
  1  2  1  0
  1 17  1  0
  1 18  1  0
  1 19  1  0
  3  2  1  6
  2 20  1  0
  2 21  1  0
  3  7  1  0
  3 11  1  0
  3  4  1  0
  4  5  1  0
  4 22  1  0
  4 23  1  0
  5  6  1  0
  5 24  1  0
  5 25  1  0
  6  7  1  0
  6 26  1  0
  6 27  1  0
  7  8  1  0
  7 28  1  1
  8 16  1  0
  8  9  1  0
  8 29  1  1
  9 10  2  0
  9 30  1  0
 10 11  1  0
 10 31  1  0
 11 12  1  0
 11 32  1  6
 12 16  1  0
 12 13  2  0
 13 14  1  0
 14 15  2  0
 14 33  1  0
 15 16  1  0
M  END
>  <i_m_ct_stereo_status>  (216) 
1

>  <s_m_source_file>  (216) 
/var/tmp/pbs.5076255.sched01/tmpqm933_o1/456x1pmp19.sdf

>  <i_m_source_file_index>  (216) 
42

>  <i_lp_mmshare_version>  (216) 
48012

>  <i_f3d_flags>  (216) 
0

>  <s_epik_input>  (216) 
W0NIM11bQ0gyXVtDQF0xMltDQEhdKFtDSDJdW0NIMl1bQ0gyXTEpW0NASF0zbjRjKG5bY0hdbjQpW0NAQEhdMltDSF09W0NIXTM=

>  <s_epik_cmdline>  (216) 
J2VwaWtfcHl0aG9uJywgJy1waHQnLCAnMi4wJywgJy1waCcsICc3LjAnLCAnLXRuJywgJzgnLCAnLW1hJywgJzIwMCcsICctaW1hZScsICc8aW5maWxlLm1hZT4nLCAnLW9tYWUnLCAnPG91dGZpbGUubWFlPic=

>  <r_lp_tautomer_probability>  (216) 
1

>  <r_epik_Ionization_Penalty>  (216) 
0.00335119

>  <r_epik_Ionization_Penalty_Charging>  (216) 
0

>  <r_epik_Ionization_Penalty_Neutral>  (216) 
0.00335119

>  <r_epik_State_Penalty>  (216) 
0.00237068

>  <r_epik_Charging_Adjusted_Penalty>  (216) 
0.00237068

>  <i_epik_Tot_Q>  (216) 
0

>  <i_epik_Tot_abs_Q>  (216) 
0

>  <s_lp_Force_Field>  (216) 
OPLS3e

>  <r_lp_Energy>  (216) 
49.4575

>  <b_lp_Chiralities_Consistent>  (216) 
1

>  <s_lp_Variant>  (216) 
49:0-1

>  <s_i_glide_gridfile>  (216) 
pfpi4k_grid

>  <i_i_glide_lignum>  (216) 
42

>  <i_i_glide_rotatable_bonds>  (216) 
1

>  <r_i_docking_score>  (216) 
-3.32066

>  <r_i_glide_ligand_efficiency>  (216) 
-0.207541

>  <r_i_glide_ligand_efficiency_sa>  (216) 
-0.522972

>  <r_i_glide_ligand_efficiency_ln>  (216) 
-0.880208

>  <r_i_glide_gscore>  (216) 
-3.32066

>  <r_i_glide_lipo>  (216) 
-0.522182

>  <r_i_glide_hbond>  (216) 
0

>  <r_i_glide_metal>  (216) 
-0

>  <r_i_glide_rewards>  (216) 
-2.18348

>  <r_i_glide_evdw>  (216) 
-8.75567

>  <r_i_glide_ecoul>  (216) 
-1.18147

>  <r_i_glide_erotb>  (216) 
0

>  <r_i_glide_esite>  (216) 
0

>  <r_i_glide_emodel>  (216) 
-11.539

>  <r_i_glide_energy>  (216) 
-9.93713

>  <r_i_glide_einternal>  (216) 
1.24417

>  <r_i_glide_intrahb_reward>  (216) 
-0

>  <i_i_glide_confnum>  (216) 
2

>  <i_i_glide_posenum>  (216) 
32

>  <r_i_glide_eff_state_penalty>  (216) 
0

>  <ligand_id>  (216) 
49

>  <original_smiles>  (216) 
CCC12CCCC1C1C=CC2c2ncnn21

>  <smiles>  (216) 
[H]C1=C([H])C2([H])n3nc([H])nc3C1([H])C1(C([H])([H])C([H])([H])[H])C([H])([H])C([H])([H])C([H])([H])C21[H]

$$$$
51:0:0
     RDKit          3D

 62 66  0  0  1  0  0  0  0  0999 V2000
    4.2181    2.3677    7.3901 C   0  0  0  0  0  0  0  0  0  0  0  0
    3.0523    3.0909    6.6362 C   0  0  0  0  0  0  0  0  0  0  0  0
    2.9088    4.3618    7.5267 C   0  0  0  0  0  0  0  0  0  0  0  0
    3.4908    3.5333    5.2110 C   0  0  0  0  0  0  0  0  0  0  0  0
    3.0248    2.6087    4.0670 C   0  0  2  0  0  0  0  0  0  0  0  0
    1.6300    2.9191    3.4335 C   0  0  1  0  0  0  0  0  0  0  0  0
    1.6542    2.4247    2.1037 O   0  0  0  0  0  0  0  0  0  0  0  0
    0.2097    2.6027    4.1261 C   0  0  2  0  0  0  0  0  0  0  0  0
   -0.5337    3.8619    4.6921 C   0  0  1  0  0  0  0  0  0  0  0  0
    0.3034    5.1411    4.9744 C   0  0  0  0  0  0  0  0  0  0  0  0
   -1.7619    4.3303    3.8372 C   0  0  0  0  0  0  0  0  0  0  0  0
   -1.4515    5.3245    2.8746 O   0  0  0  0  0  0  0  0  0  0  0  0
   -0.9688    3.2547    6.0089 C   0  0  2  0  0  0  0  0  0  0  0  0
    0.3479    2.9168    6.9166 C   0  0  0  0  0  0  0  0  0  0  0  0
    1.7705    2.1372    6.5245 C   0  0  1  0  0  0  0  0  0  0  0  0
    2.0346    0.8253    5.4707 C   0  0  1  0  0  0  0  0  0  0  0  0
    2.5083   -0.4101    6.2956 C   0  0  0  0  0  0  0  0  0  0  0  0
    0.8921    0.2684    4.4813 C   0  0  0  0  0  0  0  0  0  0  0  0
   -0.2761    1.1175    4.7678 C   0  0  2  0  0  0  0  0  0  0  0  0
   -1.7464    1.1824    4.4205 C   0  0  0  0  0  0  0  0  0  0  0  0
   -2.0622    2.1207    5.6670 C   0  0  1  0  0  0  0  0  0  0  0  0
   -1.9941    1.1077    6.7451 C   0  0  0  0  0  0  0  0  0  0  0  0
   -0.7062    0.4706    6.2321 C   0  0  1  0  0  0  0  0  0  0  0  0
   -0.9922   -0.9235    6.1949 O   0  0  0  0  0  0  0  0  0  0  0  0
    3.2107    1.1715    4.5163 C   0  0  1  0  0  0  0  0  0  0  0  0
    3.4285    0.2858    3.4324 O   0  0  0  0  0  0  0  0  0  0  0  0
    5.0619    3.0366    7.5599 H   0  0  0  0  0  0  0  0  0  0  0  0
    4.6526    1.5099    6.8985 H   0  0  0  0  0  0  0  0  0  0  0  0
    3.8943    2.0260    8.3750 H   0  0  0  0  0  0  0  0  0  0  0  0
    2.2724    5.1430    7.1227 H   0  0  0  0  0  0  0  0  0  0  0  0
    3.8697    4.8605    7.6568 H   0  0  0  0  0  0  0  0  0  0  0  0
    2.5362    4.1153    8.5243 H   0  0  0  0  0  0  0  0  0  0  0  0
    3.2375    4.5680    4.9940 H   0  0  0  0  0  0  0  0  0  0  0  0
    4.5797    3.5523    5.2008 H   0  0  0  0  0  0  0  0  0  0  0  0
    3.7492    2.7991    3.2815 H   0  0  0  0  0  0  0  0  0  0  0  0
    1.6690    3.9841    3.2203 H   0  0  0  0  0  0  0  0  0  0  0  0
    1.1308    3.0182    1.5644 H   0  0  0  0  0  0  0  0  0  0  0  0
   -0.2949    2.5623    3.1642 H   0  0  0  0  0  0  0  0  0  0  0  0
   -0.2136    5.8144    5.6586 H   0  0  0  0  0  0  0  0  0  0  0  0
    0.5706    5.7202    4.0901 H   0  0  0  0  0  0  0  0  0  0  0  0
    1.2365    4.8848    5.4251 H   0  0  0  0  0  0  0  0  0  0  0  0
   -2.2891    3.5507    3.3023 H   0  0  0  0  0  0  0  0  0  0  0  0
   -2.5126    4.7480    4.4993 H   0  0  0  0  0  0  0  0  0  0  0  0
   -0.8571    4.9490    2.2218 H   0  0  0  0  0  0  0  0  0  0  0  0
   -1.5185    4.0058    6.5793 H   0  0  0  0  0  0  0  0  0  0  0  0
    0.5759    3.8879    7.3338 H   0  0  0  0  0  0  0  0  0  0  0  0
   -0.0024    2.4585    7.8409 H   0  0  0  0  0  0  0  0  0  0  0  0
    1.8671    1.6181    7.4778 H   0  0  0  0  0  0  0  0  0  0  0  0
    2.8250   -1.2249    5.6434 H   0  0  0  0  0  0  0  0  0  0  0  0
    1.7339   -0.8137    6.9427 H   0  0  0  0  0  0  0  0  0  0  0  0
    3.3535   -0.1875    6.9399 H   0  0  0  0  0  0  0  0  0  0  0  0
    1.0773    0.3522    3.4145 H   0  0  0  0  0  0  0  0  0  0  0  0
    0.7404   -0.8018    4.5861 H   0  0  0  0  0  0  0  0  0  0  0  0
   -2.0094    1.5546    3.4376 H   0  0  0  0  0  0  0  0  0  0  0  0
   -2.2782    0.2318    4.4541 H   0  0  0  0  0  0  0  0  0  0  0  0
   -3.0581    2.5506    5.6006 H   0  0  0  0  0  0  0  0  0  0  0  0
   -1.9492    1.5136    7.7545 H   0  0  0  0  0  0  0  0  0  0  0  0
   -2.8614    0.4506    6.6813 H   0  0  0  0  0  0  0  0  0  0  0  0
    0.0242    0.4790    7.0304 H   0  0  0  0  0  0  0  0  0  0  0  0
   -0.2088   -1.3712    5.9096 H   0  0  0  0  0  0  0  0  0  0  0  0
    4.1691    1.0842    5.0121 H   0  0  0  0  0  0  0  0  0  0  0  0
    2.7682    0.4666    2.7746 H   0  0  0  0  0  0  0  0  0  0  0  0
  1  2  1  0
  1 27  1  0
  1 28  1  0
  1 29  1  0
  2 15  1  0
  2  3  1  0
  2  4  1  0
  3 30  1  0
  3 31  1  0
  3 32  1  0
  4  5  1  0
  4 33  1  0
  4 34  1  0
  5 25  1  0
  5  6  1  0
  5 35  1  6
  6  7  1  0
  6  8  1  0
  6 36  1  6
  7 37  1  0
  8 19  1  0
  8  9  1  0
  8 38  1  6
  9 10  1  1
  9 11  1  0
  9 13  1  0
 10 39  1  0
 10 40  1  0
 10 41  1  0
 11 12  1  0
 11 42  1  0
 11 43  1  0
 12 44  1  0
 13 21  1  0
 13 14  1  0
 13 45  1  1
 14 15  1  0
 14 46  1  0
 14 47  1  0
 15 16  1  0
 15 48  1  1
 16 17  1  1
 16 18  1  0
 16 25  1  0
 17 49  1  0
 17 50  1  0
 17 51  1  0
 19 18  1  6
 18 52  1  0
 18 53  1  0
 19 23  1  0
 19 20  1  0
 20 21  1  0
 20 54  1  0
 20 55  1  0
 21 22  1  0
 21 56  1  6
 22 23  1  0
 22 57  1  0
 22 58  1  0
 23 24  1  0
 23 59  1  1
 24 60  1  0
 25 26  1  0
 25 61  1  1
 26 62  1  0
M  END
>  <i_m_ct_stereo_status>  (217) 
1

>  <s_m_source_file>  (217) 
/var/tmp/pbs.5076255.sched01/tmpqm933_o1/456x1pmp19.sdf

>  <i_m_source_file_index>  (217) 
45

>  <i_lp_mmshare_version>  (217) 
48012

>  <i_f3d_flags>  (217) 
0

>  <s_epik_input>  (217) 
W0NAQF0xMjNbQ0BASF00W0NASF0oW09IXSlbQ0BIXTVbQ0gyXUMoW0NIM10pKFtDSDNdKVtDQEhdKFtDQEBdKFtDSDNdKShbQ0gyXTEpW0NASF01W09IXSlbQ0gyXVtDQEBIXShbQ0BdNChbQ0gzXSlbQ0gyXVtPSF0pW0NAQEhdKFtDSDJdMilbQ0gyXVtDQEhdM1tPSF0=

>  <s_epik_cmdline>  (217) 
J2VwaWtfcHl0aG9uJywgJy1waHQnLCAnMi4wJywgJy1waCcsICc3LjAnLCAnLXRuJywgJzgnLCAnLW1hJywgJzIwMCcsICctaW1hZScsICc8aW5maWxlLm1hZT4nLCAnLW9tYWUnLCAnPG91dGZpbGUubWFlPic=

>  <r_lp_tautomer_probability>  (217) 
1

>  <r_epik_Ionization_Penalty>  (217) 
6.60167e-06

>  <r_epik_Ionization_Penalty_Charging>  (217) 
0

>  <r_epik_Ionization_Penalty_Neutral>  (217) 
6.60167e-06

>  <r_epik_State_Penalty>  (217) 
-0

>  <r_epik_Charging_Adjusted_Penalty>  (217) 
0

>  <i_epik_Tot_Q>  (217) 
0

>  <i_epik_Tot_abs_Q>  (217) 
0

>  <s_lp_Force_Field>  (217) 
OPLS3e

>  <r_lp_Energy>  (217) 
268.251

>  <b_lp_Chiralities_Consistent>  (217) 
1

>  <s_lp_Variant>  (217) 
51:0-1

>  <s_i_glide_gridfile>  (217) 
pfpi4k_grid

>  <i_i_glide_lignum>  (217) 
45

>  <i_i_glide_rotatable_bonds>  (217) 
5

>  <r_i_docking_score>  (217) 
-3.93473

>  <r_i_glide_ligand_efficiency>  (217) 
-0.151336

>  <r_i_glide_ligand_efficiency_sa>  (217) 
-0.448332

>  <r_i_glide_ligand_efficiency_ln>  (217) 
-0.924058

>  <r_i_glide_gscore>  (217) 
-3.93473

>  <r_i_glide_lipo>  (217) 
0

>  <r_i_glide_hbond>  (217) 
-0.329687

>  <r_i_glide_metal>  (217) 
-0

>  <r_i_glide_rewards>  (217) 
-1.42374

>  <r_i_glide_evdw>  (217) 
-11.878

>  <r_i_glide_ecoul>  (217) 
-11.5473

>  <r_i_glide_erotb>  (217) 
0.144691

>  <r_i_glide_esite>  (217) 
0

>  <r_i_glide_emodel>  (217) 
-34.519

>  <r_i_glide_energy>  (217) 
-23.4253

>  <r_i_glide_einternal>  (217) 
2.99047

>  <r_i_glide_intrahb_reward>  (217) 
-0.5

>  <i_i_glide_confnum>  (217) 
6

>  <i_i_glide_posenum>  (217) 
19

>  <r_i_glide_eff_state_penalty>  (217) 
0

>  <ligand_id>  (217) 
51

>  <original_smiles>  (217) 
CC1(C)CC2C(O)C3C(C)(CO)C4CC1C(C)(CC31CC4CC1O)C2O

>  <smiles>  (217) 
[H]OC([H])([H])C1(C([H])([H])[H])C2([H])C([H])([H])C3([H])C(C([H])([H])[H])(C([H])([H])[H])C([H])([H])C4([H])C([H])(O[H])C1([H])C1(C([H])([H])C2([H])C([H])([H])C1([H])O[H])C([H])([H])C3(C([H])([H])[H])C4([H])O[H]

$$$$
51:0:1
     RDKit          3D

 62 66  0  0  1  0  0  0  0  0999 V2000
    4.0798   -0.1100    6.4691 C   0  0  0  0  0  0  0  0  0  0  0  0
    3.4877    1.2058    5.8571 C   0  0  0  0  0  0  0  0  0  0  0  0
    4.3227    2.2457    6.6575 C   0  0  0  0  0  0  0  0  0  0  0  0
    3.8484    1.3452    4.3504 C   0  0  0  0  0  0  0  0  0  0  0  0
    2.7171    0.9565    3.3775 C   0  0  2  0  0  0  0  0  0  0  0  0
    1.7234    2.0965    2.9753 C   0  0  1  0  0  0  0  0  0  0  0  0
    1.1644    1.7103    1.7266 O   0  0  0  0  0  0  0  0  0  0  0  0
    0.5686    2.7035    3.9204 C   0  0  2  0  0  0  0  0  0  0  0  0
    0.8573    4.1327    4.5159 C   0  0  1  0  0  0  0  0  0  0  0  0
    2.3269    4.6076    4.4940 C   0  0  0  0  0  0  0  0  0  0  0  0
    0.1001    5.3094    3.8093 C   0  0  0  0  0  0  0  0  0  0  0  0
    0.2504    6.5571    4.4667 O   0  0  0  0  0  0  0  0  0  0  0  0
    0.3834    3.8502    5.9145 C   0  0  2  0  0  0  0  0  0  0  0  0
    1.3620    2.7369    6.5978 C   0  0  0  0  0  0  0  0  0  0  0  0
    1.9003    1.2618    6.0354 C   0  0  1  0  0  0  0  0  0  0  0  0
    1.1123    0.1164    5.0596 C   0  0  1  0  0  0  0  0  0  0  0  0
    0.8601   -1.1753    5.8827 C   0  0  0  0  0  0  0  0  0  0  0  0
   -0.2800    0.4239    4.3231 C   0  0  0  0  0  0  0  0  0  0  0  0
   -0.5978    1.7971    4.7379 C   0  0  2  0  0  0  0  0  0  0  0  0
   -1.7502    2.7640    4.6128 C   0  0  0  0  0  0  0  0  0  0  0  0
   -1.2092    3.6222    5.8283 C   0  0  1  0  0  0  0  0  0  0  0  0
   -1.5887    2.7484    6.9578 C   0  0  0  0  0  0  0  0  0  0  0  0
   -1.0701    1.4783    6.3007 C   0  0  1  0  0  0  0  0  0  0  0  0
   -2.1524    0.5639    6.4334 O   0  0  0  0  0  0  0  0  0  0  0  0
    2.0573   -0.3057    3.9073 C   0  0  1  0  0  0  0  0  0  0  0  0
    1.4894   -1.0771    2.8644 O   0  0  0  0  0  0  0  0  0  0  0  0
    5.1724   -0.1162    6.4482 H   0  0  0  0  0  0  0  0  0  0  0  0
    3.7992   -1.0309    5.9881 H   0  0  0  0  0  0  0  0  0  0  0  0
    3.7932   -0.2159    7.5226 H   0  0  0  0  0  0  0  0  0  0  0  0
    4.2426    3.2675    6.3061 H   0  0  0  0  0  0  0  0  0  0  0  0
    5.3959    2.0413    6.5978 H   0  0  0  0  0  0  0  0  0  0  0  0
    4.0664    2.2459    7.7243 H   0  0  0  0  0  0  0  0  0  0  0  0
    4.2493    2.3334    4.1084 H   0  0  0  0  0  0  0  0  0  0  0  0
    4.6838    0.6805    4.1616 H   0  0  0  0  0  0  0  0  0  0  0  0
    3.2539    0.6908    2.4704 H   0  0  0  0  0  0  0  0  0  0  0  0
    2.3706    2.9084    2.6503 H   0  0  0  0  0  0  0  0  0  0  0  0
    0.7932    2.4814    1.3014 H   0  0  0  0  0  0  0  0  0  0  0  0
    0.0030    3.0472    3.0614 H   0  0  0  0  0  0  0  0  0  0  0  0
    2.5026    5.4148    5.2043 H   0  0  0  0  0  0  0  0  0  0  0  0
    2.6352    4.9740    3.5111 H   0  0  0  0  0  0  0  0  0  0  0  0
    3.0012    3.8200    4.7557 H   0  0  0  0  0  0  0  0  0  0  0  0
    0.4937    5.4123    2.8042 H   0  0  0  0  0  0  0  0  0  0  0  0
   -0.9750    5.1945    3.6853 H   0  0  0  0  0  0  0  0  0  0  0  0
    0.2374    7.2372    3.7949 H   0  0  0  0  0  0  0  0  0  0  0  0
    0.5244    4.7489    6.5088 H   0  0  0  0  0  0  0  0  0  0  0  0
    2.2092    3.3387    6.8823 H   0  0  0  0  0  0  0  0  0  0  0  0
    0.9868    2.5511    7.6014 H   0  0  0  0  0  0  0  0  0  0  0  0
    1.8320    0.7518    6.9977 H   0  0  0  0  0  0  0  0  0  0  0  0
    0.4832   -1.9841    5.2525 H   0  0  0  0  0  0  0  0  0  0  0  0
    0.1276   -1.0398    6.6755 H   0  0  0  0  0  0  0  0  0  0  0  0
    1.7539   -1.5566    6.3639 H   0  0  0  0  0  0  0  0  0  0  0  0
   -0.2860    0.4161    3.2400 H   0  0  0  0  0  0  0  0  0  0  0  0
   -1.0376   -0.3230    4.5481 H   0  0  0  0  0  0  0  0  0  0  0  0
   -1.8755    3.2672    3.6580 H   0  0  0  0  0  0  0  0  0  0  0  0
   -2.7370    2.3585    4.7972 H   0  0  0  0  0  0  0  0  0  0  0  0
   -1.7397    4.5531    5.8874 H   0  0  0  0  0  0  0  0  0  0  0  0
   -1.1223    3.0107    7.9051 H   0  0  0  0  0  0  0  0  0  0  0  0
   -2.6703    2.7687    7.1022 H   0  0  0  0  0  0  0  0  0  0  0  0
   -0.3564    1.0196    6.9721 H   0  0  0  0  0  0  0  0  0  0  0  0
   -2.8215    0.8283    5.8124 H   0  0  0  0  0  0  0  0  0  0  0  0
    2.8279   -0.9847    4.2414 H   0  0  0  0  0  0  0  0  0  0  0  0
    1.0660   -0.4776    2.2536 H   0  0  0  0  0  0  0  0  0  0  0  0
  1  2  1  0
  1 27  1  0
  1 28  1  0
  1 29  1  0
  2 15  1  0
  2  3  1  0
  2  4  1  0
  3 30  1  0
  3 31  1  0
  3 32  1  0
  4  5  1  0
  4 33  1  0
  4 34  1  0
  5 25  1  0
  5  6  1  0
  5 35  1  6
  6  7  1  0
  6  8  1  0
  6 36  1  6
  7 37  1  0
  8 19  1  0
  8  9  1  0
  8 38  1  6
  9 10  1  1
  9 11  1  0
  9 13  1  0
 10 39  1  0
 10 40  1  0
 10 41  1  0
 11 12  1  0
 11 42  1  0
 11 43  1  0
 12 44  1  0
 13 21  1  0
 13 14  1  0
 13 45  1  1
 14 15  1  0
 14 46  1  0
 14 47  1  0
 15 16  1  0
 15 48  1  1
 16 17  1  1
 16 18  1  0
 16 25  1  0
 17 49  1  0
 17 50  1  0
 17 51  1  0
 19 18  1  6
 18 52  1  0
 18 53  1  0
 19 23  1  0
 19 20  1  0
 20 21  1  0
 20 54  1  0
 20 55  1  0
 21 22  1  0
 21 56  1  1
 22 23  1  0
 22 57  1  0
 22 58  1  0
 23 24  1  0
 23 59  1  1
 24 60  1  0
 25 26  1  0
 25 61  1  1
 26 62  1  0
M  END
>  <i_m_ct_stereo_status>  (218) 
1

>  <s_m_source_file>  (218) 
/var/tmp/pbs.5076255.sched01/tmpqm933_o1/456x1pmp19.sdf

>  <i_m_source_file_index>  (218) 
45

>  <i_lp_mmshare_version>  (218) 
48012

>  <i_f3d_flags>  (218) 
0

>  <s_epik_input>  (218) 
W0NAQF0xMjNbQ0BASF00W0NASF0oW09IXSlbQ0BIXTVbQ0gyXUMoW0NIM10pKFtDSDNdKVtDQEhdKFtDQEBdKFtDSDNdKShbQ0gyXTEpW0NASF01W09IXSlbQ0gyXVtDQEBIXShbQ0BdNChbQ0gzXSlbQ0gyXVtPSF0pW0NAQEhdKFtDSDJdMilbQ0gyXVtDQEhdM1tPSF0=

>  <s_epik_cmdline>  (218) 
J2VwaWtfcHl0aG9uJywgJy1waHQnLCAnMi4wJywgJy1waCcsICc3LjAnLCAnLXRuJywgJzgnLCAnLW1hJywgJzIwMCcsICctaW1hZScsICc8aW5maWxlLm1hZT4nLCAnLW9tYWUnLCAnPG91dGZpbGUubWFlPic=

>  <r_lp_tautomer_probability>  (218) 
1

>  <r_epik_Ionization_Penalty>  (218) 
6.60167e-06

>  <r_epik_Ionization_Penalty_Charging>  (218) 
0

>  <r_epik_Ionization_Penalty_Neutral>  (218) 
6.60167e-06

>  <r_epik_State_Penalty>  (218) 
-0

>  <r_epik_Charging_Adjusted_Penalty>  (218) 
0

>  <i_epik_Tot_Q>  (218) 
0

>  <i_epik_Tot_abs_Q>  (218) 
0

>  <s_lp_Force_Field>  (218) 
OPLS3e

>  <r_lp_Energy>  (218) 
268.251

>  <b_lp_Chiralities_Consistent>  (218) 
1

>  <s_lp_Variant>  (218) 
51:0-1

>  <s_i_glide_gridfile>  (218) 
pfpi4k_grid

>  <i_i_glide_lignum>  (218) 
45

>  <i_i_glide_rotatable_bonds>  (218) 
5

>  <r_i_docking_score>  (218) 
-3.58888

>  <r_i_glide_ligand_efficiency>  (218) 
-0.138034

>  <r_i_glide_ligand_efficiency_sa>  (218) 
-0.408925

>  <r_i_glide_ligand_efficiency_ln>  (218) 
-0.842837

>  <r_i_glide_gscore>  (218) 
-3.58888

>  <r_i_glide_lipo>  (218) 
-0.0372928

>  <r_i_glide_hbond>  (218) 
-0.30409

>  <r_i_glide_metal>  (218) 
-0

>  <r_i_glide_rewards>  (218) 
-1.42374

>  <r_i_glide_evdw>  (218) 
-15.38

>  <r_i_glide_ecoul>  (218) 
-7.99638

>  <r_i_glide_erotb>  (218) 
0.144691

>  <r_i_glide_esite>  (218) 
0

>  <r_i_glide_emodel>  (218) 
-34.8436

>  <r_i_glide_energy>  (218) 
-23.3764

>  <r_i_glide_einternal>  (218) 
2.45007

>  <r_i_glide_intrahb_reward>  (218) 
-0.5

>  <i_i_glide_confnum>  (218) 
3

>  <i_i_glide_posenum>  (218) 
20

>  <r_i_glide_eff_state_penalty>  (218) 
0

>  <ligand_id>  (218) 
51

>  <original_smiles>  (218) 
CC1(C)CC2C(O)C3C(C)(CO)C4CC1C(C)(CC31CC4CC1O)C2O

>  <smiles>  (218) 
[H]OC([H])([H])C1(C([H])([H])[H])C2([H])C([H])([H])C3([H])C(C([H])([H])[H])(C([H])([H])[H])C([H])([H])C4([H])C([H])(O[H])C1([H])C1(C([H])([H])C2([H])C([H])([H])C1([H])O[H])C([H])([H])C3(C([H])([H])[H])C4([H])O[H]

$$$$
51:0:2
     RDKit          3D

 62 66  0  0  1  0  0  0  0  0999 V2000
    2.2015    2.8378    8.7372 C   0  0  0  0  0  0  0  0  0  0  0  0
    1.1100    3.0969    7.6442 C   0  0  0  0  0  0  0  0  0  0  0  0
   -0.1726    2.9831    8.5153 C   0  0  0  0  0  0  0  0  0  0  0  0
    1.2003    4.5491    7.0903 C   0  0  0  0  0  0  0  0  0  0  0  0
    1.9190    4.6881    5.7297 C   0  0  2  0  0  0  0  0  0  0  0  0
    1.0404    4.5316    4.4390 C   0  0  1  0  0  0  0  0  0  0  0  0
    1.7315    5.2088    3.3968 O   0  0  0  0  0  0  0  0  0  0  0  0
    0.4375    3.1391    3.8894 C   0  0  2  0  0  0  0  0  0  0  0  0
   -1.0976    2.9156    4.1437 C   0  0  1  0  0  0  0  0  0  0  0  0
   -1.7621    3.7936    5.2204 C   0  0  0  0  0  0  0  0  0  0  0  0
   -1.9956    3.1503    2.8867 C   0  0  0  0  0  0  0  0  0  0  0  0
   -3.3808    2.9444    3.1229 O   0  0  0  0  0  0  0  0  0  0  0  0
   -1.0250    1.4713    4.5673 C   0  0  2  0  0  0  0  0  0  0  0  0
   -0.1974    1.3813    5.9728 C   0  0  0  0  0  0  0  0  0  0  0  0
    1.2599    2.0569    6.4348 C   0  0  1  0  0  0  0  0  0  0  0  0
    2.6682    2.3350    5.5205 C   0  0  1  0  0  0  0  0  0  0  0  0
    3.8173    1.4236    6.0482 C   0  0  0  0  0  0  0  0  0  0  0  0
    2.7018    2.1747    3.9183 C   0  0  0  0  0  0  0  0  0  0  0  0
    1.3312    1.7454    3.5711 C   0  0  2  0  0  0  0  0  0  0  0  0
    0.5630    1.2619    2.3576 C   0  0  0  0  0  0  0  0  0  0  0  0
   -0.5747    0.6204    3.2690 C   0  0  1  0  0  0  0  0  0  0  0  0
    0.1471   -0.5755    3.7614 C   0  0  0  0  0  0  0  0  0  0  0  0
    1.4272    0.1773    4.0979 C   0  0  1  0  0  0  0  0  0  0  0  0
    2.4552   -0.5981    3.4928 O   0  0  0  0  0  0  0  0  0  0  0  0
    3.1448    3.7927    5.7624 C   0  0  1  0  0  0  0  0  0  0  0  0
    4.1824    4.2647    4.9252 O   0  0  0  0  0  0  0  0  0  0  0  0
    2.0531    3.4706    9.6120 H   0  0  0  0  0  0  0  0  0  0  0  0
    3.2271    3.0132    8.4518 H   0  0  0  0  0  0  0  0  0  0  0  0
    2.1578    1.8064    9.0950 H   0  0  0  0  0  0  0  0  0  0  0  0
   -1.0892    3.3007    8.0252 H   0  0  0  0  0  0  0  0  0  0  0  0
   -0.1098    3.6261    9.3954 H   0  0  0  0  0  0  0  0  0  0  0  0
   -0.3210    1.9619    8.8795 H   0  0  0  0  0  0  0  0  0  0  0  0
    0.2394    5.0575    7.0735 H   0  0  0  0  0  0  0  0  0  0  0  0
    1.7583    5.1374    7.8171 H   0  0  0  0  0  0  0  0  0  0  0  0
    2.2747    5.7184    5.7320 H   0  0  0  0  0  0  0  0  0  0  0  0
    0.2120    5.2168    4.6073 H   0  0  0  0  0  0  0  0  0  0  0  0
    1.1762    5.2273    2.6247 H   0  0  0  0  0  0  0  0  0  0  0  0
    0.3483    3.5448    2.8865 H   0  0  0  0  0  0  0  0  0  0  0  0
   -2.7066    3.3670    5.5665 H   0  0  0  0  0  0  0  0  0  0  0  0
   -1.9729    4.7861    4.8311 H   0  0  0  0  0  0  0  0  0  0  0  0
   -1.1363    3.9132    6.0778 H   0  0  0  0  0  0  0  0  0  0  0  0
   -1.8413    4.1595    2.5044 H   0  0  0  0  0  0  0  0  0  0  0  0
   -1.7723    2.4764    2.0835 H   0  0  0  0  0  0  0  0  0  0  0  0
   -3.5621    2.0156    3.0425 H   0  0  0  0  0  0  0  0  0  0  0  0
   -2.0358    1.1284    4.7968 H   0  0  0  0  0  0  0  0  0  0  0  0
   -0.9595    1.6709    6.6819 H   0  0  0  0  0  0  0  0  0  0  0  0
   -0.1399    0.3279    6.2448 H   0  0  0  0  0  0  0  0  0  0  0  0
    1.5938    1.1900    7.0036 H   0  0  0  0  0  0  0  0  0  0  0  0
    4.7695    1.6749    5.5806 H   0  0  0  0  0  0  0  0  0  0  0  0
    3.6454    0.3691    5.8477 H   0  0  0  0  0  0  0  0  0  0  0  0
    3.9665    1.5094    7.1195 H   0  0  0  0  0  0  0  0  0  0  0  0
    2.9154    3.0622    3.3315 H   0  0  0  0  0  0  0  0  0  0  0  0
    3.4987    1.5126    3.5888 H   0  0  0  0  0  0  0  0  0  0  0  0
    0.2374    2.0115    1.6368 H   0  0  0  0  0  0  0  0  0  0  0  0
    1.0795    0.5334    1.7330 H   0  0  0  0  0  0  0  0  0  0  0  0
   -1.4368    0.3340    2.6696 H   0  0  0  0  0  0  0  0  0  0  0  0
   -0.3383   -1.0744    4.5975 H   0  0  0  0  0  0  0  0  0  0  0  0
    0.2649   -1.3040    2.9566 H   0  0  0  0  0  0  0  0  0  0  0  0
    1.6577    0.0069    5.1403 H   0  0  0  0  0  0  0  0  0  0  0  0
    2.3249   -0.5854    2.5551 H   0  0  0  0  0  0  0  0  0  0  0  0
    3.6322    3.9070    6.7219 H   0  0  0  0  0  0  0  0  0  0  0  0
    3.8393    4.2996    4.0376 H   0  0  0  0  0  0  0  0  0  0  0  0
  1  2  1  0
  1 27  1  0
  1 28  1  0
  1 29  1  0
  2 15  1  0
  2  3  1  0
  2  4  1  0
  3 30  1  0
  3 31  1  0
  3 32  1  0
  4  5  1  0
  4 33  1  0
  4 34  1  0
  5 25  1  0
  5  6  1  0
  5 35  1  1
  6  7  1  0
  6  8  1  0
  6 36  1  1
  7 37  1  0
  8 19  1  0
  8  9  1  0
  8 38  1  6
  9 10  1  1
  9 11  1  0
  9 13  1  0
 10 39  1  0
 10 40  1  0
 10 41  1  0
 11 12  1  0
 11 42  1  0
 11 43  1  0
 12 44  1  0
 13 21  1  0
 13 14  1  0
 13 45  1  1
 14 15  1  0
 14 46  1  0
 14 47  1  0
 15 16  1  0
 15 48  1  1
 16 17  1  1
 16 18  1  0
 16 25  1  0
 17 49  1  0
 17 50  1  0
 17 51  1  0
 19 18  1  6
 18 52  1  0
 18 53  1  0
 19 23  1  0
 19 20  1  0
 20 21  1  0
 20 54  1  0
 20 55  1  0
 21 22  1  0
 21 56  1  6
 22 23  1  0
 22 57  1  0
 22 58  1  0
 23 24  1  0
 23 59  1  1
 24 60  1  0
 25 26  1  0
 25 61  1  1
 26 62  1  0
M  END
>  <i_m_ct_stereo_status>  (219) 
1

>  <s_m_source_file>  (219) 
/var/tmp/pbs.5076255.sched01/tmpqm933_o1/456x1pmp19.sdf

>  <i_m_source_file_index>  (219) 
45

>  <i_lp_mmshare_version>  (219) 
48012

>  <i_f3d_flags>  (219) 
0

>  <s_epik_input>  (219) 
W0NAQF0xMjNbQ0BASF00W0NASF0oW09IXSlbQ0BIXTVbQ0gyXUMoW0NIM10pKFtDSDNdKVtDQEhdKFtDQEBdKFtDSDNdKShbQ0gyXTEpW0NASF01W09IXSlbQ0gyXVtDQEBIXShbQ0BdNChbQ0gzXSlbQ0gyXVtPSF0pW0NAQEhdKFtDSDJdMilbQ0gyXVtDQEhdM1tPSF0=

>  <s_epik_cmdline>  (219) 
J2VwaWtfcHl0aG9uJywgJy1waHQnLCAnMi4wJywgJy1waCcsICc3LjAnLCAnLXRuJywgJzgnLCAnLW1hJywgJzIwMCcsICctaW1hZScsICc8aW5maWxlLm1hZT4nLCAnLW9tYWUnLCAnPG91dGZpbGUubWFlPic=

>  <r_lp_tautomer_probability>  (219) 
1

>  <r_epik_Ionization_Penalty>  (219) 
6.60167e-06

>  <r_epik_Ionization_Penalty_Charging>  (219) 
0

>  <r_epik_Ionization_Penalty_Neutral>  (219) 
6.60167e-06

>  <r_epik_State_Penalty>  (219) 
-0

>  <r_epik_Charging_Adjusted_Penalty>  (219) 
0

>  <i_epik_Tot_Q>  (219) 
0

>  <i_epik_Tot_abs_Q>  (219) 
0

>  <s_lp_Force_Field>  (219) 
OPLS3e

>  <r_lp_Energy>  (219) 
268.251

>  <b_lp_Chiralities_Consistent>  (219) 
1

>  <s_lp_Variant>  (219) 
51:0-1

>  <s_i_glide_gridfile>  (219) 
pfpi4k_grid

>  <i_i_glide_lignum>  (219) 
45

>  <i_i_glide_rotatable_bonds>  (219) 
5

>  <r_i_docking_score>  (219) 
-3.40789

>  <r_i_glide_ligand_efficiency>  (219) 
-0.131073

>  <r_i_glide_ligand_efficiency_sa>  (219) 
-0.388302

>  <r_i_glide_ligand_efficiency_ln>  (219) 
-0.800331

>  <r_i_glide_gscore>  (219) 
-3.40789

>  <r_i_glide_lipo>  (219) 
0

>  <r_i_glide_hbond>  (219) 
-0.32

>  <r_i_glide_metal>  (219) 
-0

>  <r_i_glide_rewards>  (219) 
-1.42374

>  <r_i_glide_evdw>  (219) 
-16.6066

>  <r_i_glide_ecoul>  (219) 
-6.52343

>  <r_i_glide_erotb>  (219) 
0.144691

>  <r_i_glide_esite>  (219) 
0

>  <r_i_glide_emodel>  (219) 
-34.3908

>  <r_i_glide_energy>  (219) 
-23.13

>  <r_i_glide_einternal>  (219) 
2.137

>  <r_i_glide_intrahb_reward>  (219) 
-0.5

>  <i_i_glide_confnum>  (219) 
6

>  <i_i_glide_posenum>  (219) 
8

>  <r_i_glide_eff_state_penalty>  (219) 
0

>  <ligand_id>  (219) 
51

>  <original_smiles>  (219) 
CC1(C)CC2C(O)C3C(C)(CO)C4CC1C(C)(CC31CC4CC1O)C2O

>  <smiles>  (219) 
[H]OC([H])([H])C1(C([H])([H])[H])C2([H])C([H])([H])C3([H])C(C([H])([H])[H])(C([H])([H])[H])C([H])([H])C4([H])C([H])(O[H])C1([H])C1(C([H])([H])C2([H])C([H])([H])C1([H])O[H])C([H])([H])C3(C([H])([H])[H])C4([H])O[H]

$$$$
52:0:0
     RDKit          3D

 22 24  0  0  1  0  0  0  0  0999 V2000
    6.5993   -3.4854    1.4556 C   0  0  0  0  0  0  0  0  0  0  0  0
    5.5687   -3.3303    0.4213 N   0  0  0  0  0  0  0  0  0  0  0  0
    5.7657   -2.5064   -0.6436 C   0  0  0  0  0  0  0  0  0  0  0  0
    6.7982   -1.8566   -0.8142 O   0  0  0  0  0  0  0  0  0  0  0  0
    4.6403   -2.4104   -1.6481 C   0  0  0  0  0  0  0  0  0  0  0  0
    4.8153   -1.5998   -2.7164 N   0  0  0  0  0  0  0  0  0  0  0  0
    3.8215   -1.5089   -3.6210 C   0  0  0  0  0  0  0  0  0  0  0  0
    2.6188   -2.2302   -3.5214 C   0  0  0  0  0  0  0  0  0  0  0  0
    2.4228   -3.0581   -2.4024 C   0  0  0  0  0  0  0  0  0  0  0  0
    3.4527   -3.1561   -1.4472 C   0  0  0  0  0  0  0  0  0  0  0  0
    3.3549   -3.9804   -0.3053 N   0  0  0  0  0  0  0  0  0  0  0  0
    2.3323   -4.7757    0.0845 N   0  0  0  0  0  0  0  0  0  0  0  0
    2.8203   -5.3036    1.2120 C   0  0  0  0  0  0  0  0  0  0  0  0
    4.0759   -4.8920    1.5804 N   0  0  0  0  0  0  0  0  0  0  0  0
    4.3519   -4.0679    0.5757 C   0  0  0  0  0  0  0  0  0  0  0  0
    7.5011   -2.8982    1.2813 H   0  0  0  0  0  0  0  0  0  0  0  0
    6.9111   -4.5290    1.5288 H   0  0  0  0  0  0  0  0  0  0  0  0
    6.2062   -3.1838    2.4291 H   0  0  0  0  0  0  0  0  0  0  0  0
    4.0022   -0.8557   -4.4613 H   0  0  0  0  0  0  0  0  0  0  0  0
    1.8527   -2.1327   -4.2725 H   0  0  0  0  0  0  0  0  0  0  0  0
    1.5065   -3.6192   -2.2927 H   0  0  0  0  0  0  0  0  0  0  0  0
    2.2440   -6.0016    1.8044 H   0  0  0  0  0  0  0  0  0  0  0  0
  1  2  1  0
  1 16  1  0
  1 17  1  0
  1 18  1  0
  2 15  1  0
  2  3  1  0
  3  4  2  0
  3  5  1  0
  5 10  2  0
  5  6  1  0
  6  7  2  0
  7  8  1  0
  7 19  1  0
  8  9  2  0
  8 20  1  0
  9 10  1  0
  9 21  1  0
 10 11  1  0
 11 15  1  0
 11 12  1  0
 12 13  2  0
 13 14  1  0
 13 22  1  0
 14 15  2  0
M  END
>  <i_m_ct_stereo_status>  (220) 
1

>  <s_m_source_file>  (220) 
/var/tmp/pbs.5076255.sched01/tmpo609hgx5/90rinj4u0e.sdf

>  <i_m_source_file_index>  (220) 
1

>  <i_lp_mmshare_version>  (220) 
48012

>  <i_f3d_flags>  (220) 
0

>  <s_epik_input>  (220) 
Tz1jMW4oW0NIM10pYyhuW2NIXW4yKW4yYyhjMTMpW2NIXVtjSF1bY0hdbjM=

>  <s_epik_cmdline>  (220) 
J2VwaWtfcHl0aG9uJywgJy1waHQnLCAnMi4wJywgJy1waCcsICc3LjAnLCAnLXRuJywgJzgnLCAnLW1hJywgJzIwMCcsICctaW1hZScsICc8aW5maWxlLm1hZT4nLCAnLW9tYWUnLCAnPG91dGZpbGUubWFlPic=

>  <r_lp_tautomer_probability>  (220) 
1

>  <r_epik_Ionization_Penalty>  (220) 
8.40297e-06

>  <r_epik_Ionization_Penalty_Charging>  (220) 
5.90279e-10

>  <r_epik_Ionization_Penalty_Neutral>  (220) 
8.40237e-06

>  <r_epik_State_Penalty>  (220) 
-0

>  <r_epik_Charging_Adjusted_Penalty>  (220) 
5.90279e-10

>  <i_epik_Tot_Q>  (220) 
0

>  <i_epik_Tot_abs_Q>  (220) 
0

>  <s_lp_Force_Field>  (220) 
OPLS3e

>  <r_lp_Energy>  (220) 
30.5603

>  <b_lp_Chiralities_Consistent>  (220) 
1

>  <s_lp_Variant>  (220) 
52:0-1

>  <s_i_glide_gridfile>  (220) 
pfpi4k_grid

>  <i_i_glide_lignum>  (220) 
1

>  <i_i_glide_rotatable_bonds>  (220) 
0

>  <r_i_docking_score>  (220) 
-4.53703

>  <r_i_glide_ligand_efficiency>  (220) 
-0.302469

>  <r_i_glide_ligand_efficiency_sa>  (220) 
-0.745953

>  <r_i_glide_ligand_efficiency_ln>  (220) 
-1.22356

>  <r_i_glide_gscore>  (220) 
-4.53703

>  <r_i_glide_lipo>  (220) 
-0.582318

>  <r_i_glide_hbond>  (220) 
-0.16

>  <r_i_glide_metal>  (220) 
-0

>  <r_i_glide_rewards>  (220) 
-2.14655

>  <r_i_glide_evdw>  (220) 
-20.2821

>  <r_i_glide_ecoul>  (220) 
-4.01188

>  <r_i_glide_erotb>  (220) 
0

>  <r_i_glide_esite>  (220) 
-0.0322833

>  <r_i_glide_emodel>  (220) 
-31.8697

>  <r_i_glide_energy>  (220) 
-24.2939

>  <r_i_glide_einternal>  (220) 
0

>  <r_i_glide_intrahb_reward>  (220) 
-0

>  <i_i_glide_confnum>  (220) 
1

>  <i_i_glide_posenum>  (220) 
1

>  <r_i_glide_eff_state_penalty>  (220) 
0

>  <ligand_id>  (220) 
52

>  <original_smiles>  (220) 
Cn1c(=O)c2ncccc2n2ncnc12

>  <smiles>  (220) 
[H]c1nc2n(C([H])([H])[H])c(=O)c3nc([H])c([H])c([H])c3n2n1

$$$$
52:0:1
     RDKit          3D

 22 24  0  0  1  0  0  0  0  0999 V2000
    5.8267   -2.6355    2.1545 C   0  0  0  0  0  0  0  0  0  0  0  0
    5.0139   -2.7155    0.9384 N   0  0  0  0  0  0  0  0  0  0  0  0
    5.2638   -1.8967   -0.1189 C   0  0  0  0  0  0  0  0  0  0  0  0
    6.1732   -1.0594   -0.1409 O   0  0  0  0  0  0  0  0  0  0  0  0
    4.3690   -2.0587   -1.3237 C   0  0  0  0  0  0  0  0  0  0  0  0
    4.6003   -1.2586   -2.3923 N   0  0  0  0  0  0  0  0  0  0  0  0
    3.8001   -1.3849   -3.4691 C   0  0  0  0  0  0  0  0  0  0  0  0
    2.7575   -2.3249   -3.5422 C   0  0  0  0  0  0  0  0  0  0  0  0
    2.5140   -3.1588   -2.4393 C   0  0  0  0  0  0  0  0  0  0  0  0
    3.3382   -3.0306   -1.3063 C   0  0  0  0  0  0  0  0  0  0  0  0
    3.1718   -3.8342   -0.1570 N   0  0  0  0  0  0  0  0  0  0  0  0
    2.2664   -4.8134    0.0800 N   0  0  0  0  0  0  0  0  0  0  0  0
    2.6156   -5.2044    1.3116 C   0  0  0  0  0  0  0  0  0  0  0  0
    3.6632   -4.5318    1.8861 N   0  0  0  0  0  0  0  0  0  0  0  0
    3.9657   -3.6883    0.9036 C   0  0  0  0  0  0  0  0  0  0  0  0
    6.6136   -1.8800    2.1155 H   0  0  0  0  0  0  0  0  0  0  0  0
    6.3105   -3.5972    2.3396 H   0  0  0  0  0  0  0  0  0  0  0  0
    5.2022   -2.4059    3.0193 H   0  0  0  0  0  0  0  0  0  0  0  0
    4.0081   -0.7287   -4.3024 H   0  0  0  0  0  0  0  0  0  0  0  0
    2.1387   -2.4050   -4.4181 H   0  0  0  0  0  0  0  0  0  0  0  0
    1.7202   -3.8901   -2.4727 H   0  0  0  0  0  0  0  0  0  0  0  0
    2.0850   -5.9934    1.8250 H   0  0  0  0  0  0  0  0  0  0  0  0
  1  2  1  0
  1 16  1  0
  1 17  1  0
  1 18  1  0
  2 15  1  0
  2  3  1  0
  3  4  2  0
  3  5  1  0
  5 10  2  0
  5  6  1  0
  6  7  2  0
  7  8  1  0
  7 19  1  0
  8  9  2  0
  8 20  1  0
  9 10  1  0
  9 21  1  0
 10 11  1  0
 11 15  1  0
 11 12  1  0
 12 13  2  0
 13 14  1  0
 13 22  1  0
 14 15  2  0
M  END
>  <i_m_ct_stereo_status>  (221) 
1

>  <s_m_source_file>  (221) 
/var/tmp/pbs.5076255.sched01/tmpo609hgx5/90rinj4u0e.sdf

>  <i_m_source_file_index>  (221) 
1

>  <i_lp_mmshare_version>  (221) 
48012

>  <i_f3d_flags>  (221) 
0

>  <s_epik_input>  (221) 
Tz1jMW4oW0NIM10pYyhuW2NIXW4yKW4yYyhjMTMpW2NIXVtjSF1bY0hdbjM=

>  <s_epik_cmdline>  (221) 
J2VwaWtfcHl0aG9uJywgJy1waHQnLCAnMi4wJywgJy1waCcsICc3LjAnLCAnLXRuJywgJzgnLCAnLW1hJywgJzIwMCcsICctaW1hZScsICc8aW5maWxlLm1hZT4nLCAnLW9tYWUnLCAnPG91dGZpbGUubWFlPic=

>  <r_lp_tautomer_probability>  (221) 
1

>  <r_epik_Ionization_Penalty>  (221) 
8.40297e-06

>  <r_epik_Ionization_Penalty_Charging>  (221) 
5.90279e-10

>  <r_epik_Ionization_Penalty_Neutral>  (221) 
8.40237e-06

>  <r_epik_State_Penalty>  (221) 
-0

>  <r_epik_Charging_Adjusted_Penalty>  (221) 
5.90279e-10

>  <i_epik_Tot_Q>  (221) 
0

>  <i_epik_Tot_abs_Q>  (221) 
0

>  <s_lp_Force_Field>  (221) 
OPLS3e

>  <r_lp_Energy>  (221) 
30.5603

>  <b_lp_Chiralities_Consistent>  (221) 
1

>  <s_lp_Variant>  (221) 
52:0-1

>  <s_i_glide_gridfile>  (221) 
pfpi4k_grid

>  <i_i_glide_lignum>  (221) 
1

>  <i_i_glide_rotatable_bonds>  (221) 
0

>  <r_i_docking_score>  (221) 
-4.07328

>  <r_i_glide_ligand_efficiency>  (221) 
-0.271552

>  <r_i_glide_ligand_efficiency_sa>  (221) 
-0.669706

>  <r_i_glide_ligand_efficiency_ln>  (221) 
-1.0985

>  <r_i_glide_gscore>  (221) 
-4.07328

>  <r_i_glide_lipo>  (221) 
-0.516572

>  <r_i_glide_hbond>  (221) 
-0.0368064

>  <r_i_glide_metal>  (221) 
-0

>  <r_i_glide_rewards>  (221) 
-2.09443

>  <r_i_glide_evdw>  (221) 
-20.7746

>  <r_i_glide_ecoul>  (221) 
-2.36221

>  <r_i_glide_erotb>  (221) 
0

>  <r_i_glide_esite>  (221) 
-0.0324166

>  <r_i_glide_emodel>  (221) 
-29.9352

>  <r_i_glide_energy>  (221) 
-23.1368

>  <r_i_glide_einternal>  (221) 
0

>  <r_i_glide_intrahb_reward>  (221) 
-0

>  <i_i_glide_confnum>  (221) 
2

>  <i_i_glide_posenum>  (221) 
31

>  <r_i_glide_eff_state_penalty>  (221) 
0

>  <ligand_id>  (221) 
52

>  <original_smiles>  (221) 
Cn1c(=O)c2ncccc2n2ncnc12

>  <smiles>  (221) 
[H]c1nc2n(C([H])([H])[H])c(=O)c3nc([H])c([H])c([H])c3n2n1

$$$$
52:0:2
     RDKit          3D

 22 24  0  0  1  0  0  0  0  0999 V2000
   -1.5278    1.7339    4.1964 C   0  0  0  0  0  0  0  0  0  0  0  0
   -0.8623    0.4317    4.3289 N   0  0  0  0  0  0  0  0  0  0  0  0
   -1.2592   -0.4574    5.2796 C   0  0  0  0  0  0  0  0  0  0  0  0
   -2.1781   -0.2463    6.0735 O   0  0  0  0  0  0  0  0  0  0  0  0
   -0.5092   -1.7682    5.3366 C   0  0  0  0  0  0  0  0  0  0  0  0
   -0.8832   -2.6687    6.2776 N   0  0  0  0  0  0  0  0  0  0  0  0
   -0.2204   -3.8428    6.3401 C   0  0  0  0  0  0  0  0  0  0  0  0
    0.8327   -4.1836    5.4707 C   0  0  0  0  0  0  0  0  0  0  0  0
    1.2272   -3.2529    4.4902 C   0  0  0  0  0  0  0  0  0  0  0  0
    0.5432   -2.0206    4.4244 C   0  0  0  0  0  0  0  0  0  0  0  0
    0.8709   -1.0291    3.4791 N   0  0  0  0  0  0  0  0  0  0  0  0
    1.8200   -1.0553    2.5200 N   0  0  0  0  0  0  0  0  0  0  0  0
    1.6487    0.1430    1.9465 C   0  0  0  0  0  0  0  0  0  0  0  0
    0.6608    0.9361    2.4794 N   0  0  0  0  0  0  0  0  0  0  0  0
    0.2111    0.1327    3.4334 C   0  0  0  0  0  0  0  0  0  0  0  0
   -2.3314    1.9031    4.9124 H   0  0  0  0  0  0  0  0  0  0  0  0
   -1.9603    1.8330    3.1990 H   0  0  0  0  0  0  0  0  0  0  0  0
   -0.8048    2.5397    4.3310 H   0  0  0  0  0  0  0  0  0  0  0  0
   -0.5503   -4.5370    7.0999 H   0  0  0  0  0  0  0  0  0  0  0  0
    1.3297   -5.1386    5.5597 H   0  0  0  0  0  0  0  0  0  0  0  0
    2.0363   -3.4874    3.8120 H   0  0  0  0  0  0  0  0  0  0  0  0
    2.2609    0.4630    1.1132 H   0  0  0  0  0  0  0  0  0  0  0  0
  1  2  1  0
  1 16  1  0
  1 17  1  0
  1 18  1  0
  2 15  1  0
  2  3  1  0
  3  4  2  0
  3  5  1  0
  5 10  2  0
  5  6  1  0
  6  7  2  0
  7  8  1  0
  7 19  1  0
  8  9  2  0
  8 20  1  0
  9 10  1  0
  9 21  1  0
 10 11  1  0
 11 15  1  0
 11 12  1  0
 12 13  2  0
 13 14  1  0
 13 22  1  0
 14 15  2  0
M  END
>  <i_m_ct_stereo_status>  (222) 
1

>  <s_m_source_file>  (222) 
/var/tmp/pbs.5076255.sched01/tmpo609hgx5/90rinj4u0e.sdf

>  <i_m_source_file_index>  (222) 
1

>  <i_lp_mmshare_version>  (222) 
48012

>  <i_f3d_flags>  (222) 
0

>  <s_epik_input>  (222) 
Tz1jMW4oW0NIM10pYyhuW2NIXW4yKW4yYyhjMTMpW2NIXVtjSF1bY0hdbjM=

>  <s_epik_cmdline>  (222) 
J2VwaWtfcHl0aG9uJywgJy1waHQnLCAnMi4wJywgJy1waCcsICc3LjAnLCAnLXRuJywgJzgnLCAnLW1hJywgJzIwMCcsICctaW1hZScsICc8aW5maWxlLm1hZT4nLCAnLW9tYWUnLCAnPG91dGZpbGUubWFlPic=

>  <r_lp_tautomer_probability>  (222) 
1

>  <r_epik_Ionization_Penalty>  (222) 
8.40297e-06

>  <r_epik_Ionization_Penalty_Charging>  (222) 
5.90279e-10

>  <r_epik_Ionization_Penalty_Neutral>  (222) 
8.40237e-06

>  <r_epik_State_Penalty>  (222) 
-0

>  <r_epik_Charging_Adjusted_Penalty>  (222) 
5.90279e-10

>  <i_epik_Tot_Q>  (222) 
0

>  <i_epik_Tot_abs_Q>  (222) 
0

>  <s_lp_Force_Field>  (222) 
OPLS3e

>  <r_lp_Energy>  (222) 
30.5603

>  <b_lp_Chiralities_Consistent>  (222) 
1

>  <s_lp_Variant>  (222) 
52:0-1

>  <s_i_glide_gridfile>  (222) 
pfpi4k_grid

>  <i_i_glide_lignum>  (222) 
1

>  <i_i_glide_rotatable_bonds>  (222) 
0

>  <r_i_docking_score>  (222) 
-3.9169

>  <r_i_glide_ligand_efficiency>  (222) 
-0.261126

>  <r_i_glide_ligand_efficiency_sa>  (222) 
-0.643993

>  <r_i_glide_ligand_efficiency_ln>  (222) 
-1.05632

>  <r_i_glide_gscore>  (222) 
-3.9169

>  <r_i_glide_lipo>  (222) 
-0.0427335

>  <r_i_glide_hbond>  (222) 
-0.148087

>  <r_i_glide_metal>  (222) 
-0

>  <r_i_glide_rewards>  (222) 
-2.03738

>  <r_i_glide_evdw>  (222) 
-16.6952

>  <r_i_glide_ecoul>  (222) 
-4.93594

>  <r_i_glide_erotb>  (222) 
0

>  <r_i_glide_esite>  (222) 
-0.113547

>  <r_i_glide_emodel>  (222) 
-28.175

>  <r_i_glide_energy>  (222) 
-21.6312

>  <r_i_glide_einternal>  (222) 
0

>  <r_i_glide_intrahb_reward>  (222) 
-0

>  <i_i_glide_confnum>  (222) 
2

>  <i_i_glide_posenum>  (222) 
9

>  <r_i_glide_eff_state_penalty>  (222) 
0

>  <ligand_id>  (222) 
52

>  <original_smiles>  (222) 
Cn1c(=O)c2ncccc2n2ncnc12

>  <smiles>  (222) 
[H]c1nc2n(C([H])([H])[H])c(=O)c3nc([H])c([H])c([H])c3n2n1

$$$$
53:0:0
     RDKit          3D

 63 65  0  0  1  0  0  0  0  0999 V2000
    5.7363   -0.9262    2.8284 C   0  0  0  0  0  0  0  0  0  0  0  0
    4.4679   -1.5828    2.7136 O   0  0  0  0  0  0  0  0  0  0  0  0
    4.1915   -2.6470    1.8137 C   0  0  0  0  0  0  0  0  0  0  0  0
    2.9549   -2.4129    1.1870 O   0  0  0  0  0  0  0  0  0  0  0  0
    1.8507   -1.9197    1.9522 C   0  0  0  0  0  0  0  0  0  0  0  0
    5.2522   -2.6445    0.6306 C   0  0  2  0  0  0  0  0  0  0  0  0
    5.1172   -1.4114   -0.2954 C   0  0  0  0  0  0  0  0  0  0  0  0
    4.1847   -1.7891   -1.3564 N   0  0  1  0  0  0  0  0  0  0  0  0
    4.2749   -0.9177   -2.5560 C   0  0  0  0  0  0  0  0  0  0  0  0
    3.1429   -1.1055   -3.5735 C   0  0  2  0  0  0  0  0  0  0  0  0
    3.2635   -2.3775   -4.1500 O   0  0  0  0  0  0  0  0  0  0  0  0
    3.2211   -0.1188   -4.7617 C   0  0  0  0  0  0  0  0  0  0  0  0
    2.1520    0.7955   -4.7593 O   0  0  0  0  0  0  0  0  0  0  0  0
    4.3345   -3.2427   -1.5736 C   0  0  0  0  0  0  0  0  0  0  0  0
    5.1057   -3.8024   -0.3586 C   0  0  2  0  0  0  0  0  0  0  0  0
    4.7741   -5.2093    0.1831 C   0  0  2  0  0  0  0  0  0  0  0  0
    3.2898   -5.3717    0.5822 C   0  0  0  0  0  0  0  0  0  0  0  0
    3.0170   -5.0091    2.0451 C   0  0  0  0  0  0  0  0  0  0  0  0
    4.0872   -4.0393    2.6396 C   0  0  2  0  0  0  0  0  0  0  0  0
    3.6541   -3.6804    4.0850 C   0  0  0  0  0  0  0  0  0  0  0  0
    5.4647   -4.8019    2.6505 C   0  0  1  0  0  0  0  0  0  0  0  0
    5.7091   -5.6624    3.9217 C   0  0  0  0  0  0  0  0  0  0  0  0
    5.7079   -5.6745    1.3514 C   0  0  0  0  0  0  0  0  0  0  0  0
    5.4472   -7.1974    1.5402 C   0  0  0  0  0  0  0  0  0  0  0  0
    7.2042   -5.5800    0.9797 C   0  0  0  0  0  0  0  0  0  0  0  0
    5.7495   -0.2728    3.7104 H   0  0  0  0  0  0  0  0  0  0  0  0
    6.0038   -0.2852    1.9942 H   0  0  0  0  0  0  0  0  0  0  0  0
    6.5296   -1.6634    2.8748 H   0  0  0  0  0  0  0  0  0  0  0  0
    1.0193   -1.7264    1.2899 H   0  0  0  0  0  0  0  0  0  0  0  0
    2.0807   -0.9837    2.4720 H   0  0  0  0  0  0  0  0  0  0  0  0
    1.4205   -2.6493    2.6315 H   0  0  0  0  0  0  0  0  0  0  0  0
    6.2756   -2.7035    0.9958 H   0  0  0  0  0  0  0  0  0  0  0  0
    4.7735   -0.4735    0.1650 H   0  0  0  0  0  0  0  0  0  0  0  0
    6.1150   -1.2496   -0.7254 H   0  0  0  0  0  0  0  0  0  0  0  0
    4.2377    0.1347   -2.2329 H   0  0  0  0  0  0  0  0  0  0  0  0
    5.2361   -1.0512   -3.0646 H   0  0  0  0  0  0  0  0  0  0  0  0
    2.2131   -1.0565   -2.9869 H   0  0  0  0  0  0  0  0  0  0  0  0
    2.4234   -2.5818   -4.5282 H   0  0  0  0  0  0  0  0  0  0  0  0
    4.1871    0.4115   -4.8123 H   0  0  0  0  0  0  0  0  0  0  0  0
    3.1541   -0.6383   -5.7212 H   0  0  0  0  0  0  0  0  0  0  0  0
    2.2261    1.4044   -3.9944 H   0  0  0  0  0  0  0  0  0  0  0  0
    3.3334   -3.6730   -1.7005 H   0  0  0  0  0  0  0  0  0  0  0  0
    4.9100   -3.4700   -2.4796 H   0  0  0  0  0  0  0  0  0  0  0  0
    6.1031   -3.9087   -0.7896 H   0  0  0  0  0  0  0  0  0  0  0  0
    4.9228   -5.8670   -0.6744 H   0  0  0  0  0  0  0  0  0  0  0  0
    2.6450   -4.7675   -0.0517 H   0  0  0  0  0  0  0  0  0  0  0  0
    2.9724   -6.4049    0.4214 H   0  0  0  0  0  0  0  0  0  0  0  0
    1.9862   -4.6905    2.1366 H   0  0  0  0  0  0  0  0  0  0  0  0
    3.0643   -5.9347    2.6346 H   0  0  0  0  0  0  0  0  0  0  0  0
    3.3967   -4.5730    4.6513 H   0  0  0  0  0  0  0  0  0  0  0  0
    2.7784   -3.0449    4.1277 H   0  0  0  0  0  0  0  0  0  0  0  0
    4.4445   -3.1601    4.6239 H   0  0  0  0  0  0  0  0  0  0  0  0
    6.2116   -4.0124    2.7110 H   0  0  0  0  0  0  0  0  0  0  0  0
    4.9173   -6.3961    4.0816 H   0  0  0  0  0  0  0  0  0  0  0  0
    5.7707   -5.0578    4.8231 H   0  0  0  0  0  0  0  0  0  0  0  0
    6.6503   -6.2112    3.8725 H   0  0  0  0  0  0  0  0  0  0  0  0
    6.1895   -7.6637    2.1838 H   0  0  0  0  0  0  0  0  0  0  0  0
    5.4859   -7.7226    0.5880 H   0  0  0  0  0  0  0  0  0  0  0  0
    4.4715   -7.4198    1.9634 H   0  0  0  0  0  0  0  0  0  0  0  0
    7.8343   -6.0411    1.7401 H   0  0  0  0  0  0  0  0  0  0  0  0
    7.5343   -4.5469    0.8667 H   0  0  0  0  0  0  0  0  0  0  0  0
    7.4007   -6.1110    0.0580 H   0  0  0  0  0  0  0  0  0  0  0  0
    3.2549   -1.6571   -0.9372 H   0  0  0  0  0  0  0  0  0  0  0  0
  1  2  1  0
  1 26  1  0
  1 27  1  0
  1 28  1  0
  2  3  1  0
  3 19  1  0
  3  4  1  0
  3  6  1  0
  4  5  1  0
  5 29  1  0
  5 30  1  0
  5 31  1  0
  6 15  1  0
  6  7  1  0
  6 32  1  1
  7  8  1  0
  7 33  1  0
  7 34  1  0
  8  9  1  0
  8 14  1  0
  8 63  1  1
  9 10  1  0
  9 35  1  0
  9 36  1  0
 10 11  1  0
 10 12  1  0
 10 37  1  1
 11 38  1  0
 12 13  1  0
 12 39  1  0
 12 40  1  0
 13 41  1  0
 14 15  1  0
 14 42  1  0
 14 43  1  0
 15 16  1  0
 15 44  1  6
 16 23  1  0
 16 17  1  0
 16 45  1  6
 17 18  1  0
 17 46  1  0
 17 47  1  0
 18 19  1  0
 18 48  1  0
 18 49  1  0
 19 20  1  1
 19 21  1  0
 20 50  1  0
 20 51  1  0
 20 52  1  0
 21 22  1  0
 21 23  1  0
 21 53  1  6
 22 54  1  0
 22 55  1  0
 22 56  1  0
 23 24  1  0
 23 25  1  0
 24 57  1  0
 24 58  1  0
 24 59  1  0
 25 60  1  0
 25 61  1  0
 25 62  1  0
M  CHG  1   8   1
M  END
>  <i_m_ct_stereo_status>  (223) 
1

>  <s_m_source_file>  (223) 
/var/tmp/pbs.5076255.sched01/tmpo609hgx5/90rinj4u0e.sdf

>  <i_m_source_file_index>  (223) 
2

>  <i_lp_mmshare_version>  (223) 
48012

>  <i_f3d_flags>  (223) 
0

>  <s_epik_input>  (223) 
W0NIM11PQyhPW0NIM10pKFtDQEBdMTJbQ0gzXSlbQ0BIXTNbQ0BASF0oW0NASF0oW0NIMl1bQ0gyXTEpQyhbQ0gzXSkoW0NIM10pW0NAQEhdMltDSDNdKVtDSDJdTihbQ0gyXTMpW0NIMl1bQ0BIXShbT0hdKVtDSDJdW09IXQ==

>  <s_epik_cmdline>  (223) 
J2VwaWtfcHl0aG9uJywgJy1waHQnLCAnMi4wJywgJy1waCcsICc3LjAnLCAnLXRuJywgJzgnLCAnLW1hJywgJzIwMCcsICctaW1hZScsICc8aW5maWxlLm1hZT4nLCAnLW9tYWUnLCAnPG91dGZpbGUubWFlPic=

>  <r_epik_Ionization_Penalty>  (223) 
0.00235869

>  <r_epik_Ionization_Penalty_Charging>  (223) 
0.00235851

>  <r_epik_Ionization_Penalty_Neutral>  (223) 
1.80087e-07

>  <r_epik_State_Penalty>  (223) 
0.00162917

>  <r_epik_Charging_Adjusted_Penalty>  (223) 
0.00398768

>  <i_epik_Tot_Q>  (223) 
1

>  <i_epik_Tot_abs_Q>  (223) 
1

>  <s_lp_Force_Field>  (223) 
OPLS3e

>  <r_lp_Energy>  (223) 
72.1289

>  <b_lp_Chiralities_Consistent>  (223) 
1

>  <s_lp_Variant>  (223) 
53:0-1

>  <s_i_glide_gridfile>  (223) 
pfpi4k_grid

>  <i_i_glide_lignum>  (223) 
2

>  <i_i_glide_rotatable_bonds>  (223) 
7

>  <r_i_docking_score>  (223) 
-4.08256

>  <r_i_glide_ligand_efficiency>  (223) 
-0.163303

>  <r_i_glide_ligand_efficiency_sa>  (223) 
-0.4775

>  <r_i_glide_ligand_efficiency_ln>  (223) 
-0.96769

>  <r_i_glide_gscore>  (223) 
-4.08256

>  <r_i_glide_lipo>  (223) 
-0.918377

>  <r_i_glide_hbond>  (223) 
0

>  <r_i_glide_metal>  (223) 
-0

>  <r_i_glide_rewards>  (223) 
-0.985588

>  <r_i_glide_evdw>  (223) 
-19.1942

>  <r_i_glide_ecoul>  (223) 
-10.89

>  <r_i_glide_erotb>  (223) 
0.451589

>  <r_i_glide_esite>  (223) 
-0.0369784

>  <r_i_glide_emodel>  (223) 
-31.3262

>  <r_i_glide_energy>  (223) 
-30.0842

>  <r_i_glide_einternal>  (223) 
8.62949

>  <r_i_glide_intrahb_reward>  (223) 
-0

>  <i_i_glide_confnum>  (223) 
4

>  <i_i_glide_posenum>  (223) 
8

>  <r_i_glide_eff_state_penalty>  (223) 
0

>  <ligand_id>  (223) 
53

>  <original_smiles>  (223) 
COC1(OC)C2CN(CC(O)CO)CC2C2CCC1(C)C(C)C2(C)C

>  <smiles>  (223) 
[H]OC([H])([H])C([H])(O[H])C([H])([H])[N+]1([H])C([H])([H])C2([H])C(OC([H])([H])[H])(OC([H])([H])[H])C3(C([H])([H])[H])C([H])([H])C([H])([H])C([H])(C2([H])C1([H])[H])C(C([H])([H])[H])(C([H])([H])[H])C3([H])C([H])([H])[H]

$$$$
53:0:1
     RDKit          3D

 63 65  0  0  1  0  0  0  0  0999 V2000
    5.3958   -1.4692    3.5769 C   0  0  0  0  0  0  0  0  0  0  0  0
    4.1057   -1.5781    2.9817 O   0  0  0  0  0  0  0  0  0  0  0  0
    3.7432   -2.7070    2.2137 C   0  0  0  0  0  0  0  0  0  0  0  0
    2.5896   -2.3915    1.4715 O   0  0  0  0  0  0  0  0  0  0  0  0
    1.5372   -1.6419    2.0761 C   0  0  0  0  0  0  0  0  0  0  0  0
    4.8575   -2.9365    1.1148 C   0  0  2  0  0  0  0  0  0  0  0  0
    4.9529   -1.7747    0.1031 C   0  0  0  0  0  0  0  0  0  0  0  0
    4.0010   -2.1035   -0.9881 N   0  0  1  0  0  0  0  0  0  0  0  0
    4.2737   -1.3749   -2.2714 C   0  0  0  0  0  0  0  0  0  0  0  0
    3.0343   -1.2701   -3.1834 C   0  0  2  0  0  0  0  0  0  0  0  0
    2.6288   -2.5676   -3.5767 O   0  0  0  0  0  0  0  0  0  0  0  0
    3.2920   -0.5146   -4.5123 C   0  0  0  0  0  0  0  0  0  0  0  0
    3.8066    0.7791   -4.3126 O   0  0  0  0  0  0  0  0  0  0  0  0
    3.9499   -3.5877   -1.0860 C   0  0  0  0  0  0  0  0  0  0  0  0
    4.6025   -4.1456    0.2036 C   0  0  2  0  0  0  0  0  0  0  0  0
    4.0450   -5.4457    0.8485 C   0  0  2  0  0  0  0  0  0  0  0  0
    2.5384   -5.3709    1.1866 C   0  0  0  0  0  0  0  0  0  0  0  0
    2.2685   -4.8255    2.5933 C   0  0  0  0  0  0  0  0  0  0  0  0
    3.4359   -3.9727    3.1656 C   0  0  2  0  0  0  0  0  0  0  0  0
    2.9643   -3.4419    4.5518 C   0  0  0  0  0  0  0  0  0  0  0  0
    4.6958   -4.9256    3.3008 C   0  0  1  0  0  0  0  0  0  0  0  0
    4.7682   -5.6727    4.6583 C   0  0  0  0  0  0  0  0  0  0  0  0
    4.8665   -5.9314    2.0893 C   0  0  0  0  0  0  0  0  0  0  0  0
    4.4018   -7.3793    2.4012 C   0  0  0  0  0  0  0  0  0  0  0  0
    6.3709   -6.0533    1.7533 C   0  0  0  0  0  0  0  0  0  0  0  0
    5.3912   -0.6066    4.2415 H   0  0  0  0  0  0  0  0  0  0  0  0
    6.1853   -1.3004    2.8454 H   0  0  0  0  0  0  0  0  0  0  0  0
    5.6529   -2.3307    4.1871 H   0  0  0  0  0  0  0  0  0  0  0  0
    0.8272   -1.3950    1.2916 H   0  0  0  0  0  0  0  0  0  0  0  0
    1.8733   -0.7052    2.5213 H   0  0  0  0  0  0  0  0  0  0  0  0
    0.9715   -2.2047    2.8138 H   0  0  0  0  0  0  0  0  0  0  0  0
    5.8350   -3.0541    1.5859 H   0  0  0  0  0  0  0  0  0  0  0  0
    4.7905   -0.7868    0.5463 H   0  0  0  0  0  0  0  0  0  0  0  0
    5.9640   -1.7991   -0.3135 H   0  0  0  0  0  0  0  0  0  0  0  0
    4.5726   -0.3538   -2.0249 H   0  0  0  0  0  0  0  0  0  0  0  0
    5.0994   -1.8239   -2.8235 H   0  0  0  0  0  0  0  0  0  0  0  0
    2.2278   -0.7678   -2.6309 H   0  0  0  0  0  0  0  0  0  0  0  0
    2.1130   -2.9515   -2.8806 H   0  0  0  0  0  0  0  0  0  0  0  0
    3.9796   -1.0751   -5.1417 H   0  0  0  0  0  0  0  0  0  0  0  0
    2.3579   -0.4237   -5.0726 H   0  0  0  0  0  0  0  0  0  0  0  0
    3.1832    1.2892   -3.8221 H   0  0  0  0  0  0  0  0  0  0  0  0
    2.9133   -3.8968   -1.2144 H   0  0  0  0  0  0  0  0  0  0  0  0
    4.4972   -3.9614   -1.9608 H   0  0  0  0  0  0  0  0  0  0  0  0
    5.5918   -4.4212   -0.1625 H   0  0  0  0  0  0  0  0  0  0  0  0
    4.1371   -6.1934    0.0586 H   0  0  0  0  0  0  0  0  0  0  0  0
    2.0060   -4.7656    0.4581 H   0  0  0  0  0  0  0  0  0  0  0  0
    2.0941   -6.3637    1.1067 H   0  0  0  0  0  0  0  0  0  0  0  0
    1.3090   -4.3154    2.6001 H   0  0  0  0  0  0  0  0  0  0  0  0
    2.1166   -5.6719    3.2624 H   0  0  0  0  0  0  0  0  0  0  0  0
    2.5593   -4.2438    5.1661 H   0  0  0  0  0  0  0  0  0  0  0  0
    2.1819   -2.6915    4.4753 H   0  0  0  0  0  0  0  0  0  0  0  0
    3.7700   -2.9861    5.1250 H   0  0  0  0  0  0  0  0  0  0  0  0
    5.5801   -4.2935    3.3258 H   0  0  0  0  0  0  0  0  0  0  0  0
    3.8780   -6.2754    4.8426 H   0  0  0  0  0  0  0  0  0  0  0  0
    4.8745   -4.9890    5.4984 H   0  0  0  0  0  0  0  0  0  0  0  0
    5.6304   -6.3366    4.7087 H   0  0  0  0  0  0  0  0  0  0  0  0
    5.0462   -7.8670    3.1309 H   0  0  0  0  0  0  0  0  0  0  0  0
    4.4350   -8.0003    1.5050 H   0  0  0  0  0  0  0  0  0  0  0  0
    3.3862   -7.4311    2.7875 H   0  0  0  0  0  0  0  0  0  0  0  0
    6.9129   -6.5322    2.5713 H   0  0  0  0  0  0  0  0  0  0  0  0
    6.8413   -5.0832    1.5969 H   0  0  0  0  0  0  0  0  0  0  0  0
    6.5274   -6.6513    0.8533 H   0  0  0  0  0  0  0  0  0  0  0  0
    3.0951   -1.8060   -0.6385 H   0  0  0  0  0  0  0  0  0  0  0  0
  1  2  1  0
  1 26  1  0
  1 27  1  0
  1 28  1  0
  2  3  1  0
  3 19  1  0
  3  4  1  0
  3  6  1  0
  4  5  1  0
  5 29  1  0
  5 30  1  0
  5 31  1  0
  6 15  1  0
  6  7  1  0
  6 32  1  1
  7  8  1  0
  7 33  1  0
  7 34  1  0
  8  9  1  0
  8 14  1  0
  8 63  1  1
  9 10  1  0
  9 35  1  0
  9 36  1  0
 10 11  1  0
 10 12  1  0
 10 37  1  1
 11 38  1  0
 12 13  1  0
 12 39  1  0
 12 40  1  0
 13 41  1  0
 14 15  1  0
 14 42  1  0
 14 43  1  0
 15 16  1  0
 15 44  1  6
 16 23  1  0
 16 17  1  0
 16 45  1  6
 17 18  1  0
 17 46  1  0
 17 47  1  0
 18 19  1  0
 18 48  1  0
 18 49  1  0
 19 20  1  1
 19 21  1  0
 20 50  1  0
 20 51  1  0
 20 52  1  0
 21 22  1  0
 21 23  1  0
 21 53  1  1
 22 54  1  0
 22 55  1  0
 22 56  1  0
 23 24  1  0
 23 25  1  0
 24 57  1  0
 24 58  1  0
 24 59  1  0
 25 60  1  0
 25 61  1  0
 25 62  1  0
M  CHG  1   8   1
M  END
>  <i_m_ct_stereo_status>  (224) 
1

>  <s_m_source_file>  (224) 
/var/tmp/pbs.5076255.sched01/tmpo609hgx5/90rinj4u0e.sdf

>  <i_m_source_file_index>  (224) 
2

>  <i_lp_mmshare_version>  (224) 
48012

>  <i_f3d_flags>  (224) 
0

>  <s_epik_input>  (224) 
W0NIM11PQyhPW0NIM10pKFtDQEBdMTJbQ0gzXSlbQ0BIXTNbQ0BASF0oW0NASF0oW0NIMl1bQ0gyXTEpQyhbQ0gzXSkoW0NIM10pW0NAQEhdMltDSDNdKVtDSDJdTihbQ0gyXTMpW0NIMl1bQ0BIXShbT0hdKVtDSDJdW09IXQ==

>  <s_epik_cmdline>  (224) 
J2VwaWtfcHl0aG9uJywgJy1waHQnLCAnMi4wJywgJy1waCcsICc3LjAnLCAnLXRuJywgJzgnLCAnLW1hJywgJzIwMCcsICctaW1hZScsICc8aW5maWxlLm1hZT4nLCAnLW9tYWUnLCAnPG91dGZpbGUubWFlPic=

>  <r_epik_Ionization_Penalty>  (224) 
0.00235869

>  <r_epik_Ionization_Penalty_Charging>  (224) 
0.00235851

>  <r_epik_Ionization_Penalty_Neutral>  (224) 
1.80087e-07

>  <r_epik_State_Penalty>  (224) 
0.00162917

>  <r_epik_Charging_Adjusted_Penalty>  (224) 
0.00398768

>  <i_epik_Tot_Q>  (224) 
1

>  <i_epik_Tot_abs_Q>  (224) 
1

>  <s_lp_Force_Field>  (224) 
OPLS3e

>  <r_lp_Energy>  (224) 
72.1289

>  <b_lp_Chiralities_Consistent>  (224) 
1

>  <s_lp_Variant>  (224) 
53:0-1

>  <s_i_glide_gridfile>  (224) 
pfpi4k_grid

>  <i_i_glide_lignum>  (224) 
2

>  <i_i_glide_rotatable_bonds>  (224) 
7

>  <r_i_docking_score>  (224) 
-3.76025

>  <r_i_glide_ligand_efficiency>  (224) 
-0.15041

>  <r_i_glide_ligand_efficiency_sa>  (224) 
-0.439802

>  <r_i_glide_ligand_efficiency_ln>  (224) 
-0.891292

>  <r_i_glide_gscore>  (224) 
-3.76025

>  <r_i_glide_lipo>  (224) 
-0.546429

>  <r_i_glide_hbond>  (224) 
-0.32

>  <r_i_glide_metal>  (224) 
-0

>  <r_i_glide_rewards>  (224) 
-0.978273

>  <r_i_glide_evdw>  (224) 
-22.2954

>  <r_i_glide_ecoul>  (224) 
-8.10531

>  <r_i_glide_erotb>  (224) 
0.451589

>  <r_i_glide_esite>  (224) 
-0.0365747

>  <r_i_glide_emodel>  (224) 
-36.9655

>  <r_i_glide_energy>  (224) 
-30.4007

>  <r_i_glide_einternal>  (224) 
1.14125

>  <r_i_glide_intrahb_reward>  (224) 
-0

>  <i_i_glide_confnum>  (224) 
1

>  <i_i_glide_posenum>  (224) 
1

>  <r_i_glide_eff_state_penalty>  (224) 
0

>  <ligand_id>  (224) 
53

>  <original_smiles>  (224) 
COC1(OC)C2CN(CC(O)CO)CC2C2CCC1(C)C(C)C2(C)C

>  <smiles>  (224) 
[H]OC([H])([H])C([H])(O[H])C([H])([H])[N+]1([H])C([H])([H])C2([H])C(OC([H])([H])[H])(OC([H])([H])[H])C3(C([H])([H])[H])C([H])([H])C([H])([H])C([H])(C2([H])C1([H])[H])C(C([H])([H])[H])(C([H])([H])[H])C3([H])C([H])([H])[H]

$$$$
53:0:2
     RDKit          3D

 63 65  0  0  1  0  0  0  0  0999 V2000
    2.1493    0.3384    1.7817 C   0  0  0  0  0  0  0  0  0  0  0  0
    2.0455    1.4686    2.6497 O   0  0  0  0  0  0  0  0  0  0  0  0
    1.5675    1.3448    3.9766 C   0  0  0  0  0  0  0  0  0  0  0  0
    1.3070    2.6296    4.4922 O   0  0  0  0  0  0  0  0  0  0  0  0
    2.1989    3.7073    4.2148 C   0  0  0  0  0  0  0  0  0  0  0  0
    0.1390    0.6728    3.9165 C   0  0  2  0  0  0  0  0  0  0  0  0
   -0.8897    1.5409    3.1860 C   0  0  0  0  0  0  0  0  0  0  0  0
   -1.5303    2.3930    4.2111 N   0  0  1  0  0  0  0  0  0  0  0  0
   -2.8600    2.9516    3.8696 C   0  0  0  0  0  0  0  0  0  0  0  0
   -2.8137    3.8745    2.6501 C   0  0  2  0  0  0  0  0  0  0  0  0
   -1.9156    4.9314    2.9332 O   0  0  0  0  0  0  0  0  0  0  0  0
   -4.2001    4.4014    2.1256 C   0  0  0  0  0  0  0  0  0  0  0  0
   -4.9678    3.3063    1.6802 O   0  0  0  0  0  0  0  0  0  0  0  0
   -1.4766    1.6703    5.4990 C   0  0  0  0  0  0  0  0  0  0  0  0
   -0.5206    0.4750    5.2889 C   0  0  2  0  0  0  0  0  0  0  0  0
    0.3833   -0.0213    6.4583 C   0  0  2  0  0  0  0  0  0  0  0  0
    1.2882    1.0786    7.0487 C   0  0  0  0  0  0  0  0  0  0  0  0
    2.6381    1.1885    6.3420 C   0  0  0  0  0  0  0  0  0  0  0  0
    2.6494    0.5927    4.9061 C   0  0  2  0  0  0  0  0  0  0  0  0
    4.0816    0.8686    4.3441 C   0  0  0  0  0  0  0  0  0  0  0  0
    2.3355   -0.9572    5.0236 C   0  0  1  0  0  0  0  0  0  0  0  0
    3.5966   -1.8308    5.2210 C   0  0  0  0  0  0  0  0  0  0  0  0
    1.2267   -1.2978    6.1055 C   0  0  0  0  0  0  0  0  0  0  0  0
    1.8016   -1.8527    7.4368 C   0  0  0  0  0  0  0  0  0  0  0  0
    0.3275   -2.4290    5.5570 C   0  0  0  0  0  0  0  0  0  0  0  0
    2.6888    0.6643    0.8934 H   0  0  0  0  0  0  0  0  0  0  0  0
    1.1878   -0.0582    1.4531 H   0  0  0  0  0  0  0  0  0  0  0  0
    2.7216   -0.4914    2.1905 H   0  0  0  0  0  0  0  0  0  0  0  0
    1.7529    4.6237    4.5970 H   0  0  0  0  0  0  0  0  0  0  0  0
    2.3865    3.8415    3.1503 H   0  0  0  0  0  0  0  0  0  0  0  0
    3.1510    3.6143    4.7247 H   0  0  0  0  0  0  0  0  0  0  0  0
    0.1933   -0.2822    3.3910 H   0  0  0  0  0  0  0  0  0  0  0  0
   -0.4690    2.0810    2.3377 H   0  0  0  0  0  0  0  0  0  0  0  0
   -1.6430    0.8601    2.8010 H   0  0  0  0  0  0  0  0  0  0  0  0
   -3.5836    2.1625    3.6914 H   0  0  0  0  0  0  0  0  0  0  0  0
   -3.2122    3.5155    4.7254 H   0  0  0  0  0  0  0  0  0  0  0  0
   -2.3787    3.3038    1.8369 H   0  0  0  0  0  0  0  0  0  0  0  0
   -1.2716    4.9601    2.2257 H   0  0  0  0  0  0  0  0  0  0  0  0
   -4.8114    4.9223    2.8634 H   0  0  0  0  0  0  0  0  0  0  0  0
   -4.1096    5.1175    1.3001 H   0  0  0  0  0  0  0  0  0  0  0  0
   -5.8456    3.5946    1.4234 H   0  0  0  0  0  0  0  0  0  0  0  0
   -1.1824    2.3418    6.2912 H   0  0  0  0  0  0  0  0  0  0  0  0
   -2.4565    1.3051    5.7992 H   0  0  0  0  0  0  0  0  0  0  0  0
   -1.2265   -0.3385    5.1342 H   0  0  0  0  0  0  0  0  0  0  0  0
   -0.3089   -0.2917    7.2556 H   0  0  0  0  0  0  0  0  0  0  0  0
    0.8001    2.0465    7.0245 H   0  0  0  0  0  0  0  0  0  0  0  0
    1.4764    0.8857    8.1042 H   0  0  0  0  0  0  0  0  0  0  0  0
    2.9826    2.2163    6.3827 H   0  0  0  0  0  0  0  0  0  0  0  0
    3.3802    0.6508    6.9226 H   0  0  0  0  0  0  0  0  0  0  0  0
    4.8488    0.5678    5.0509 H   0  0  0  0  0  0  0  0  0  0  0  0
    4.2460    1.9213    4.1299 H   0  0  0  0  0  0  0  0  0  0  0  0
    4.3249    0.3437    3.4215 H   0  0  0  0  0  0  0  0  0  0  0  0
    1.9558   -1.2850    4.0551 H   0  0  0  0  0  0  0  0  0  0  0  0
    4.1649   -1.5392    6.1034 H   0  0  0  0  0  0  0  0  0  0  0  0
    4.2698   -1.7693    4.3706 H   0  0  0  0  0  0  0  0  0  0  0  0
    3.3471   -2.8838    5.3231 H   0  0  0  0  0  0  0  0  0  0  0  0
    2.2481   -2.8383    7.3137 H   0  0  0  0  0  0  0  0  0  0  0  0
    1.0181   -1.9690    8.1857 H   0  0  0  0  0  0  0  0  0  0  0  0
    2.5621   -1.2124    7.8720 H   0  0  0  0  0  0  0  0  0  0  0  0
    0.8891   -3.3588    5.4488 H   0  0  0  0  0  0  0  0  0  0  0  0
   -0.0733   -2.2030    4.5717 H   0  0  0  0  0  0  0  0  0  0  0  0
   -0.5184   -2.6294    6.2178 H   0  0  0  0  0  0  0  0  0  0  0  0
   -0.8846    3.1711    4.3225 H   0  0  0  0  0  0  0  0  0  0  0  0
  1  2  1  0
  1 26  1  0
  1 27  1  0
  1 28  1  0
  2  3  1  0
  3 19  1  0
  3  4  1  0
  3  6  1  0
  4  5  1  0
  5 29  1  0
  5 30  1  0
  5 31  1  0
  6 15  1  0
  6  7  1  0
  6 32  1  6
  7  8  1  0
  7 33  1  0
  7 34  1  0
  8  9  1  0
  8 14  1  0
  8 63  1  1
  9 10  1  0
  9 35  1  0
  9 36  1  0
 10 11  1  0
 10 12  1  0
 10 37  1  6
 11 38  1  0
 12 13  1  0
 12 39  1  0
 12 40  1  0
 13 41  1  0
 14 15  1  0
 14 42  1  0
 14 43  1  0
 15 16  1  0
 15 44  1  6
 16 23  1  0
 16 17  1  0
 16 45  1  1
 17 18  1  0
 17 46  1  0
 17 47  1  0
 18 19  1  0
 18 48  1  0
 18 49  1  0
 19 20  1  6
 19 21  1  0
 20 50  1  0
 20 51  1  0
 20 52  1  0
 21 22  1  0
 21 23  1  0
 21 53  1  6
 22 54  1  0
 22 55  1  0
 22 56  1  0
 23 24  1  0
 23 25  1  0
 24 57  1  0
 24 58  1  0
 24 59  1  0
 25 60  1  0
 25 61  1  0
 25 62  1  0
M  CHG  1   8   1
M  END
>  <i_m_ct_stereo_status>  (225) 
1

>  <s_m_source_file>  (225) 
/var/tmp/pbs.5076255.sched01/tmpo609hgx5/90rinj4u0e.sdf

>  <i_m_source_file_index>  (225) 
2

>  <i_lp_mmshare_version>  (225) 
48012

>  <i_f3d_flags>  (225) 
0

>  <s_epik_input>  (225) 
W0NIM11PQyhPW0NIM10pKFtDQEBdMTJbQ0gzXSlbQ0BIXTNbQ0BASF0oW0NASF0oW0NIMl1bQ0gyXTEpQyhbQ0gzXSkoW0NIM10pW0NAQEhdMltDSDNdKVtDSDJdTihbQ0gyXTMpW0NIMl1bQ0BIXShbT0hdKVtDSDJdW09IXQ==

>  <s_epik_cmdline>  (225) 
J2VwaWtfcHl0aG9uJywgJy1waHQnLCAnMi4wJywgJy1waCcsICc3LjAnLCAnLXRuJywgJzgnLCAnLW1hJywgJzIwMCcsICctaW1hZScsICc8aW5maWxlLm1hZT4nLCAnLW9tYWUnLCAnPG91dGZpbGUubWFlPic=

>  <r_epik_Ionization_Penalty>  (225) 
0.00235869

>  <r_epik_Ionization_Penalty_Charging>  (225) 
0.00235851

>  <r_epik_Ionization_Penalty_Neutral>  (225) 
1.80087e-07

>  <r_epik_State_Penalty>  (225) 
0.00162917

>  <r_epik_Charging_Adjusted_Penalty>  (225) 
0.00398768

>  <i_epik_Tot_Q>  (225) 
1

>  <i_epik_Tot_abs_Q>  (225) 
1

>  <s_lp_Force_Field>  (225) 
OPLS3e

>  <r_lp_Energy>  (225) 
72.1289

>  <b_lp_Chiralities_Consistent>  (225) 
1

>  <s_lp_Variant>  (225) 
53:0-1

>  <s_i_glide_gridfile>  (225) 
pfpi4k_grid

>  <i_i_glide_lignum>  (225) 
2

>  <i_i_glide_rotatable_bonds>  (225) 
7

>  <r_i_docking_score>  (225) 
-3.22846

>  <r_i_glide_ligand_efficiency>  (225) 
-0.129138

>  <r_i_glide_ligand_efficiency_sa>  (225) 
-0.377603

>  <r_i_glide_ligand_efficiency_ln>  (225) 
-0.765242

>  <r_i_glide_gscore>  (225) 
-3.22846

>  <r_i_glide_lipo>  (225) 
-0.00735656

>  <r_i_glide_hbond>  (225) 
-0.597754

>  <r_i_glide_metal>  (225) 
-0

>  <r_i_glide_rewards>  (225) 
-0.978273

>  <r_i_glide_evdw>  (225) 
-12.2166

>  <r_i_glide_ecoul>  (225) 
-9.68102

>  <r_i_glide_erotb>  (225) 
0.451589

>  <r_i_glide_esite>  (225) 
-0.0336851

>  <r_i_glide_emodel>  (225) 
-27.0403

>  <r_i_glide_energy>  (225) 
-21.8976

>  <r_i_glide_einternal>  (225) 
1.98352

>  <r_i_glide_intrahb_reward>  (225) 
-0

>  <i_i_glide_confnum>  (225) 
2

>  <i_i_glide_posenum>  (225) 
2

>  <r_i_glide_eff_state_penalty>  (225) 
0

>  <ligand_id>  (225) 
53

>  <original_smiles>  (225) 
COC1(OC)C2CN(CC(O)CO)CC2C2CCC1(C)C(C)C2(C)C

>  <smiles>  (225) 
[H]OC([H])([H])C([H])(O[H])C([H])([H])[N+]1([H])C([H])([H])C2([H])C(OC([H])([H])[H])(OC([H])([H])[H])C3(C([H])([H])[H])C([H])([H])C([H])([H])C([H])(C2([H])C1([H])[H])C(C([H])([H])[H])(C([H])([H])[H])C3([H])C([H])([H])[H]

$$$$
54:0:0
     RDKit          3D

 46 51  0  0  1  0  0  0  0  0999 V2000
    4.6349   -8.2486    0.7657 N   0  0  0  0  0  0  0  0  0  0  0  0
    4.4508   -7.2320    1.2833 C   0  0  0  0  0  0  0  0  0  0  0  0
    4.2138   -5.9443    1.9539 C   0  0  0  0  0  0  0  0  0  0  0  0
    3.6593   -6.2640    3.2796 C   0  0  0  0  0  0  0  0  0  0  0  0
    3.2327   -6.5137    4.3229 N   0  0  0  0  0  0  0  0  0  0  0  0
    5.4185   -4.9715    2.0593 C   0  0  1  0  0  0  0  0  0  0  0  0
    6.3897   -4.8972    0.8336 C   0  0  1  0  0  0  0  0  0  0  0  0
    5.4048   -4.8827   -0.3330 C   0  0  0  0  0  0  0  0  0  0  0  0
    4.2589   -4.0906    0.2613 C   0  0  2  0  0  0  0  0  0  0  0  0
    3.8161   -3.1534   -0.8931 C   0  0  0  0  0  0  0  0  0  0  0  0
    2.7556   -3.4507   -1.7679 C   0  0  0  0  0  0  0  0  0  0  0  0
    2.6296   -2.4932   -2.8166 C   0  0  0  0  0  0  0  0  0  0  0  0
    3.4694   -1.3584   -2.9439 C   0  0  0  0  0  0  0  0  0  0  0  0
    4.5489   -1.0690   -2.0648 C   0  0  0  0  0  0  0  0  0  0  0  0
    4.6735   -2.0378   -1.0383 C   0  0  0  0  0  0  0  0  0  0  0  0
    5.7247   -1.7962   -0.1070 N   0  0  0  0  0  0  0  0  0  0  0  0
    5.4228   -0.7159    0.8606 C   0  0  0  0  0  0  0  0  0  0  0  0
    3.9047   -0.4076    1.1367 C   0  0  0  0  0  0  0  0  0  0  0  0
    3.2337   -1.2158    2.1604 N   0  0  0  0  0  0  0  0  0  0  0  0
    2.4298   -2.3359    1.6710 C   0  0  0  0  0  0  0  0  0  0  0  0
    3.1625   -3.6480    2.0150 C   0  0  2  0  0  0  0  0  0  0  0  0
    4.6301   -3.7440    1.7361 C   0  0  1  0  0  0  0  0  0  0  0  0
    3.3241   -4.9374    1.1737 C   0  0  2  0  0  0  0  0  0  0  0  0
    2.0785   -5.4648    0.6028 C   0  0  0  0  0  0  0  0  0  0  0  0
    1.0883   -5.8569    0.1563 N   0  0  0  0  0  0  0  0  0  0  0  0
    6.9882   -2.5909   -0.0739 C   0  0  0  0  0  0  0  0  0  0  0  0
    7.1235   -3.6348    0.9038 O   0  0  0  0  0  0  0  0  0  0  0  0
    5.8953   -4.9375    3.0404 H   0  0  0  0  0  0  0  0  0  0  0  0
    7.0840   -5.7348    0.8038 H   0  0  0  0  0  0  0  0  0  0  0  0
    5.8020   -4.4966   -1.2673 H   0  0  0  0  0  0  0  0  0  0  0  0
    5.0927   -5.8846   -0.6074 H   0  0  0  0  0  0  0  0  0  0  0  0
    2.1161   -4.3141   -1.6911 H   0  0  0  0  0  0  0  0  0  0  0  0
    1.8285   -2.6438   -3.5263 H   0  0  0  0  0  0  0  0  0  0  0  0
    3.2557   -0.6675   -3.7522 H   0  0  0  0  0  0  0  0  0  0  0  0
    5.1723   -0.1848   -2.1759 H   0  0  0  0  0  0  0  0  0  0  0  0
    5.9574   -0.8909    1.7977 H   0  0  0  0  0  0  0  0  0  0  0  0
    5.8759    0.1990    0.4726 H   0  0  0  0  0  0  0  0  0  0  0  0
    3.8998    0.5855    1.5790 H   0  0  0  0  0  0  0  0  0  0  0  0
    3.2965   -0.2906    0.2391 H   0  0  0  0  0  0  0  0  0  0  0  0
    3.8392   -1.4696    2.9293 H   0  0  0  0  0  0  0  0  0  0  0  0
    1.4833   -2.3225    2.2065 H   0  0  0  0  0  0  0  0  0  0  0  0
    2.1560   -2.2307    0.6271 H   0  0  0  0  0  0  0  0  0  0  0  0
    2.9963   -3.8937    3.0516 H   0  0  0  0  0  0  0  0  0  0  0  0
    5.1421   -2.8517    2.0016 H   0  0  0  0  0  0  0  0  0  0  0  0
    7.1823   -2.9679   -1.0796 H   0  0  0  0  0  0  0  0  0  0  0  0
    7.7888   -1.8794    0.1295 H   0  0  0  0  0  0  0  0  0  0  0  0
  1  2  3  0
  2  3  1  0
  3 23  1  0
  3  4  1  0
  3  6  1  0
  4  5  3  0
  6 22  1  0
  6  7  1  0
  6 28  1  1
  7 27  1  0
  7  8  1  0
  7 29  1  6
  9  8  1  6
  8 30  1  0
  8 31  1  0
  9 22  1  0
  9 23  1  0
  9 10  1  0
 10 15  2  0
 10 11  1  0
 11 12  2  0
 11 32  1  0
 12 13  1  0
 12 33  1  0
 13 14  2  0
 13 34  1  0
 14 15  1  0
 14 35  1  0
 15 16  1  0
 16 17  1  0
 16 26  1  0
 17 18  1  0
 17 36  1  0
 17 37  1  0
 18 19  1  0
 18 38  1  0
 18 39  1  0
 19 20  1  0
 19 40  1  0
 20 21  1  0
 20 41  1  0
 20 42  1  0
 21 22  1  0
 21 23  1  0
 21 43  1  1
 22 44  1  6
 23 24  1  6
 24 25  3  0
 26 27  1  0
 26 45  1  0
 26 46  1  0
M  END
>  <i_m_ct_stereo_status>  (226) 
1

>  <s_m_source_file>  (226) 
/var/tmp/pbs.5076255.sched01/tmpo609hgx5/90rinj4u0e.sdf

>  <i_m_source_file_index>  (226) 
3

>  <i_lp_mmshare_version>  (226) 
48012

>  <i_f3d_flags>  (226) 
0

>  <s_epik_input>  (226) 
TiNDW0NAQF0xMkMoQyNOKShDI04pW0NAQEhdKFtDQEBIXShbQ0gyXTMpT1tDSDJdNClbQ0BASF01W0NASF0yW0NIMl1bTkhdW0NIMl1bQ0gyXU40YyhjNltDQEBdMTM1KVtjSF1bY0hdW2NIXVtjSF02

>  <s_epik_cmdline>  (226) 
J2VwaWtfcHl0aG9uJywgJy1waHQnLCAnMi4wJywgJy1waCcsICc3LjAnLCAnLXRuJywgJzgnLCAnLW1hJywgJzIwMCcsICctaW1hZScsICc8aW5maWxlLm1hZT4nLCAnLW9tYWUnLCAnPG91dGZpbGUubWFlPic=

>  <r_epik_Ionization_Penalty>  (226) 
0.290941

>  <r_epik_Ionization_Penalty_Charging>  (226) 
0

>  <r_epik_Ionization_Penalty_Neutral>  (226) 
0.290941

>  <r_epik_State_Penalty>  (226) 
0.283768

>  <r_epik_Charging_Adjusted_Penalty>  (226) 
0.283768

>  <i_epik_Tot_Q>  (226) 
0

>  <i_epik_Tot_abs_Q>  (226) 
0

>  <s_epik_Chemistry_Notes>  (226) 
This compound contains an acetal/aminal-like group ( X-CH(R)-Y where X, Y are N, S, or O) that may be acid/base labile, releasing an aldehyde.

>  <s_lp_Force_Field>  (226) 
OPLS3e

>  <r_lp_Energy>  (226) 
127.324

>  <b_lp_Chiralities_Consistent>  (226) 
1

>  <s_lp_Variant>  (226) 
54:0-1

>  <s_i_glide_gridfile>  (226) 
pfpi4k_grid

>  <i_i_glide_lignum>  (226) 
3

>  <i_i_glide_rotatable_bonds>  (226) 
3

>  <r_i_docking_score>  (226) 
-4.34448

>  <r_i_glide_ligand_efficiency>  (226) 
-0.160907

>  <r_i_glide_ligand_efficiency_sa>  (226) 
-0.48272

>  <r_i_glide_ligand_efficiency_ln>  (226) 
-1.01132

>  <r_i_glide_gscore>  (226) 
-4.34448

>  <r_i_glide_lipo>  (226) 
-0.513435

>  <r_i_glide_hbond>  (226) 
-0.306391

>  <r_i_glide_metal>  (226) 
-0

>  <r_i_glide_rewards>  (226) 
-1.14014

>  <r_i_glide_evdw>  (226) 
-28.2389

>  <r_i_glide_ecoul>  (226) 
-6.00819

>  <r_i_glide_erotb>  (226) 
0

>  <r_i_glide_esite>  (226) 
-0.071334

>  <r_i_glide_emodel>  (226) 
-42.4093

>  <r_i_glide_energy>  (226) 
-34.2471

>  <r_i_glide_einternal>  (226) 
0.64944

>  <r_i_glide_intrahb_reward>  (226) 
-0

>  <i_i_glide_confnum>  (226) 
1

>  <i_i_glide_posenum>  (226) 
9

>  <r_i_glide_eff_state_penalty>  (226) 
0

>  <ligand_id>  (226) 
54

>  <original_smiles>  (226) 
N#CC1(C#N)C2C3CC45c6ccccc6N(CCNCC(C24)C15C#N)CO3

>  <smiles>  (226) 
[H]c1c([H])c([H])c2c(c1[H])N1C([H])([H])OC3([H])C([H])([H])C24C2([H])C3([H])C(C#N)(C#N)C4(C#N)C2([H])C([H])([H])N([H])C([H])([H])C1([H])[H]

$$$$
54:0:1
     RDKit          3D

 46 51  0  0  1  0  0  0  0  0999 V2000
    4.8293   -8.4039    1.7461 N   0  0  0  0  0  0  0  0  0  0  0  0
    4.7744   -7.3223    2.1488 C   0  0  0  0  0  0  0  0  0  0  0  0
    4.7005   -5.9417    2.6641 C   0  0  0  0  0  0  0  0  0  0  0  0
    4.4081   -6.0454    4.1066 C   0  0  0  0  0  0  0  0  0  0  0  0
    4.1827   -6.1253    5.2387 N   0  0  0  0  0  0  0  0  0  0  0  0
    5.9438   -5.0466    2.4008 C   0  0  1  0  0  0  0  0  0  0  0  0
    6.6785   -5.2073    1.0291 C   0  0  1  0  0  0  0  0  0  0  0  0
    5.4893   -5.2956    0.0677 C   0  0  0  0  0  0  0  0  0  0  0  0
    4.4930   -4.3538    0.7305 C   0  0  2  0  0  0  0  0  0  0  0  0
    3.9048   -3.5271   -0.4284 C   0  0  0  0  0  0  0  0  0  0  0  0
    2.6858   -3.8472   -1.0385 C   0  0  0  0  0  0  0  0  0  0  0  0
    2.3827   -3.0560   -2.1684 C   0  0  0  0  0  0  0  0  0  0  0  0
    3.2268   -2.0141   -2.6241 C   0  0  0  0  0  0  0  0  0  0  0  0
    4.4599   -1.6993   -2.0053 C   0  0  0  0  0  0  0  0  0  0  0  0
    4.7649   -2.5105   -0.8980 C   0  0  0  0  0  0  0  0  0  0  0  0
    5.9793   -2.2157   -0.2177 N   0  0  0  0  0  0  0  0  0  0  0  0
    5.8991   -1.0041    0.6250 C   0  0  0  0  0  0  0  0  0  0  0  0
    4.4774   -0.5595    1.1258 C   0  0  0  0  0  0  0  0  0  0  0  0
    3.9694   -1.1740    2.3604 N   0  0  0  0  0  0  0  0  0  0  0  0
    3.0548   -2.3073    2.2002 C   0  0  0  0  0  0  0  0  0  0  0  0
    3.7838   -3.6045    2.5971 C   0  0  2  0  0  0  0  0  0  0  0  0
    5.1621   -3.8230    2.0409 C   0  0  1  0  0  0  0  0  0  0  0  0
    3.7145   -4.9992    1.9236 C   0  0  2  0  0  0  0  0  0  0  0  0
    2.3596   -5.5147    1.6900 C   0  0  0  0  0  0  0  0  0  0  0  0
    1.2877   -5.9074    1.5062 N   0  0  0  0  0  0  0  0  0  0  0  0
    7.1804   -3.0822   -0.3028 C   0  0  0  0  0  0  0  0  0  0  0  0
    7.4600   -3.9952    0.7708 O   0  0  0  0  0  0  0  0  0  0  0  0
    6.6054   -4.9376    3.2674 H   0  0  0  0  0  0  0  0  0  0  0  0
    7.3187   -6.0867    0.9923 H   0  0  0  0  0  0  0  0  0  0  0  0
    5.7318   -5.0528   -0.9576 H   0  0  0  0  0  0  0  0  0  0  0  0
    5.0939   -6.3024   -0.0048 H   0  0  0  0  0  0  0  0  0  0  0  0
    2.0607   -4.6768   -0.7498 H   0  0  0  0  0  0  0  0  0  0  0  0
    1.4688   -3.2482   -2.7062 H   0  0  0  0  0  0  0  0  0  0  0  0
    2.9024   -1.4356   -3.4777 H   0  0  0  0  0  0  0  0  0  0  0  0
    5.0886   -0.8881   -2.3539 H   0  0  0  0  0  0  0  0  0  0  0  0
    6.5966   -1.0887    1.4603 H   0  0  0  0  0  0  0  0  0  0  0  0
    6.3002   -0.1843    0.0295 H   0  0  0  0  0  0  0  0  0  0  0  0
    4.6013    0.4827    1.4077 H   0  0  0  0  0  0  0  0  0  0  0  0
    3.7199   -0.5253    0.3444 H   0  0  0  0  0  0  0  0  0  0  0  0
    4.7034   -1.3636    3.0249 H   0  0  0  0  0  0  0  0  0  0  0  0
    2.2300   -2.1492    2.8910 H   0  0  0  0  0  0  0  0  0  0  0  0
    2.5778   -2.3147    1.2200 H   0  0  0  0  0  0  0  0  0  0  0  0
    3.8104   -3.6792    3.6837 H   0  0  0  0  0  0  0  0  0  0  0  0
    5.7725   -2.9406    2.0958 H   0  0  0  0  0  0  0  0  0  0  0  0
    7.1678   -3.6058   -1.2584 H   0  0  0  0  0  0  0  0  0  0  0  0
    8.0381   -2.4145   -0.3572 H   0  0  0  0  0  0  0  0  0  0  0  0
  1  2  3  0
  2  3  1  0
  3 23  1  0
  3  4  1  0
  3  6  1  0
  4  5  3  0
  6 22  1  0
  6  7  1  0
  6 28  1  1
  7 27  1  0
  7  8  1  0
  7 29  1  1
  9  8  1  6
  8 30  1  0
  8 31  1  0
  9 22  1  0
  9 23  1  0
  9 10  1  0
 10 15  2  0
 10 11  1  0
 11 12  2  0
 11 32  1  0
 12 13  1  0
 12 33  1  0
 13 14  2  0
 13 34  1  0
 14 15  1  0
 14 35  1  0
 15 16  1  0
 16 17  1  0
 16 26  1  0
 17 18  1  0
 17 36  1  0
 17 37  1  0
 18 19  1  0
 18 38  1  0
 18 39  1  0
 19 20  1  0
 19 40  1  0
 20 21  1  0
 20 41  1  0
 20 42  1  0
 21 22  1  0
 21 23  1  0
 21 43  1  1
 22 44  1  6
 23 24  1  6
 24 25  3  0
 26 27  1  0
 26 45  1  0
 26 46  1  0
M  END
>  <i_m_ct_stereo_status>  (227) 
1

>  <s_m_source_file>  (227) 
/var/tmp/pbs.5076255.sched01/tmpo609hgx5/90rinj4u0e.sdf

>  <i_m_source_file_index>  (227) 
3

>  <i_lp_mmshare_version>  (227) 
48012

>  <i_f3d_flags>  (227) 
0

>  <s_epik_input>  (227) 
TiNDW0NAQF0xMkMoQyNOKShDI04pW0NAQEhdKFtDQEBIXShbQ0gyXTMpT1tDSDJdNClbQ0BASF01W0NASF0yW0NIMl1bTkhdW0NIMl1bQ0gyXU40YyhjNltDQEBdMTM1KVtjSF1bY0hdW2NIXVtjSF02

>  <s_epik_cmdline>  (227) 
J2VwaWtfcHl0aG9uJywgJy1waHQnLCAnMi4wJywgJy1waCcsICc3LjAnLCAnLXRuJywgJzgnLCAnLW1hJywgJzIwMCcsICctaW1hZScsICc8aW5maWxlLm1hZT4nLCAnLW9tYWUnLCAnPG91dGZpbGUubWFlPic=

>  <r_epik_Ionization_Penalty>  (227) 
0.290941

>  <r_epik_Ionization_Penalty_Charging>  (227) 
0

>  <r_epik_Ionization_Penalty_Neutral>  (227) 
0.290941

>  <r_epik_State_Penalty>  (227) 
0.283768

>  <r_epik_Charging_Adjusted_Penalty>  (227) 
0.283768

>  <i_epik_Tot_Q>  (227) 
0

>  <i_epik_Tot_abs_Q>  (227) 
0

>  <s_epik_Chemistry_Notes>  (227) 
This compound contains an acetal/aminal-like group ( X-CH(R)-Y where X, Y are N, S, or O) that may be acid/base labile, releasing an aldehyde.

>  <s_lp_Force_Field>  (227) 
OPLS3e

>  <r_lp_Energy>  (227) 
127.324

>  <b_lp_Chiralities_Consistent>  (227) 
1

>  <s_lp_Variant>  (227) 
54:0-1

>  <s_i_glide_gridfile>  (227) 
pfpi4k_grid

>  <i_i_glide_lignum>  (227) 
3

>  <i_i_glide_rotatable_bonds>  (227) 
3

>  <r_i_docking_score>  (227) 
-3.63335

>  <r_i_glide_ligand_efficiency>  (227) 
-0.134569

>  <r_i_glide_ligand_efficiency_sa>  (227) 
-0.403706

>  <r_i_glide_ligand_efficiency_ln>  (227) 
-0.845785

>  <r_i_glide_gscore>  (227) 
-3.63335

>  <r_i_glide_lipo>  (227) 
-0.567018

>  <r_i_glide_hbond>  (227) 
-0.140295

>  <r_i_glide_metal>  (227) 
-0

>  <r_i_glide_rewards>  (227) 
-1.13975

>  <r_i_glide_evdw>  (227) 
-26.4681

>  <r_i_glide_ecoul>  (227) 
-2.86341

>  <r_i_glide_erotb>  (227) 
0

>  <r_i_glide_esite>  (227) 
-0.033377

>  <r_i_glide_emodel>  (227) 
-36.1476

>  <r_i_glide_energy>  (227) 
-29.3315

>  <r_i_glide_einternal>  (227) 
0.613041

>  <r_i_glide_intrahb_reward>  (227) 
-0

>  <i_i_glide_confnum>  (227) 
2

>  <i_i_glide_posenum>  (227) 
7

>  <r_i_glide_eff_state_penalty>  (227) 
0

>  <ligand_id>  (227) 
54

>  <original_smiles>  (227) 
N#CC1(C#N)C2C3CC45c6ccccc6N(CCNCC(C24)C15C#N)CO3

>  <smiles>  (227) 
[H]c1c([H])c([H])c2c(c1[H])N1C([H])([H])OC3([H])C([H])([H])C24C2([H])C3([H])C(C#N)(C#N)C4(C#N)C2([H])C([H])([H])N([H])C([H])([H])C1([H])[H]

$$$$
54:0:2
     RDKit          3D

 46 51  0  0  1  0  0  0  0  0999 V2000
    1.1486   -2.7783    3.9329 N   0  0  0  0  0  0  0  0  0  0  0  0
    2.2549   -2.5350    3.6828 C   0  0  0  0  0  0  0  0  0  0  0  0
    3.6626   -2.2201    3.3734 C   0  0  0  0  0  0  0  0  0  0  0  0
    4.1834   -1.4647    4.5258 C   0  0  0  0  0  0  0  0  0  0  0  0
    4.5995   -0.8842    5.4347 N   0  0  0  0  0  0  0  0  0  0  0  0
    4.5736   -3.4298    3.0292 C   0  0  1  0  0  0  0  0  0  0  0  0
    3.9506   -4.5769    2.1605 C   0  0  1  0  0  0  0  0  0  0  0  0
    3.1696   -3.7993    1.0998 C   0  0  0  0  0  0  0  0  0  0  0  0
    4.0807   -2.6005    0.9150 C   0  0  2  0  0  0  0  0  0  0  0  0
    4.1322   -2.3568   -0.6121 C   0  0  0  0  0  0  0  0  0  0  0  0
    3.3790   -1.3716   -1.2512 C   0  0  0  0  0  0  0  0  0  0  0  0
    3.4332   -1.4446   -2.6590 C   0  0  0  0  0  0  0  0  0  0  0  0
    4.2752   -2.3657   -3.3576 C   0  0  0  0  0  0  0  0  0  0  0  0
    5.0973   -3.3144   -2.7027 C   0  0  0  0  0  0  0  0  0  0  0  0
    4.9668   -3.2685   -1.2974 C   0  0  0  0  0  0  0  0  0  0  0  0
    5.7870   -4.1600   -0.5534 N   0  0  0  0  0  0  0  0  0  0  0  0
    7.2104   -3.7396   -0.4610 C   0  0  0  0  0  0  0  0  0  0  0  0
    7.5037   -2.2534   -0.6930 C   0  0  0  0  0  0  0  0  0  0  0  0
    7.4092   -1.3867    0.4745 N   0  0  0  0  0  0  0  0  0  0  0  0
    6.1473   -0.6730    0.6302 C   0  0  0  0  0  0  0  0  0  0  0  0
    5.4161   -1.2529    1.8452 C   0  0  2  0  0  0  0  0  0  0  0  0
    5.2729   -2.7468    1.9151 C   0  0  1  0  0  0  0  0  0  0  0  0
    3.9059   -1.5022    2.0276 C   0  0  2  0  0  0  0  0  0  0  0  0
    3.0609   -0.3215    1.7876 C   0  0  0  0  0  0  0  0  0  0  0  0
    2.4136    0.6141    1.5928 N   0  0  0  0  0  0  0  0  0  0  0  0
    5.2550   -5.3688    0.1290 C   0  0  0  0  0  0  0  0  0  0  0  0
    5.0429   -5.3240    1.5453 O   0  0  0  0  0  0  0  0  0  0  0  0
    5.2381   -3.7471    3.8337 H   0  0  0  0  0  0  0  0  0  0  0  0
    3.3252   -5.2461    2.7522 H   0  0  0  0  0  0  0  0  0  0  0  0
    2.9295   -4.3604    0.2032 H   0  0  0  0  0  0  0  0  0  0  0  0
    2.2013   -3.4960    1.4722 H   0  0  0  0  0  0  0  0  0  0  0  0
    2.6247   -0.7642   -0.7544 H   0  0  0  0  0  0  0  0  0  0  0  0
    2.7727   -0.7961   -3.2187 H   0  0  0  0  0  0  0  0  0  0  0  0
    4.2473   -2.3119   -4.4404 H   0  0  0  0  0  0  0  0  0  0  0  0
    5.7531   -3.9886   -3.2471 H   0  0  0  0  0  0  0  0  0  0  0  0
    7.6827   -4.1242    0.4454 H   0  0  0  0  0  0  0  0  0  0  0  0
    7.7772   -4.2229   -1.2570 H   0  0  0  0  0  0  0  0  0  0  0  0
    8.5557   -2.2090   -0.9687 H   0  0  0  0  0  0  0  0  0  0  0  0
    6.9755   -1.8503   -1.5563 H   0  0  0  0  0  0  0  0  0  0  0  0
    7.7542   -1.8244    1.3154 H   0  0  0  0  0  0  0  0  0  0  0  0
    6.2895    0.3659    0.8272 H   0  0  0  0  0  0  0  0  0  0  0  0
    5.5758   -0.5672   -0.2721 H   0  0  0  0  0  0  0  0  0  0  0  0
    5.8665   -0.9090    2.7753 H   0  0  0  0  0  0  0  0  0  0  0  0
    6.1895   -3.2254    1.6658 H   0  0  0  0  0  0  0  0  0  0  0  0
    4.3681   -5.6944   -0.4152 H   0  0  0  0  0  0  0  0  0  0  0  0
    5.9998   -6.1363   -0.0473 H   0  0  0  0  0  0  0  0  0  0  0  0
  1  2  3  0
  2  3  1  0
  3 23  1  0
  3  4  1  0
  3  6  1  0
  4  5  3  0
  6 22  1  0
  6  7  1  0
  6 28  1  1
  7 27  1  0
  7  8  1  0
  7 29  1  1
  9  8  1  6
  8 30  1  0
  8 31  1  0
  9 22  1  0
  9 23  1  0
  9 10  1  0
 10 15  2  0
 10 11  1  0
 11 12  2  0
 11 32  1  0
 12 13  1  0
 12 33  1  0
 13 14  2  0
 13 34  1  0
 14 15  1  0
 14 35  1  0
 15 16  1  0
 16 17  1  0
 16 26  1  0
 17 18  1  0
 17 36  1  0
 17 37  1  0
 18 19  1  0
 18 38  1  0
 18 39  1  0
 19 20  1  0
 19 40  1  0
 20 21  1  0
 20 41  1  0
 20 42  1  0
 21 22  1  0
 21 23  1  0
 21 43  1  1
 22 44  1  6
 23 24  1  6
 24 25  3  0
 26 27  1  0
 26 45  1  0
 26 46  1  0
M  END
>  <i_m_ct_stereo_status>  (228) 
1

>  <s_m_source_file>  (228) 
/var/tmp/pbs.5076255.sched01/tmpo609hgx5/90rinj4u0e.sdf

>  <i_m_source_file_index>  (228) 
3

>  <i_lp_mmshare_version>  (228) 
48012

>  <i_f3d_flags>  (228) 
0

>  <s_epik_input>  (228) 
TiNDW0NAQF0xMkMoQyNOKShDI04pW0NAQEhdKFtDQEBIXShbQ0gyXTMpT1tDSDJdNClbQ0BASF01W0NASF0yW0NIMl1bTkhdW0NIMl1bQ0gyXU40YyhjNltDQEBdMTM1KVtjSF1bY0hdW2NIXVtjSF02

>  <s_epik_cmdline>  (228) 
J2VwaWtfcHl0aG9uJywgJy1waHQnLCAnMi4wJywgJy1waCcsICc3LjAnLCAnLXRuJywgJzgnLCAnLW1hJywgJzIwMCcsICctaW1hZScsICc8aW5maWxlLm1hZT4nLCAnLW9tYWUnLCAnPG91dGZpbGUubWFlPic=

>  <r_epik_Ionization_Penalty>  (228) 
0.290941

>  <r_epik_Ionization_Penalty_Charging>  (228) 
0

>  <r_epik_Ionization_Penalty_Neutral>  (228) 
0.290941

>  <r_epik_State_Penalty>  (228) 
0.283768

>  <r_epik_Charging_Adjusted_Penalty>  (228) 
0.283768

>  <i_epik_Tot_Q>  (228) 
0

>  <i_epik_Tot_abs_Q>  (228) 
0

>  <s_epik_Chemistry_Notes>  (228) 
This compound contains an acetal/aminal-like group ( X-CH(R)-Y where X, Y are N, S, or O) that may be acid/base labile, releasing an aldehyde.

>  <s_lp_Force_Field>  (228) 
OPLS3e

>  <r_lp_Energy>  (228) 
127.324

>  <b_lp_Chiralities_Consistent>  (228) 
1

>  <s_lp_Variant>  (228) 
54:0-1

>  <s_i_glide_gridfile>  (228) 
pfpi4k_grid

>  <i_i_glide_lignum>  (228) 
3

>  <i_i_glide_rotatable_bonds>  (228) 
3

>  <r_i_docking_score>  (228) 
-2.90088

>  <r_i_glide_ligand_efficiency>  (228) 
-0.10744

>  <r_i_glide_ligand_efficiency_sa>  (228) 
-0.32232

>  <r_i_glide_ligand_efficiency_ln>  (228) 
-0.675278

>  <r_i_glide_gscore>  (228) 
-2.90088

>  <r_i_glide_lipo>  (228) 
-0.829005

>  <r_i_glide_hbond>  (228) 
-0.0261336

>  <r_i_glide_metal>  (228) 
-0

>  <r_i_glide_rewards>  (228) 
-1.10862

>  <r_i_glide_evdw>  (228) 
-21.0803

>  <r_i_glide_ecoul>  (228) 
0.94729

>  <r_i_glide_erotb>  (228) 
0

>  <r_i_glide_esite>  (228) 
-0.0252032

>  <r_i_glide_emodel>  (228) 
-24.4889

>  <r_i_glide_energy>  (228) 
-20.133

>  <r_i_glide_einternal>  (228) 
0.649691

>  <r_i_glide_intrahb_reward>  (228) 
-0

>  <i_i_glide_confnum>  (228) 
1

>  <i_i_glide_posenum>  (228) 
27

>  <r_i_glide_eff_state_penalty>  (228) 
0

>  <ligand_id>  (228) 
54

>  <original_smiles>  (228) 
N#CC1(C#N)C2C3CC45c6ccccc6N(CCNCC(C24)C15C#N)CO3

>  <smiles>  (228) 
[H]c1c([H])c([H])c2c(c1[H])N1C([H])([H])OC3([H])C([H])([H])C24C2([H])C3([H])C(C#N)(C#N)C4(C#N)C2([H])C([H])([H])N([H])C([H])([H])C1([H])[H]

$$$$
54:1:0
     RDKit          3D

 47 52  0  0  1  0  0  0  0  0999 V2000
    4.6596   -8.2098    0.8054 N   0  0  0  0  0  0  0  0  0  0  0  0
    4.4517   -7.1909    1.3076 C   0  0  0  0  0  0  0  0  0  0  0  0
    4.1805   -5.8943    1.9515 C   0  0  0  0  0  0  0  0  0  0  0  0
    3.6178   -6.2058    3.2783 C   0  0  0  0  0  0  0  0  0  0  0  0
    3.1794   -6.4477    4.3216 N   0  0  0  0  0  0  0  0  0  0  0  0
    5.3777   -4.9028    2.0625 C   0  0  1  0  0  0  0  0  0  0  0  0
    6.3737   -4.8460    0.8584 C   0  0  1  0  0  0  0  0  0  0  0  0
    5.4035   -4.8620   -0.3269 C   0  0  0  0  0  0  0  0  0  0  0  0
    4.2316   -4.0702    0.2289 C   0  0  2  0  0  0  0  0  0  0  0  0
    3.8252   -3.1264   -0.9249 C   0  0  0  0  0  0  0  0  0  0  0  0
    2.7746   -3.4103   -1.8060 C   0  0  0  0  0  0  0  0  0  0  0  0
    2.6527   -2.5026   -2.8827 C   0  0  0  0  0  0  0  0  0  0  0  0
    3.5043   -1.3896   -3.0390 C   0  0  0  0  0  0  0  0  0  0  0  0
    4.5715   -1.1048   -2.1466 C   0  0  0  0  0  0  0  0  0  0  0  0
    4.6982   -2.0297   -1.0929 C   0  0  0  0  0  0  0  0  0  0  0  0
    5.7228   -1.7675   -0.1435 N   0  0  0  0  0  0  0  0  0  0  0  0
    5.4005   -0.6732    0.8003 C   0  0  0  0  0  0  0  0  0  0  0  0
    3.8786   -0.3311    1.0304 C   0  0  0  0  0  0  0  0  0  0  0  0
    3.1601   -1.1222    2.0726 N   0  0  0  0  0  0  0  0  0  0  0  0
    2.3811   -2.3146    1.6311 C   0  0  0  0  0  0  0  0  0  0  0  0
    3.1124   -3.6213    1.9915 C   0  0  2  0  0  0  0  0  0  0  0  0
    4.5871   -3.6864    1.7022 C   0  0  1  0  0  0  0  0  0  0  0  0
    3.2887   -4.9154    1.1442 C   0  0  2  0  0  0  0  0  0  0  0  0
    2.0618   -5.4654    0.5600 C   0  0  0  0  0  0  0  0  0  0  0  0
    1.0774   -5.8773    0.1066 N   0  0  0  0  0  0  0  0  0  0  0  0
    6.9785   -2.5601   -0.0781 C   0  0  0  0  0  0  0  0  0  0  0  0
    7.0959   -3.5771    0.9197 O   0  0  0  0  0  0  0  0  0  0  0  0
    5.8408   -4.8629    3.0541 H   0  0  0  0  0  0  0  0  0  0  0  0
    7.0696   -5.6821    0.8490 H   0  0  0  0  0  0  0  0  0  0  0  0
    5.8073   -4.4831   -1.2572 H   0  0  0  0  0  0  0  0  0  0  0  0
    5.1029   -5.8684   -0.5955 H   0  0  0  0  0  0  0  0  0  0  0  0
    2.1095   -4.2465   -1.7226 H   0  0  0  0  0  0  0  0  0  0  0  0
    1.8617   -2.6691   -3.5976 H   0  0  0  0  0  0  0  0  0  0  0  0
    3.3208   -0.7238   -3.8661 H   0  0  0  0  0  0  0  0  0  0  0  0
    5.2053   -0.2418   -2.2745 H   0  0  0  0  0  0  0  0  0  0  0  0
    5.9035   -0.8541    1.7539 H   0  0  0  0  0  0  0  0  0  0  0  0
    5.8855    0.2216    0.4162 H   0  0  0  0  0  0  0  0  0  0  0  0
    3.8683    0.6823    1.4253 H   0  0  0  0  0  0  0  0  0  0  0  0
    3.2905   -0.2589    0.1186 H   0  0  0  0  0  0  0  0  0  0  0  0
    3.7960   -1.3763    2.8168 H   0  0  0  0  0  0  0  0  0  0  0  0
    1.4474   -2.2841    2.1877 H   0  0  0  0  0  0  0  0  0  0  0  0
    2.0664   -2.2375    0.5941 H   0  0  0  0  0  0  0  0  0  0  0  0
    2.9289   -3.8492    3.0412 H   0  0  0  0  0  0  0  0  0  0  0  0
    5.0999   -2.7814    1.9820 H   0  0  0  0  0  0  0  0  0  0  0  0
    7.1929   -2.9629   -1.0654 H   0  0  0  0  0  0  0  0  0  0  0  0
    7.7749   -1.8492    0.1223 H   0  0  0  0  0  0  0  0  0  0  0  0
    2.4799   -0.4813    2.4602 H   0  0  0  0  0  0  0  0  0  0  0  0
  1  2  3  0
  2  3  1  0
  3 23  1  0
  3  4  1  0
  3  6  1  0
  4  5  3  0
  6 22  1  0
  6  7  1  0
  6 28  1  1
  7 27  1  0
  7  8  1  0
  7 29  1  6
  9  8  1  6
  8 30  1  0
  8 31  1  0
  9 22  1  0
  9 23  1  0
  9 10  1  0
 10 15  2  0
 10 11  1  0
 11 12  2  0
 11 32  1  0
 12 13  1  0
 12 33  1  0
 13 14  2  0
 13 34  1  0
 14 15  1  0
 14 35  1  0
 15 16  1  0
 16 17  1  0
 16 26  1  0
 17 18  1  0
 17 36  1  0
 17 37  1  0
 18 19  1  0
 18 38  1  0
 18 39  1  0
 19 20  1  0
 19 40  1  0
 19 47  1  0
 20 21  1  0
 20 41  1  0
 20 42  1  0
 21 22  1  0
 21 23  1  0
 21 43  1  1
 22 44  1  6
 23 24  1  6
 24 25  3  0
 26 27  1  0
 26 45  1  0
 26 46  1  0
M  CHG  1  19   1
M  END
>  <i_m_ct_stereo_status>  (229) 
1

>  <s_m_source_file>  (229) 
/var/tmp/pbs.5076255.sched01/tmpo609hgx5/90rinj4u0e.sdf

>  <i_m_source_file_index>  (229) 
4

>  <i_lp_mmshare_version>  (229) 
48012

>  <i_f3d_flags>  (229) 
0

>  <s_epik_input>  (229) 
TiNDW0NAQF0xMkMoQyNOKShDI04pW0NAQEhdKFtDQEBIXShbQ0gyXTMpT1tDSDJdNClbQ0BASF01W0NASF0yW0NIMl1bTkhdW0NIMl1bQ0gyXU40YyhjNltDQEBdMTM1KVtjSF1bY0hdW2NIXVtjSF02

>  <s_epik_cmdline>  (229) 
J2VwaWtfcHl0aG9uJywgJy1waHQnLCAnMi4wJywgJy1waCcsICc3LjAnLCAnLXRuJywgJzgnLCAnLW1hJywgJzIwMCcsICctaW1hZScsICc8aW5maWxlLm1hZT4nLCAnLW9tYWUnLCAnPG91dGZpbGUubWFlPic=

>  <r_epik_Ionization_Penalty>  (229) 
0.561229

>  <r_epik_Ionization_Penalty_Charging>  (229) 
0.561229

>  <r_epik_Ionization_Penalty_Neutral>  (229) 
1.46662e-07

>  <r_epik_State_Penalty>  (229) 
0.572403

>  <r_epik_Charging_Adjusted_Penalty>  (229) 
1.13363

>  <i_epik_Tot_Q>  (229) 
1

>  <i_epik_Tot_abs_Q>  (229) 
1

>  <s_epik_Chemistry_Notes>  (229) 
This compound contains an acetal/aminal-like group ( X-CH(R)-Y where X, Y are N, S, or O) that may be acid/base labile, releasing an aldehyde.

>  <s_lp_Force_Field>  (229) 
OPLS3e

>  <r_lp_Energy>  (229) 
127.653

>  <b_lp_Chiralities_Consistent>  (229) 
1

>  <s_lp_Variant>  (229) 
54:0-2

>  <s_i_glide_gridfile>  (229) 
pfpi4k_grid

>  <i_i_glide_lignum>  (229) 
4

>  <i_i_glide_rotatable_bonds>  (229) 
3

>  <r_i_docking_score>  (229) 
-4.81121

>  <r_i_glide_ligand_efficiency>  (229) 
-0.178193

>  <r_i_glide_ligand_efficiency_sa>  (229) 
-0.534579

>  <r_i_glide_ligand_efficiency_ln>  (229) 
-1.11997

>  <r_i_glide_gscore>  (229) 
-4.81121

>  <r_i_glide_lipo>  (229) 
-0.505492

>  <r_i_glide_hbond>  (229) 
-0.348371

>  <r_i_glide_metal>  (229) 
-0

>  <r_i_glide_rewards>  (229) 
-1.12312

>  <r_i_glide_evdw>  (229) 
-28.1938

>  <r_i_glide_ecoul>  (229) 
-8.89458

>  <r_i_glide_erotb>  (229) 
0

>  <r_i_glide_esite>  (229) 
-0.0903466

>  <r_i_glide_emodel>  (229) 
-47.2683

>  <r_i_glide_energy>  (229) 
-37.0884

>  <r_i_glide_einternal>  (229) 
0.688753

>  <r_i_glide_intrahb_reward>  (229) 
-0

>  <i_i_glide_confnum>  (229) 
1

>  <i_i_glide_posenum>  (229) 
39

>  <r_i_glide_eff_state_penalty>  (229) 
0

>  <ligand_id>  (229) 
54

>  <original_smiles>  (229) 
N#CC1(C#N)C2C3CC45c6ccccc6N(CCNCC(C24)C15C#N)CO3

>  <smiles>  (229) 
[H]c1c([H])c([H])c2c(c1[H])N1C([H])([H])OC3([H])C([H])([H])C24C2([H])C3([H])C(C#N)(C#N)C4(C#N)C2([H])C([H])([H])[N+]([H])([H])C([H])([H])C1([H])[H]

$$$$
55:0:0
     RDKit          3D

 24 27  0  0  1  0  0  0  0  0999 V2000
   -1.2040   -8.9949    3.2243 C   0  0  0  0  0  0  0  0  0  0  0  0
   -1.3036   -7.7447    2.5858 C   0  0  0  0  0  0  0  0  0  0  0  0
   -0.2630   -7.0800    2.0246 N   0  0  0  0  0  0  0  0  0  0  0  0
    0.9290   -7.7544    2.1002 C   0  0  0  0  0  0  0  0  0  0  0  0
    1.1561   -9.0123    2.6984 C   0  0  0  0  0  0  0  0  0  0  0  0
    0.0433   -9.6460    3.2844 C   0  0  0  0  0  0  0  0  0  0  0  0
    2.4861   -9.3707    2.5830 N   0  0  0  0  0  0  0  0  0  0  0  0
    3.0991   -8.4170    1.9448 N   0  0  0  0  0  0  0  0  0  0  0  0
    2.2015   -7.4249    1.6548 N   0  0  0  0  0  0  0  0  0  0  0  0
    2.6027   -6.2618    0.9480 C   0  0  0  0  0  0  0  0  0  0  0  0
    1.7966   -5.4629    0.2588 N   0  0  0  0  0  0  0  0  0  0  0  0
    2.5904   -4.4230   -0.2813 O   0  0  0  0  0  0  0  0  0  0  0  0
    3.9082   -4.6186    0.0880 C   0  0  0  0  0  0  0  0  0  0  0  0
    5.0574   -3.8711   -0.1899 C   0  0  0  0  0  0  0  0  0  0  0  0
    6.2625   -4.3481    0.3593 C   0  0  0  0  0  0  0  0  0  0  0  0
    6.2218   -5.5319    1.1325 C   0  0  0  0  0  0  0  0  0  0  0  0
    5.0968   -6.2470    1.3946 N   0  0  0  0  0  0  0  0  0  0  0  0
    3.9465   -5.7878    0.8717 C   0  0  0  0  0  0  0  0  0  0  0  0
   -2.0724   -9.4529    3.6762 H   0  0  0  0  0  0  0  0  0  0  0  0
   -2.2638   -7.2475    2.5417 H   0  0  0  0  0  0  0  0  0  0  0  0
    0.1481  -10.6014    3.7756 H   0  0  0  0  0  0  0  0  0  0  0  0
    5.0093   -2.9761   -0.7884 H   0  0  0  0  0  0  0  0  0  0  0  0
    7.1930   -3.8267    0.1904 H   0  0  0  0  0  0  0  0  0  0  0  0
    7.1336   -5.9225    1.5594 H   0  0  0  0  0  0  0  0  0  0  0  0
  1  6  2  0
  1  2  1  0
  1 19  1  0
  2  3  2  0
  2 20  1  0
  3  4  1  0
  4  9  1  0
  4  5  2  0
  5  6  1  0
  5  7  1  0
  6 21  1  0
  7  8  2  0
  8  9  1  0
  9 10  1  0
 10 18  1  0
 10 11  2  0
 11 12  1  0
 12 13  1  0
 13 18  2  0
 13 14  1  0
 14 15  2  0
 14 22  1  0
 15 16  1  0
 15 23  1  0
 16 17  2  0
 16 24  1  0
 17 18  1  0
M  END
>  <i_m_ct_stereo_status>  (230) 
1

>  <s_m_source_file>  (230) 
/var/tmp/pbs.5076255.sched01/tmpo609hgx5/90rinj4u0e.sdf

>  <i_m_source_file_index>  (230) 
5

>  <i_lp_mmshare_version>  (230) 
48012

>  <i_f3d_flags>  (230) 
0

>  <s_epik_input>  (230) 
bjFbY0hdW2NIXVtjSF1jKGMxMilubm4yLWMobm8zKWMoYzM0KW5bY0hdW2NIXVtjSF00

>  <s_epik_cmdline>  (230) 
J2VwaWtfcHl0aG9uJywgJy1waHQnLCAnMi4wJywgJy1waCcsICc3LjAnLCAnLXRuJywgJzgnLCAnLW1hJywgJzIwMCcsICctaW1hZScsICc8aW5maWxlLm1hZT4nLCAnLW9tYWUnLCAnPG91dGZpbGUubWFlPic=

>  <r_lp_tautomer_probability>  (230) 
1

>  <r_epik_Ionization_Penalty>  (230) 
1.58794e-09

>  <r_epik_Ionization_Penalty_Charging>  (230) 
0

>  <r_epik_Ionization_Penalty_Neutral>  (230) 
1.58794e-09

>  <r_epik_State_Penalty>  (230) 
-0

>  <r_epik_Charging_Adjusted_Penalty>  (230) 
0

>  <i_epik_Tot_Q>  (230) 
0

>  <i_epik_Tot_abs_Q>  (230) 
0

>  <s_lp_Force_Field>  (230) 
OPLS3e

>  <r_lp_Energy>  (230) 
27.0844

>  <b_lp_Chiralities_Consistent>  (230) 
1

>  <s_lp_Variant>  (230) 
55:0-1

>  <s_i_glide_gridfile>  (230) 
pfpi4k_grid

>  <i_i_glide_lignum>  (230) 
5

>  <i_i_glide_rotatable_bonds>  (230) 
1

>  <r_i_docking_score>  (230) 
-3.68035

>  <r_i_glide_ligand_efficiency>  (230) 
-0.204464

>  <r_i_glide_ligand_efficiency_sa>  (230) 
-0.535847

>  <r_i_glide_ligand_efficiency_ln>  (230) 
-0.946015

>  <r_i_glide_gscore>  (230) 
-3.68035

>  <r_i_glide_lipo>  (230) 
-0.304025

>  <r_i_glide_hbond>  (230) 
-0.0635353

>  <r_i_glide_metal>  (230) 
-0

>  <r_i_glide_rewards>  (230) 
-1.78497

>  <r_i_glide_evdw>  (230) 
-23.2747

>  <r_i_glide_ecoul>  (230) 
-2.84484

>  <r_i_glide_erotb>  (230) 
0.304113

>  <r_i_glide_esite>  (230) 
-0.241475

>  <r_i_glide_emodel>  (230) 
-32.4353

>  <r_i_glide_energy>  (230) 
-26.1195

>  <r_i_glide_einternal>  (230) 
0.134592

>  <r_i_glide_intrahb_reward>  (230) 
-0

>  <i_i_glide_confnum>  (230) 
1

>  <i_i_glide_posenum>  (230) 
1

>  <r_i_glide_eff_state_penalty>  (230) 
0

>  <ligand_id>  (230) 
55

>  <original_smiles>  (230) 
c1cnc2c(c1)nnn2-c1noc2cccnc12

>  <smiles>  (230) 
[H]c1nc2c(nnn2-c2noc3c([H])c([H])c([H])nc23)c([H])c1[H]

$$$$
55:0:1
     RDKit          3D

 24 27  0  0  1  0  0  0  0  0999 V2000
    2.6371   -9.9647    2.7189 C   0  0  0  0  0  0  0  0  0  0  0  0
    1.6954   -8.9967    2.3045 C   0  0  0  0  0  0  0  0  0  0  0  0
    2.0178   -7.8306    1.6947 N   0  0  0  0  0  0  0  0  0  0  0  0
    3.3578   -7.6542    1.4861 C   0  0  0  0  0  0  0  0  0  0  0  0
    4.3917   -8.5455    1.8368 C   0  0  0  0  0  0  0  0  0  0  0  0
    4.0072   -9.7411    2.4778 C   0  0  0  0  0  0  0  0  0  0  0  0
    5.6175   -8.0279    1.4649 N   0  0  0  0  0  0  0  0  0  0  0  0
    5.4081   -6.8717    0.9139 N   0  0  0  0  0  0  0  0  0  0  0  0
    4.0663   -6.6113    0.9036 N   0  0  0  0  0  0  0  0  0  0  0  0
    3.5572   -5.4023    0.3600 C   0  0  0  0  0  0  0  0  0  0  0  0
    2.2678   -5.0732    0.2827 N   0  0  0  0  0  0  0  0  0  0  0  0
    2.2122   -3.7945   -0.3207 O   0  0  0  0  0  0  0  0  0  0  0  0
    3.4840   -3.3426   -0.5976 C   0  0  0  0  0  0  0  0  0  0  0  0
    3.9226   -2.1437   -1.1689 C   0  0  0  0  0  0  0  0  0  0  0  0
    5.3139   -1.9972   -1.3175 C   0  0  0  0  0  0  0  0  0  0  0  0
    6.1445   -3.0562   -0.8814 C   0  0  0  0  0  0  0  0  0  0  0  0
    5.7000   -4.2102   -0.3186 N   0  0  0  0  0  0  0  0  0  0  0  0
    4.3694   -4.3518   -0.1795 C   0  0  0  0  0  0  0  0  0  0  0  0
    2.3141  -10.8754    3.2029 H   0  0  0  0  0  0  0  0  0  0  0  0
    0.6414   -9.1694    2.4763 H   0  0  0  0  0  0  0  0  0  0  0  0
    4.7493  -10.4655    2.7736 H   0  0  0  0  0  0  0  0  0  0  0  0
    3.2225   -1.3806   -1.4727 H   0  0  0  0  0  0  0  0  0  0  0  0
    5.7243   -1.1010   -1.7538 H   0  0  0  0  0  0  0  0  0  0  0  0
    7.2162   -2.9723   -0.9877 H   0  0  0  0  0  0  0  0  0  0  0  0
  1  6  2  0
  1  2  1  0
  1 19  1  0
  2  3  2  0
  2 20  1  0
  3  4  1  0
  4  9  1  0
  4  5  2  0
  5  6  1  0
  5  7  1  0
  6 21  1  0
  7  8  2  0
  8  9  1  0
  9 10  1  0
 10 18  1  0
 10 11  2  0
 11 12  1  0
 12 13  1  0
 13 18  2  0
 13 14  1  0
 14 15  2  0
 14 22  1  0
 15 16  1  0
 15 23  1  0
 16 17  2  0
 16 24  1  0
 17 18  1  0
M  END
>  <i_m_ct_stereo_status>  (231) 
1

>  <s_m_source_file>  (231) 
/var/tmp/pbs.5076255.sched01/tmpo609hgx5/90rinj4u0e.sdf

>  <i_m_source_file_index>  (231) 
5

>  <i_lp_mmshare_version>  (231) 
48012

>  <i_f3d_flags>  (231) 
0

>  <s_epik_input>  (231) 
bjFbY0hdW2NIXVtjSF1jKGMxMilubm4yLWMobm8zKWMoYzM0KW5bY0hdW2NIXVtjSF00

>  <s_epik_cmdline>  (231) 
J2VwaWtfcHl0aG9uJywgJy1waHQnLCAnMi4wJywgJy1waCcsICc3LjAnLCAnLXRuJywgJzgnLCAnLW1hJywgJzIwMCcsICctaW1hZScsICc8aW5maWxlLm1hZT4nLCAnLW9tYWUnLCAnPG91dGZpbGUubWFlPic=

>  <r_lp_tautomer_probability>  (231) 
1

>  <r_epik_Ionization_Penalty>  (231) 
1.58794e-09

>  <r_epik_Ionization_Penalty_Charging>  (231) 
0

>  <r_epik_Ionization_Penalty_Neutral>  (231) 
1.58794e-09

>  <r_epik_State_Penalty>  (231) 
-0

>  <r_epik_Charging_Adjusted_Penalty>  (231) 
0

>  <i_epik_Tot_Q>  (231) 
0

>  <i_epik_Tot_abs_Q>  (231) 
0

>  <s_lp_Force_Field>  (231) 
OPLS3e

>  <r_lp_Energy>  (231) 
27.0844

>  <b_lp_Chiralities_Consistent>  (231) 
1

>  <s_lp_Variant>  (231) 
55:0-1

>  <s_i_glide_gridfile>  (231) 
pfpi4k_grid

>  <i_i_glide_lignum>  (231) 
5

>  <i_i_glide_rotatable_bonds>  (231) 
1

>  <r_i_docking_score>  (231) 
-3.45873

>  <r_i_glide_ligand_efficiency>  (231) 
-0.192152

>  <r_i_glide_ligand_efficiency_sa>  (231) 
-0.50358

>  <r_i_glide_ligand_efficiency_ln>  (231) 
-0.889049

>  <r_i_glide_gscore>  (231) 
-3.45873

>  <r_i_glide_lipo>  (231) 
-0.139499

>  <r_i_glide_hbond>  (231) 
0

>  <r_i_glide_metal>  (231) 
-0

>  <r_i_glide_rewards>  (231) 
-1.97577

>  <r_i_glide_evdw>  (231) 
-21.6364

>  <r_i_glide_ecoul>  (231) 
-2.88067

>  <r_i_glide_erotb>  (231) 
0.304113

>  <r_i_glide_esite>  (231) 
-0.133658

>  <r_i_glide_emodel>  (231) 
-30.5112

>  <r_i_glide_energy>  (231) 
-24.517

>  <r_i_glide_einternal>  (231) 
0.00849907

>  <r_i_glide_intrahb_reward>  (231) 
-0

>  <i_i_glide_confnum>  (231) 
4

>  <i_i_glide_posenum>  (231) 
16

>  <r_i_glide_eff_state_penalty>  (231) 
0

>  <ligand_id>  (231) 
55

>  <original_smiles>  (231) 
c1cnc2c(c1)nnn2-c1noc2cccnc12

>  <smiles>  (231) 
[H]c1nc2c(nnn2-c2noc3c([H])c([H])c([H])nc23)c([H])c1[H]

$$$$
55:0:2
     RDKit          3D

 24 27  0  0  1  0  0  0  0  0999 V2000
    6.6143   -4.4093    0.4877 C   0  0  0  0  0  0  0  0  0  0  0  0
    6.6794   -5.7214    1.0085 C   0  0  0  0  0  0  0  0  0  0  0  0
    5.5987   -6.4860    1.2844 N   0  0  0  0  0  0  0  0  0  0  0  0
    4.3992   -5.8886    1.0193 C   0  0  0  0  0  0  0  0  0  0  0  0
    4.1981   -4.5936    0.4996 C   0  0  0  0  0  0  0  0  0  0  0  0
    5.3530   -3.8350    0.2276 C   0  0  0  0  0  0  0  0  0  0  0  0
    2.8478   -4.3343    0.3681 N   0  0  0  0  0  0  0  0  0  0  0  0
    2.2052   -5.3902    0.7633 N   0  0  0  0  0  0  0  0  0  0  0  0
    3.0960   -6.3366    1.1798 N   0  0  0  0  0  0  0  0  0  0  0  0
    2.6512   -7.5866    1.6798 C   0  0  0  0  0  0  0  0  0  0  0  0
    3.4167   -8.6590    1.8613 N   0  0  0  0  0  0  0  0  0  0  0  0
    2.5816   -9.6834    2.3662 O   0  0  0  0  0  0  0  0  0  0  0  0
    1.2876   -9.2097    2.4864 C   0  0  0  0  0  0  0  0  0  0  0  0
    0.1237   -9.8393    2.9375 C   0  0  0  0  0  0  0  0  0  0  0  0
   -1.0487   -9.0625    2.9296 C   0  0  0  0  0  0  0  0  0  0  0  0
   -0.9648   -7.7289    2.4770 C   0  0  0  0  0  0  0  0  0  0  0  0
    0.1735   -7.1210    2.0451 N   0  0  0  0  0  0  0  0  0  0  0  0
    1.2958   -7.8701    2.0508 C   0  0  0  0  0  0  0  0  0  0  0  0
    7.5188   -3.8537    0.2898 H   0  0  0  0  0  0  0  0  0  0  0  0
    7.6413   -6.1741    1.2064 H   0  0  0  0  0  0  0  0  0  0  0  0
    5.2689   -2.8347   -0.1672 H   0  0  0  0  0  0  0  0  0  0  0  0
    0.1355  -10.8630    3.2785 H   0  0  0  0  0  0  0  0  0  0  0  0
   -1.9835   -9.4808    3.2769 H   0  0  0  0  0  0  0  0  0  0  0  0
   -1.8551   -7.1172    2.4721 H   0  0  0  0  0  0  0  0  0  0  0  0
  1  6  2  0
  1  2  1  0
  1 19  1  0
  2  3  2  0
  2 20  1  0
  3  4  1  0
  4  9  1  0
  4  5  2  0
  5  6  1  0
  5  7  1  0
  6 21  1  0
  7  8  2  0
  8  9  1  0
  9 10  1  0
 10 18  1  0
 10 11  2  0
 11 12  1  0
 12 13  1  0
 13 18  2  0
 13 14  1  0
 14 15  2  0
 14 22  1  0
 15 16  1  0
 15 23  1  0
 16 17  2  0
 16 24  1  0
 17 18  1  0
M  END
>  <i_m_ct_stereo_status>  (232) 
1

>  <s_m_source_file>  (232) 
/var/tmp/pbs.5076255.sched01/tmpo609hgx5/90rinj4u0e.sdf

>  <i_m_source_file_index>  (232) 
5

>  <i_lp_mmshare_version>  (232) 
48012

>  <i_f3d_flags>  (232) 
0

>  <s_epik_input>  (232) 
bjFbY0hdW2NIXVtjSF1jKGMxMilubm4yLWMobm8zKWMoYzM0KW5bY0hdW2NIXVtjSF00

>  <s_epik_cmdline>  (232) 
J2VwaWtfcHl0aG9uJywgJy1waHQnLCAnMi4wJywgJy1waCcsICc3LjAnLCAnLXRuJywgJzgnLCAnLW1hJywgJzIwMCcsICctaW1hZScsICc8aW5maWxlLm1hZT4nLCAnLW9tYWUnLCAnPG91dGZpbGUubWFlPic=

>  <r_lp_tautomer_probability>  (232) 
1

>  <r_epik_Ionization_Penalty>  (232) 
1.58794e-09

>  <r_epik_Ionization_Penalty_Charging>  (232) 
0

>  <r_epik_Ionization_Penalty_Neutral>  (232) 
1.58794e-09

>  <r_epik_State_Penalty>  (232) 
-0

>  <r_epik_Charging_Adjusted_Penalty>  (232) 
0

>  <i_epik_Tot_Q>  (232) 
0

>  <i_epik_Tot_abs_Q>  (232) 
0

>  <s_lp_Force_Field>  (232) 
OPLS3e

>  <r_lp_Energy>  (232) 
27.0844

>  <b_lp_Chiralities_Consistent>  (232) 
1

>  <s_lp_Variant>  (232) 
55:0-1

>  <s_i_glide_gridfile>  (232) 
pfpi4k_grid

>  <i_i_glide_lignum>  (232) 
5

>  <i_i_glide_rotatable_bonds>  (232) 
1

>  <r_i_docking_score>  (232) 
-3.37836

>  <r_i_glide_ligand_efficiency>  (232) 
-0.187687

>  <r_i_glide_ligand_efficiency_sa>  (232) 
-0.491879

>  <r_i_glide_ligand_efficiency_ln>  (232) 
-0.868391

>  <r_i_glide_gscore>  (232) 
-3.37836

>  <r_i_glide_lipo>  (232) 
-0.344121

>  <r_i_glide_hbond>  (232) 
0

>  <r_i_glide_metal>  (232) 
-0

>  <r_i_glide_rewards>  (232) 
-1.92344

>  <r_i_glide_evdw>  (232) 
-24.4639

>  <r_i_glide_ecoul>  (232) 
-0.53083

>  <r_i_glide_erotb>  (232) 
0.304113

>  <r_i_glide_esite>  (232) 
-0.112093

>  <r_i_glide_emodel>  (232) 
-30.8286

>  <r_i_glide_energy>  (232) 
-24.9948

>  <r_i_glide_einternal>  (232) 
0.045629

>  <r_i_glide_intrahb_reward>  (232) 
-0

>  <i_i_glide_confnum>  (232) 
1

>  <i_i_glide_posenum>  (232) 
3

>  <r_i_glide_eff_state_penalty>  (232) 
0

>  <ligand_id>  (232) 
55

>  <original_smiles>  (232) 
c1cnc2c(c1)nnn2-c1noc2cccnc12

>  <smiles>  (232) 
[H]c1nc2c(nnn2-c2noc3c([H])c([H])c([H])nc23)c([H])c1[H]

$$$$
56:0:0
     RDKit          3D

 32 32  0  0  1  0  0  0  0  0999 V2000
    4.6461   -3.2401   -3.0544 C   0  0  0  0  0  0  0  0  0  0  0  0
    5.1098   -2.7865   -1.6692 C   0  0  0  0  0  0  0  0  0  0  0  0
    6.2279   -2.2750   -1.5786 O   0  0  0  0  0  0  0  0  0  0  0  0
    4.2978   -2.9648   -0.6005 N   0  0  0  0  0  0  0  0  0  0  0  0
    4.7919   -2.7612    0.7714 C   0  0  0  0  0  0  0  0  0  0  0  0
    4.8119   -4.1150    1.5107 C   0  0  0  0  0  0  0  0  0  0  0  0
    3.6478   -4.9389    1.1754 N   0  0  0  0  0  0  0  0  0  0  0  0
    3.4825   -6.0450    2.0328 O   0  0  0  0  0  0  0  0  0  0  0  0
    4.0032   -7.2031    1.5428 C   0  0  0  0  0  0  0  0  0  0  0  0
    4.6150   -7.3271    0.4804 O   0  0  0  0  0  0  0  0  0  0  0  0
    3.7319   -8.3915    2.4683 C   0  0  0  0  0  0  0  0  0  0  0  0
    4.5581   -8.2675    3.7567 C   0  0  0  0  0  0  0  0  0  0  0  0
    3.9823   -9.7351    1.7627 C   0  0  0  0  0  0  0  0  0  0  0  0
    2.7003   -4.7015    0.2438 C   0  0  0  0  0  0  0  0  0  0  0  0
    1.7151   -5.4301    0.0976 O   0  0  0  0  0  0  0  0  0  0  0  0
    2.9143   -3.4836   -0.6705 C   0  0  0  0  0  0  0  0  0  0  0  0
    4.2577   -4.2565   -3.0230 H   0  0  0  0  0  0  0  0  0  0  0  0
    5.4781   -3.2496   -3.7570 H   0  0  0  0  0  0  0  0  0  0  0  0
    3.8750   -2.5754   -3.4368 H   0  0  0  0  0  0  0  0  0  0  0  0
    5.7841   -2.3095    0.8262 H   0  0  0  0  0  0  0  0  0  0  0  0
    4.1286   -2.0646    1.2794 H   0  0  0  0  0  0  0  0  0  0  0  0
    5.7015   -4.6713    1.2155 H   0  0  0  0  0  0  0  0  0  0  0  0
    4.8824   -3.9651    2.5866 H   0  0  0  0  0  0  0  0  0  0  0  0
    2.6740   -8.3541    2.7371 H   0  0  0  0  0  0  0  0  0  0  0  0
    4.3118   -7.3571    4.3016 H   0  0  0  0  0  0  0  0  0  0  0  0
    5.6254   -8.2490    3.5370 H   0  0  0  0  0  0  0  0  0  0  0  0
    4.3696   -9.1094    4.4215 H   0  0  0  0  0  0  0  0  0  0  0  0
    3.3592   -9.8406    0.8743 H   0  0  0  0  0  0  0  0  0  0  0  0
    3.7473  -10.5734    2.4177 H   0  0  0  0  0  0  0  0  0  0  0  0
    5.0211   -9.8443    1.4515 H   0  0  0  0  0  0  0  0  0  0  0  0
    2.2375   -2.6850   -0.3612 H   0  0  0  0  0  0  0  0  0  0  0  0
    2.5828   -3.7655   -1.6711 H   0  0  0  0  0  0  0  0  0  0  0  0
  1  2  1  0
  1 17  1  0
  1 18  1  0
  1 19  1  0
  2  3  2  0
  2  4  1  0
  4 16  1  0
  4  5  1  0
  5  6  1  0
  5 20  1  0
  5 21  1  0
  6  7  1  0
  6 22  1  0
  6 23  1  0
  7  8  1  0
  7 14  1  0
  8  9  1  0
  9 10  2  0
  9 11  1  0
 11 12  1  0
 11 13  1  0
 11 24  1  0
 12 25  1  0
 12 26  1  0
 12 27  1  0
 13 28  1  0
 13 29  1  0
 13 30  1  0
 14 15  2  0
 14 16  1  0
 16 31  1  0
 16 32  1  0
M  END
>  <i_m_ct_stereo_status>  (233) 
1

>  <s_m_source_file>  (233) 
/var/tmp/pbs.5076255.sched01/tmpo609hgx5/90rinj4u0e.sdf

>  <i_m_source_file_index>  (233) 
6

>  <i_lp_mmshare_version>  (233) 
48012

>  <i_f3d_flags>  (233) 
0

>  <s_epik_input>  (233) 
W0NIM11DKD1PKU4xW0NIMl1bQ0gyXU4oQyg9TylbQ0gyXTEpT0MoPU8pW0NIXShbQ0gzXSlbQ0gzXQ==

>  <s_epik_cmdline>  (233) 
J2VwaWtfcHl0aG9uJywgJy1waHQnLCAnMi4wJywgJy1waCcsICc3LjAnLCAnLXRuJywgJzgnLCAnLW1hJywgJzIwMCcsICctaW1hZScsICc8aW5maWxlLm1hZT4nLCAnLW9tYWUnLCAnPG91dGZpbGUubWFlPic=

>  <r_lp_tautomer_probability>  (233) 
1

>  <r_epik_Ionization_Penalty>  (233) 
5.43754e-07

>  <r_epik_Ionization_Penalty_Charging>  (233) 
0

>  <r_epik_Ionization_Penalty_Neutral>  (233) 
5.43754e-07

>  <r_epik_State_Penalty>  (233) 
-0

>  <r_epik_Charging_Adjusted_Penalty>  (233) 
0

>  <i_epik_Tot_Q>  (233) 
0

>  <i_epik_Tot_abs_Q>  (233) 
0

>  <s_epik_Chemistry_Notes>  (233) 
This compound has a N-S or N-O group and may undergo hydrolysis at high or low pH.

>  <s_lp_Force_Field>  (233) 
OPLS3e

>  <r_lp_Energy>  (233) 
32.0589

>  <b_lp_Chiralities_Consistent>  (233) 
1

>  <s_lp_Variant>  (233) 
56:0-1

>  <s_i_glide_gridfile>  (233) 
pfpi4k_grid

>  <i_i_glide_lignum>  (233) 
6

>  <i_i_glide_rotatable_bonds>  (233) 
4

>  <r_i_docking_score>  (233) 
-3.44171

>  <r_i_glide_ligand_efficiency>  (233) 
-0.215107

>  <r_i_glide_ligand_efficiency_sa>  (233) 
-0.542036

>  <r_i_glide_ligand_efficiency_ln>  (233) 
-0.912294

>  <r_i_glide_gscore>  (233) 
-3.44171

>  <r_i_glide_lipo>  (233) 
-0.187349

>  <r_i_glide_hbond>  (233) 
-0.171651

>  <r_i_glide_metal>  (233) 
-0

>  <r_i_glide_rewards>  (233) 
-1.97406

>  <r_i_glide_evdw>  (233) 
-18.4209

>  <r_i_glide_ecoul>  (233) 
-5.34115

>  <r_i_glide_erotb>  (233) 
0.654028

>  <r_i_glide_esite>  (233) 
-0.0404579

>  <r_i_glide_emodel>  (233) 
-29.1602

>  <r_i_glide_energy>  (233) 
-23.7621

>  <r_i_glide_einternal>  (233) 
0.506791

>  <r_i_glide_intrahb_reward>  (233) 
-0

>  <i_i_glide_confnum>  (233) 
3

>  <i_i_glide_posenum>  (233) 
3

>  <r_i_glide_eff_state_penalty>  (233) 
0

>  <ligand_id>  (233) 
56

>  <original_smiles>  (233) 
CC(=O)N1CCN(OC(=O)C(C)C)C(=O)C1

>  <smiles>  (233) 
[H]C([H])([H])C(=O)N1C([H])([H])C(=O)N(OC(=O)C([H])(C([H])([H])[H])C([H])([H])[H])C([H])([H])C1([H])[H]

$$$$
56:0:1
     RDKit          3D

 32 32  0  0  1  0  0  0  0  0999 V2000
    3.3214   -1.8795   -2.6363 C   0  0  0  0  0  0  0  0  0  0  0  0
    4.4483   -2.1411   -1.6388 C   0  0  0  0  0  0  0  0  0  0  0  0
    5.5690   -1.7054   -1.9101 O   0  0  0  0  0  0  0  0  0  0  0  0
    4.1960   -2.8480   -0.5082 N   0  0  0  0  0  0  0  0  0  0  0  0
    5.2895   -3.2934    0.3707 C   0  0  0  0  0  0  0  0  0  0  0  0
    5.3673   -4.8281    0.3324 C   0  0  0  0  0  0  0  0  0  0  0  0
    4.0401   -5.4327    0.4174 N   0  0  0  0  0  0  0  0  0  0  0  0
    4.0775   -6.8243    0.6118 O   0  0  0  0  0  0  0  0  0  0  0  0
    4.0511   -7.1888    1.9170 C   0  0  0  0  0  0  0  0  0  0  0  0
    3.9787   -6.4213    2.8820 O   0  0  0  0  0  0  0  0  0  0  0  0
    4.1380   -8.6957    2.1279 C   0  0  0  0  0  0  0  0  0  0  0  0
    5.4498   -9.2485    1.5579 C   0  0  0  0  0  0  0  0  0  0  0  0
    2.9091   -9.4331    1.5692 C   0  0  0  0  0  0  0  0  0  0  0  0
    2.8489   -4.8421    0.1745 C   0  0  0  0  0  0  0  0  0  0  0  0
    1.7848   -5.4615    0.1641 O   0  0  0  0  0  0  0  0  0  0  0  0
    2.8582   -3.3339   -0.1081 C   0  0  0  0  0  0  0  0  0  0  0  0
    2.7799   -2.7939   -2.8693 H   0  0  0  0  0  0  0  0  0  0  0  0
    3.7200   -1.4954   -3.5735 H   0  0  0  0  0  0  0  0  0  0  0  0
    2.6251   -1.1424   -2.2397 H   0  0  0  0  0  0  0  0  0  0  0  0
    6.2685   -2.8782    0.1218 H   0  0  0  0  0  0  0  0  0  0  0  0
    5.0826   -2.9662    1.3877 H   0  0  0  0  0  0  0  0  0  0  0  0
    5.8279   -5.1543   -0.5973 H   0  0  0  0  0  0  0  0  0  0  0  0
    6.0021   -5.1887    1.1400 H   0  0  0  0  0  0  0  0  0  0  0  0
    4.1463   -8.8496    3.2071 H   0  0  0  0  0  0  0  0  0  0  0  0
    6.3076   -8.7682    2.0281 H   0  0  0  0  0  0  0  0  0  0  0  0
    5.5140   -9.0814    0.4837 H   0  0  0  0  0  0  0  0  0  0  0  0
    5.5243  -10.3210    1.7319 H   0  0  0  0  0  0  0  0  0  0  0  0
    1.9801   -9.0646    2.0087 H   0  0  0  0  0  0  0  0  0  0  0  0
    2.9766  -10.4972    1.7966 H   0  0  0  0  0  0  0  0  0  0  0  0
    2.8367   -9.3426    0.4861 H   0  0  0  0  0  0  0  0  0  0  0  0
    2.5773   -2.8184    0.8113 H   0  0  0  0  0  0  0  0  0  0  0  0
    2.0545   -3.1116   -0.8145 H   0  0  0  0  0  0  0  0  0  0  0  0
  1  2  1  0
  1 17  1  0
  1 18  1  0
  1 19  1  0
  2  3  2  0
  2  4  1  0
  4 16  1  0
  4  5  1  0
  5  6  1  0
  5 20  1  0
  5 21  1  0
  6  7  1  0
  6 22  1  0
  6 23  1  0
  7  8  1  0
  7 14  1  0
  8  9  1  0
  9 10  2  0
  9 11  1  0
 11 12  1  0
 11 13  1  0
 11 24  1  0
 12 25  1  0
 12 26  1  0
 12 27  1  0
 13 28  1  0
 13 29  1  0
 13 30  1  0
 14 15  2  0
 14 16  1  0
 16 31  1  0
 16 32  1  0
M  END
>  <i_m_ct_stereo_status>  (234) 
1

>  <s_m_source_file>  (234) 
/var/tmp/pbs.5076255.sched01/tmpo609hgx5/90rinj4u0e.sdf

>  <i_m_source_file_index>  (234) 
6

>  <i_lp_mmshare_version>  (234) 
48012

>  <i_f3d_flags>  (234) 
0

>  <s_epik_input>  (234) 
W0NIM11DKD1PKU4xW0NIMl1bQ0gyXU4oQyg9TylbQ0gyXTEpT0MoPU8pW0NIXShbQ0gzXSlbQ0gzXQ==

>  <s_epik_cmdline>  (234) 
J2VwaWtfcHl0aG9uJywgJy1waHQnLCAnMi4wJywgJy1waCcsICc3LjAnLCAnLXRuJywgJzgnLCAnLW1hJywgJzIwMCcsICctaW1hZScsICc8aW5maWxlLm1hZT4nLCAnLW9tYWUnLCAnPG91dGZpbGUubWFlPic=

>  <r_lp_tautomer_probability>  (234) 
1

>  <r_epik_Ionization_Penalty>  (234) 
5.43754e-07

>  <r_epik_Ionization_Penalty_Charging>  (234) 
0

>  <r_epik_Ionization_Penalty_Neutral>  (234) 
5.43754e-07

>  <r_epik_State_Penalty>  (234) 
-0

>  <r_epik_Charging_Adjusted_Penalty>  (234) 
0

>  <i_epik_Tot_Q>  (234) 
0

>  <i_epik_Tot_abs_Q>  (234) 
0

>  <s_epik_Chemistry_Notes>  (234) 
This compound has a N-S or N-O group and may undergo hydrolysis at high or low pH.

>  <s_lp_Force_Field>  (234) 
OPLS3e

>  <r_lp_Energy>  (234) 
32.0589

>  <b_lp_Chiralities_Consistent>  (234) 
1

>  <s_lp_Variant>  (234) 
56:0-1

>  <s_i_glide_gridfile>  (234) 
pfpi4k_grid

>  <i_i_glide_lignum>  (234) 
6

>  <i_i_glide_rotatable_bonds>  (234) 
4

>  <r_i_docking_score>  (234) 
-3.24264

>  <r_i_glide_ligand_efficiency>  (234) 
-0.202665

>  <r_i_glide_ligand_efficiency_sa>  (234) 
-0.510684

>  <r_i_glide_ligand_efficiency_ln>  (234) 
-0.859527

>  <r_i_glide_gscore>  (234) 
-3.24264

>  <r_i_glide_lipo>  (234) 
-0.121334

>  <r_i_glide_hbond>  (234) 
-0.0896447

>  <r_i_glide_metal>  (234) 
-0

>  <r_i_glide_rewards>  (234) 
-1.96211

>  <r_i_glide_evdw>  (234) 
-19.7871

>  <r_i_glide_ecoul>  (234) 
-4.43073

>  <r_i_glide_erotb>  (234) 
0.654028

>  <r_i_glide_esite>  (234) 
-0.0696227

>  <r_i_glide_emodel>  (234) 
-29.4585

>  <r_i_glide_energy>  (234) 
-24.2178

>  <r_i_glide_einternal>  (234) 
0.166141

>  <r_i_glide_intrahb_reward>  (234) 
-0

>  <i_i_glide_confnum>  (234) 
3

>  <i_i_glide_posenum>  (234) 
38

>  <r_i_glide_eff_state_penalty>  (234) 
0

>  <ligand_id>  (234) 
56

>  <original_smiles>  (234) 
CC(=O)N1CCN(OC(=O)C(C)C)C(=O)C1

>  <smiles>  (234) 
[H]C([H])([H])C(=O)N1C([H])([H])C(=O)N(OC(=O)C([H])(C([H])([H])[H])C([H])([H])[H])C([H])([H])C1([H])[H]

$$$$
56:0:2
     RDKit          3D

 32 32  0  0  1  0  0  0  0  0999 V2000
    2.4076    1.4090    3.1931 C   0  0  0  0  0  0  0  0  0  0  0  0
    0.9129    1.1204    3.0105 C   0  0  0  0  0  0  0  0  0  0  0  0
    0.5791   -0.0265    2.7170 O   0  0  0  0  0  0  0  0  0  0  0  0
    0.0178    2.1259    3.1662 N   0  0  0  0  0  0  0  0  0  0  0  0
   -1.4151    1.9169    2.9225 C   0  0  0  0  0  0  0  0  0  0  0  0
   -2.1865    2.0705    4.2423 C   0  0  0  0  0  0  0  0  0  0  0  0
   -1.6252    3.1225    5.0965 N   0  0  0  0  0  0  0  0  0  0  0  0
   -2.4707    3.5109    6.1604 O   0  0  0  0  0  0  0  0  0  0  0  0
   -2.3242    2.7667    7.2821 C   0  0  0  0  0  0  0  0  0  0  0  0
   -1.9187    1.5987    7.3305 O   0  0  0  0  0  0  0  0  0  0  0  0
   -2.6863    3.5497    8.5547 C   0  0  0  0  0  0  0  0  0  0  0  0
   -1.7318    4.7425    8.7569 C   0  0  0  0  0  0  0  0  0  0  0  0
   -2.6778    2.6405    9.7968 C   0  0  0  0  0  0  0  0  0  0  0  0
   -0.5271    3.8738    4.8567 C   0  0  0  0  0  0  0  0  0  0  0  0
   -0.2199    4.8621    5.5278 O   0  0  0  0  0  0  0  0  0  0  0  0
    0.3611    3.4684    3.6767 C   0  0  0  0  0  0  0  0  0  0  0  0
    2.7186    2.2811    2.6216 H   0  0  0  0  0  0  0  0  0  0  0  0
    3.0013    0.5631    2.8529 H   0  0  0  0  0  0  0  0  0  0  0  0
    2.6226    1.5697    4.2451 H   0  0  0  0  0  0  0  0  0  0  0  0
   -1.7468    2.6653    2.2091 H   0  0  0  0  0  0  0  0  0  0  0  0
   -1.6628    0.9532    2.4756 H   0  0  0  0  0  0  0  0  0  0  0  0
   -3.2418    2.2481    4.0402 H   0  0  0  0  0  0  0  0  0  0  0  0
   -2.1204    1.1194    4.7692 H   0  0  0  0  0  0  0  0  0  0  0  0
   -3.6985    3.9400    8.4347 H   0  0  0  0  0  0  0  0  0  0  0  0
   -1.7796    5.4524    7.9321 H   0  0  0  0  0  0  0  0  0  0  0  0
   -0.6942    4.4157    8.8455 H   0  0  0  0  0  0  0  0  0  0  0  0
   -1.9816    5.2893    9.6657 H   0  0  0  0  0  0  0  0  0  0  0  0
   -3.3862    1.8247    9.6865 H   0  0  0  0  0  0  0  0  0  0  0  0
   -2.9688    3.1855   10.6922 H   0  0  0  0  0  0  0  0  0  0  0  0
   -1.6903    2.2105    9.9743 H   0  0  0  0  0  0  0  0  0  0  0  0
    1.3905    3.5803    4.0247 H   0  0  0  0  0  0  0  0  0  0  0  0
    0.2342    4.1994    2.8847 H   0  0  0  0  0  0  0  0  0  0  0  0
  1  2  1  0
  1 17  1  0
  1 18  1  0
  1 19  1  0
  2  3  2  0
  2  4  1  0
  4 16  1  0
  4  5  1  0
  5  6  1  0
  5 20  1  0
  5 21  1  0
  6  7  1  0
  6 22  1  0
  6 23  1  0
  7  8  1  0
  7 14  1  0
  8  9  1  0
  9 10  2  0
  9 11  1  0
 11 12  1  0
 11 13  1  0
 11 24  1  0
 12 25  1  0
 12 26  1  0
 12 27  1  0
 13 28  1  0
 13 29  1  0
 13 30  1  0
 14 15  2  0
 14 16  1  0
 16 31  1  0
 16 32  1  0
M  END
>  <i_m_ct_stereo_status>  (235) 
1

>  <s_m_source_file>  (235) 
/var/tmp/pbs.5076255.sched01/tmpo609hgx5/90rinj4u0e.sdf

>  <i_m_source_file_index>  (235) 
6

>  <i_lp_mmshare_version>  (235) 
48012

>  <i_f3d_flags>  (235) 
0

>  <s_epik_input>  (235) 
W0NIM11DKD1PKU4xW0NIMl1bQ0gyXU4oQyg9TylbQ0gyXTEpT0MoPU8pW0NIXShbQ0gzXSlbQ0gzXQ==

>  <s_epik_cmdline>  (235) 
J2VwaWtfcHl0aG9uJywgJy1waHQnLCAnMi4wJywgJy1waCcsICc3LjAnLCAnLXRuJywgJzgnLCAnLW1hJywgJzIwMCcsICctaW1hZScsICc8aW5maWxlLm1hZT4nLCAnLW9tYWUnLCAnPG91dGZpbGUubWFlPic=

>  <r_lp_tautomer_probability>  (235) 
1

>  <r_epik_Ionization_Penalty>  (235) 
5.43754e-07

>  <r_epik_Ionization_Penalty_Charging>  (235) 
0

>  <r_epik_Ionization_Penalty_Neutral>  (235) 
5.43754e-07

>  <r_epik_State_Penalty>  (235) 
-0

>  <r_epik_Charging_Adjusted_Penalty>  (235) 
0

>  <i_epik_Tot_Q>  (235) 
0

>  <i_epik_Tot_abs_Q>  (235) 
0

>  <s_epik_Chemistry_Notes>  (235) 
This compound has a N-S or N-O group and may undergo hydrolysis at high or low pH.

>  <s_lp_Force_Field>  (235) 
OPLS3e

>  <r_lp_Energy>  (235) 
32.0589

>  <b_lp_Chiralities_Consistent>  (235) 
1

>  <s_lp_Variant>  (235) 
56:0-1

>  <s_i_glide_gridfile>  (235) 
pfpi4k_grid

>  <i_i_glide_lignum>  (235) 
6

>  <i_i_glide_rotatable_bonds>  (235) 
4

>  <r_i_docking_score>  (235) 
-2.8438

>  <r_i_glide_ligand_efficiency>  (235) 
-0.177738

>  <r_i_glide_ligand_efficiency_sa>  (235) 
-0.44787

>  <r_i_glide_ligand_efficiency_ln>  (235) 
-0.753806

>  <r_i_glide_gscore>  (235) 
-2.8438

>  <r_i_glide_lipo>  (235) 
-0.0626071

>  <r_i_glide_hbond>  (235) 
-0.0308492

>  <r_i_glide_metal>  (235) 
-0

>  <r_i_glide_rewards>  (235) 
-2.00281

>  <r_i_glide_evdw>  (235) 
-18.6898

>  <r_i_glide_ecoul>  (235) 
-2.21834

>  <r_i_glide_erotb>  (235) 
0.654028

>  <r_i_glide_esite>  (235) 
-0.134328

>  <r_i_glide_emodel>  (235) 
-24.7427

>  <r_i_glide_energy>  (235) 
-20.9081

>  <r_i_glide_einternal>  (235) 
1.59155

>  <r_i_glide_intrahb_reward>  (235) 
-0

>  <i_i_glide_confnum>  (235) 
2

>  <i_i_glide_posenum>  (235) 
8

>  <r_i_glide_eff_state_penalty>  (235) 
0

>  <ligand_id>  (235) 
56

>  <original_smiles>  (235) 
CC(=O)N1CCN(OC(=O)C(C)C)C(=O)C1

>  <smiles>  (235) 
[H]C([H])([H])C(=O)N1C([H])([H])C(=O)N(OC(=O)C([H])(C([H])([H])[H])C([H])([H])[H])C([H])([H])C1([H])[H]

$$$$
57:0:0
     RDKit          3D

 19 21  0  0  1  0  0  0  0  0999 V2000
    3.1722   -1.3456   -3.8672 C   0  0  0  0  0  0  0  0  0  0  0  0
    4.0241   -0.6807   -3.0349 C   0  0  0  0  0  0  0  0  0  0  0  0
    4.1475   -1.3396   -1.8525 O   0  0  0  0  0  0  0  0  0  0  0  0
    3.3294   -2.4312   -1.9117 C   0  0  0  0  0  0  0  0  0  0  0  0
    3.2939   -3.2894   -0.7257 C   0  0  0  0  0  0  0  0  0  0  0  0
    4.2323   -3.1326    0.3258 C   0  0  0  0  0  0  0  0  0  0  0  0
    4.1886   -3.9855    1.4498 C   0  0  0  0  0  0  0  0  0  0  0  0
    3.1797   -4.9793    1.4617 C   0  0  0  0  0  0  0  0  0  0  0  0
    2.8039   -5.9306    2.3086 N   0  0  0  0  0  0  0  0  0  0  0  0
    1.7249   -6.5470    1.7052 N   0  0  0  0  0  0  0  0  0  0  0  0
    1.4192   -6.0288    0.5562 N   0  0  0  0  0  0  0  0  0  0  0  0
    2.3202   -5.0305    0.3593 N   0  0  0  0  0  0  0  0  0  0  0  0
    2.3208   -4.2325   -0.7142 N   0  0  0  0  0  0  0  0  0  0  0  0
    2.7200   -2.4854   -3.1394 C   0  0  0  0  0  0  0  0  0  0  0  0
    2.8994   -1.0271   -4.8647 H   0  0  0  0  0  0  0  0  0  0  0  0
    4.5911    0.2362   -3.1140 H   0  0  0  0  0  0  0  0  0  0  0  0
    4.9889   -2.3625    0.2707 H   0  0  0  0  0  0  0  0  0  0  0  0
    4.8800   -3.8903    2.2763 H   0  0  0  0  0  0  0  0  0  0  0  0
    2.0260   -3.2477   -3.4648 H   0  0  0  0  0  0  0  0  0  0  0  0
  1 14  1  0
  1  2  2  0
  1 15  1  0
  2  3  1  0
  2 16  1  0
  3  4  1  0
  4  5  1  0
  4 14  2  0
  5 13  2  0
  5  6  1  0
  6  7  2  0
  6 17  1  0
  7  8  1  0
  7 18  1  0
  8 12  1  0
  8  9  2  0
  9 10  1  0
 10 11  2  0
 11 12  1  0
 12 13  1  0
 14 19  1  0
M  END
>  <i_m_ct_stereo_status>  (236) 
1

>  <s_m_source_file>  (236) 
/var/tmp/pbs.5076255.sched01/tmpo609hgx5/90rinj4u0e.sdf

>  <i_m_source_file_index>  (236) 
7

>  <i_lp_mmshare_version>  (236) 
48012

>  <i_f3d_flags>  (236) 
0

>  <s_epik_input>  (236) 
W2NIXTFbY0hdW2NIXW9jMS1jKFtjSF1bY0hdMilubihjMjMpbm5uMw==

>  <s_epik_cmdline>  (236) 
J2VwaWtfcHl0aG9uJywgJy1waHQnLCAnMi4wJywgJy1waCcsICc3LjAnLCAnLXRuJywgJzgnLCAnLW1hJywgJzIwMCcsICctaW1hZScsICc8aW5maWxlLm1hZT4nLCAnLW9tYWUnLCAnPG91dGZpbGUubWFlPic=

>  <r_lp_tautomer_probability>  (236) 
1

>  <r_epik_Ionization_Penalty>  (236) 
1.3523e-10

>  <r_epik_Ionization_Penalty_Charging>  (236) 
0

>  <r_epik_Ionization_Penalty_Neutral>  (236) 
1.3523e-10

>  <r_epik_State_Penalty>  (236) 
-0

>  <r_epik_Charging_Adjusted_Penalty>  (236) 
0

>  <i_epik_Tot_Q>  (236) 
0

>  <i_epik_Tot_abs_Q>  (236) 
0

>  <s_lp_Force_Field>  (236) 
OPLS3e

>  <r_lp_Energy>  (236) 
15.0585

>  <b_lp_Chiralities_Consistent>  (236) 
1

>  <s_lp_Variant>  (236) 
57:0-1

>  <s_i_glide_gridfile>  (236) 
pfpi4k_grid

>  <i_i_glide_lignum>  (236) 
7

>  <i_i_glide_rotatable_bonds>  (236) 
1

>  <r_i_docking_score>  (236) 
-3.57079

>  <r_i_glide_ligand_efficiency>  (236) 
-0.255057

>  <r_i_glide_ligand_efficiency_sa>  (236) 
-0.614723

>  <r_i_glide_ligand_efficiency_ln>  (236) 
-0.981241

>  <r_i_glide_gscore>  (236) 
-3.57079

>  <r_i_glide_lipo>  (236) 
-0.442818

>  <r_i_glide_hbond>  (236) 
0

>  <r_i_glide_metal>  (236) 
-0

>  <r_i_glide_rewards>  (236) 
-2.1372

>  <r_i_glide_evdw>  (236) 
-18.8463

>  <r_i_glide_ecoul>  (236) 
-2.06487

>  <r_i_glide_erotb>  (236) 
0.455865

>  <r_i_glide_esite>  (236) 
-0.194591

>  <r_i_glide_emodel>  (236) 
-26.2015

>  <r_i_glide_energy>  (236) 
-20.9112

>  <r_i_glide_einternal>  (236) 
0.225142

>  <r_i_glide_intrahb_reward>  (236) 
-0

>  <i_i_glide_confnum>  (236) 
1

>  <i_i_glide_posenum>  (236) 
2

>  <r_i_glide_eff_state_penalty>  (236) 
0

>  <ligand_id>  (236) 
57

>  <original_smiles>  (236) 
c1coc(-c2ccc3nnnn3n2)c1

>  <smiles>  (236) 
[H]c1oc(-c2nn3nnnc3c([H])c2[H])c([H])c1[H]

$$$$
57:0:1
     RDKit          3D

 19 21  0  0  1  0  0  0  0  0999 V2000
    1.0160  -11.2341    3.5591 C   0  0  0  0  0  0  0  0  0  0  0  0
    0.3647  -10.2446    2.8834 C   0  0  0  0  0  0  0  0  0  0  0  0
    0.1333   -9.1715    3.6918 O   0  0  0  0  0  0  0  0  0  0  0  0
    0.6391   -9.4890    4.9193 C   0  0  0  0  0  0  0  0  0  0  0  0
    0.5163   -8.4992    5.9929 C   0  0  0  0  0  0  0  0  0  0  0  0
    0.7468   -8.8619    7.3422 C   0  0  0  0  0  0  0  0  0  0  0  0
    0.6297   -7.8980    8.3678 C   0  0  0  0  0  0  0  0  0  0  0  0
    0.2703   -6.5859    7.9738 C   0  0  0  0  0  0  0  0  0  0  0  0
    0.0395   -5.4428    8.6111 N   0  0  0  0  0  0  0  0  0  0  0  0
   -0.2915   -4.5388    7.6208 N   0  0  0  0  0  0  0  0  0  0  0  0
   -0.2785   -5.0567    6.4312 N   0  0  0  0  0  0  0  0  0  0  0  0
    0.0783   -6.3555    6.6072 N   0  0  0  0  0  0  0  0  0  0  0  0
    0.1831   -7.2402    5.6086 N   0  0  0  0  0  0  0  0  0  0  0  0
    1.1886  -10.7423    4.8784 C   0  0  0  0  0  0  0  0  0  0  0  0
    1.3142  -12.1929    3.1544 H   0  0  0  0  0  0  0  0  0  0  0  0
    0.0070  -10.1566    1.8695 H   0  0  0  0  0  0  0  0  0  0  0  0
    1.0166   -9.8805    7.5912 H   0  0  0  0  0  0  0  0  0  0  0  0
    0.7963   -8.1359    9.4100 H   0  0  0  0  0  0  0  0  0  0  0  0
    1.6665  -11.2611    5.6872 H   0  0  0  0  0  0  0  0  0  0  0  0
  1 14  1  0
  1  2  2  0
  1 15  1  0
  2  3  1  0
  2 16  1  0
  3  4  1  0
  4  5  1  0
  4 14  2  0
  5 13  2  0
  5  6  1  0
  6  7  2  0
  6 17  1  0
  7  8  1  0
  7 18  1  0
  8 12  1  0
  8  9  2  0
  9 10  1  0
 10 11  2  0
 11 12  1  0
 12 13  1  0
 14 19  1  0
M  END
>  <i_m_ct_stereo_status>  (237) 
1

>  <s_m_source_file>  (237) 
/var/tmp/pbs.5076255.sched01/tmpo609hgx5/90rinj4u0e.sdf

>  <i_m_source_file_index>  (237) 
7

>  <i_lp_mmshare_version>  (237) 
48012

>  <i_f3d_flags>  (237) 
0

>  <s_epik_input>  (237) 
W2NIXTFbY0hdW2NIXW9jMS1jKFtjSF1bY0hdMilubihjMjMpbm5uMw==

>  <s_epik_cmdline>  (237) 
J2VwaWtfcHl0aG9uJywgJy1waHQnLCAnMi4wJywgJy1waCcsICc3LjAnLCAnLXRuJywgJzgnLCAnLW1hJywgJzIwMCcsICctaW1hZScsICc8aW5maWxlLm1hZT4nLCAnLW9tYWUnLCAnPG91dGZpbGUubWFlPic=

>  <r_lp_tautomer_probability>  (237) 
1

>  <r_epik_Ionization_Penalty>  (237) 
1.3523e-10

>  <r_epik_Ionization_Penalty_Charging>  (237) 
0

>  <r_epik_Ionization_Penalty_Neutral>  (237) 
1.3523e-10

>  <r_epik_State_Penalty>  (237) 
-0

>  <r_epik_Charging_Adjusted_Penalty>  (237) 
0

>  <i_epik_Tot_Q>  (237) 
0

>  <i_epik_Tot_abs_Q>  (237) 
0

>  <s_lp_Force_Field>  (237) 
OPLS3e

>  <r_lp_Energy>  (237) 
15.0585

>  <b_lp_Chiralities_Consistent>  (237) 
1

>  <s_lp_Variant>  (237) 
57:0-1

>  <s_i_glide_gridfile>  (237) 
pfpi4k_grid

>  <i_i_glide_lignum>  (237) 
7

>  <i_i_glide_rotatable_bonds>  (237) 
1

>  <r_i_docking_score>  (237) 
-3.35182

>  <r_i_glide_ligand_efficiency>  (237) 
-0.239415

>  <r_i_glide_ligand_efficiency_sa>  (237) 
-0.577025

>  <r_i_glide_ligand_efficiency_ln>  (237) 
-0.921067

>  <r_i_glide_gscore>  (237) 
-3.35182

>  <r_i_glide_lipo>  (237) 
-0.281139

>  <r_i_glide_hbond>  (237) 
0

>  <r_i_glide_metal>  (237) 
-0

>  <r_i_glide_rewards>  (237) 
-2.13301

>  <r_i_glide_evdw>  (237) 
-15.7658

>  <r_i_glide_ecoul>  (237) 
-3.80922

>  <r_i_glide_erotb>  (237) 
0.455865

>  <r_i_glide_esite>  (237) 
-0.0338582

>  <r_i_glide_emodel>  (237) 
-24.4889

>  <r_i_glide_energy>  (237) 
-19.575

>  <r_i_glide_einternal>  (237) 
0.364966

>  <r_i_glide_intrahb_reward>  (237) 
-0

>  <i_i_glide_confnum>  (237) 
2

>  <i_i_glide_posenum>  (237) 
13

>  <r_i_glide_eff_state_penalty>  (237) 
0

>  <ligand_id>  (237) 
57

>  <original_smiles>  (237) 
c1coc(-c2ccc3nnnn3n2)c1

>  <smiles>  (237) 
[H]c1oc(-c2nn3nnnc3c([H])c2[H])c([H])c1[H]

$$$$
57:0:2
     RDKit          3D

 19 21  0  0  1  0  0  0  0  0999 V2000
    3.3907   -1.4780   -3.9346 C   0  0  0  0  0  0  0  0  0  0  0  0
    2.7908   -2.6758   -3.6726 C   0  0  0  0  0  0  0  0  0  0  0  0
    2.9114   -2.9911   -2.3564 O   0  0  0  0  0  0  0  0  0  0  0  0
    3.5970   -1.9734   -1.7603 C   0  0  0  0  0  0  0  0  0  0  0  0
    3.8532   -2.1022   -0.3261 C   0  0  0  0  0  0  0  0  0  0  0  0
    3.4276   -3.2461    0.3960 C   0  0  0  0  0  0  0  0  0  0  0  0
    3.6835   -3.3486    1.7798 C   0  0  0  0  0  0  0  0  0  0  0  0
    4.3707   -2.2691    2.3846 C   0  0  0  0  0  0  0  0  0  0  0  0
    4.7872   -1.9920    3.6142 N   0  0  0  0  0  0  0  0  0  0  0  0
    5.3940   -0.7543    3.5161 N   0  0  0  0  0  0  0  0  0  0  0  0
    5.3816   -0.2743    2.3117 N   0  0  0  0  0  0  0  0  0  0  0  0
    4.7384   -1.2006    1.5581 N   0  0  0  0  0  0  0  0  0  0  0  0
    4.5185   -1.0679    0.2450 N   0  0  0  0  0  0  0  0  0  0  0  0
    3.9148   -1.0208   -2.6931 C   0  0  0  0  0  0  0  0  0  0  0  0
    3.4217   -0.9938   -4.9022 H   0  0  0  0  0  0  0  0  0  0  0  0
    2.2474   -3.3927   -4.2732 H   0  0  0  0  0  0  0  0  0  0  0  0
    2.9098   -4.0485   -0.1109 H   0  0  0  0  0  0  0  0  0  0  0  0
    3.3808   -4.2045    2.3672 H   0  0  0  0  0  0  0  0  0  0  0  0
    4.4500   -0.1029   -2.4972 H   0  0  0  0  0  0  0  0  0  0  0  0
  1 14  1  0
  1  2  2  0
  1 15  1  0
  2  3  1  0
  2 16  1  0
  3  4  1  0
  4  5  1  0
  4 14  2  0
  5 13  2  0
  5  6  1  0
  6  7  2  0
  6 17  1  0
  7  8  1  0
  7 18  1  0
  8 12  1  0
  8  9  2  0
  9 10  1  0
 10 11  2  0
 11 12  1  0
 12 13  1  0
 14 19  1  0
M  END
>  <i_m_ct_stereo_status>  (238) 
1

>  <s_m_source_file>  (238) 
/var/tmp/pbs.5076255.sched01/tmpo609hgx5/90rinj4u0e.sdf

>  <i_m_source_file_index>  (238) 
7

>  <i_lp_mmshare_version>  (238) 
48012

>  <i_f3d_flags>  (238) 
0

>  <s_epik_input>  (238) 
W2NIXTFbY0hdW2NIXW9jMS1jKFtjSF1bY0hdMilubihjMjMpbm5uMw==

>  <s_epik_cmdline>  (238) 
J2VwaWtfcHl0aG9uJywgJy1waHQnLCAnMi4wJywgJy1waCcsICc3LjAnLCAnLXRuJywgJzgnLCAnLW1hJywgJzIwMCcsICctaW1hZScsICc8aW5maWxlLm1hZT4nLCAnLW9tYWUnLCAnPG91dGZpbGUubWFlPic=

>  <r_lp_tautomer_probability>  (238) 
1

>  <r_epik_Ionization_Penalty>  (238) 
1.3523e-10

>  <r_epik_Ionization_Penalty_Charging>  (238) 
0

>  <r_epik_Ionization_Penalty_Neutral>  (238) 
1.3523e-10

>  <r_epik_State_Penalty>  (238) 
-0

>  <r_epik_Charging_Adjusted_Penalty>  (238) 
0

>  <i_epik_Tot_Q>  (238) 
0

>  <i_epik_Tot_abs_Q>  (238) 
0

>  <s_lp_Force_Field>  (238) 
OPLS3e

>  <r_lp_Energy>  (238) 
15.0585

>  <b_lp_Chiralities_Consistent>  (238) 
1

>  <s_lp_Variant>  (238) 
57:0-1

>  <s_i_glide_gridfile>  (238) 
pfpi4k_grid

>  <i_i_glide_lignum>  (238) 
7

>  <i_i_glide_rotatable_bonds>  (238) 
1

>  <r_i_docking_score>  (238) 
-3.33285

>  <r_i_glide_ligand_efficiency>  (238) 
-0.238061

>  <r_i_glide_ligand_efficiency_sa>  (238) 
-0.573761

>  <r_i_glide_ligand_efficiency_ln>  (238) 
-0.915856

>  <r_i_glide_gscore>  (238) 
-3.33285

>  <r_i_glide_lipo>  (238) 
-0.336859

>  <r_i_glide_hbond>  (238) 
0

>  <r_i_glide_metal>  (238) 
-0

>  <r_i_glide_rewards>  (238) 
-2.24589

>  <r_i_glide_evdw>  (238) 
-20.5422

>  <r_i_glide_ecoul>  (238) 
-1.19241

>  <r_i_glide_erotb>  (238) 
0.455865

>  <r_i_glide_esite>  (238) 
0

>  <r_i_glide_emodel>  (238) 
-26.7926

>  <r_i_glide_energy>  (238) 
-21.7346

>  <r_i_glide_einternal>  (238) 
0.00582127

>  <r_i_glide_intrahb_reward>  (238) 
-0

>  <i_i_glide_confnum>  (238) 
3

>  <i_i_glide_posenum>  (238) 
18

>  <r_i_glide_eff_state_penalty>  (238) 
0

>  <ligand_id>  (238) 
57

>  <original_smiles>  (238) 
c1coc(-c2ccc3nnnn3n2)c1

>  <smiles>  (238) 
[H]c1oc(-c2nn3nnnc3c([H])c2[H])c([H])c1[H]

$$$$
59:0:0
     RDKit          3D

 93100  0  0  1  0  0  0  0  0999 V2000
   -0.3732   -0.1302    4.8073 C   0  0  0  0  0  0  0  0  0  0  0  0
    0.8441   -0.7485    5.2202 O   0  0  0  0  0  0  0  0  0  0  0  0
    0.7498   -2.1410    5.5118 C   0  0  2  0  0  0  0  0  0  0  0  0
    1.9401   -2.6399    6.4759 C   0  0  0  0  0  0  0  0  0  0  0  0
    2.3694   -4.1782    6.5968 C   0  0  1  0  0  0  0  0  0  0  0  0
    0.9245   -4.8344    6.6011 C   0  0  1  0  0  0  0  0  0  0  0  0
   -0.2001   -4.1183    7.1283 O   0  0  0  0  0  0  0  0  0  0  0  0
   -1.3799   -4.8801    7.3925 C   0  0  0  0  0  0  0  0  0  0  0  0
    0.7854   -5.3539    5.1564 C   0  0  1  0  0  0  0  0  0  0  0  0
    1.4284   -4.1248    4.1009 C   0  0  2  0  0  0  0  0  0  0  0  0
    1.5321   -5.1129    3.0000 C   0  0  0  0  0  0  0  0  0  0  0  0
    2.8785   -5.8692    3.3538 C   0  0  0  0  0  0  0  0  0  0  0  0
    3.6948   -5.9443    2.4230 O   0  0  0  0  0  0  0  0  0  0  0  0
    3.2864   -6.3757    4.8466 C   0  0  2  0  0  0  0  0  0  0  0  0
    3.7753   -7.8838    4.4354 C   0  0  1  0  0  0  0  0  0  0  0  0
    4.8151   -8.4920    5.2167 O   0  0  0  0  0  0  0  0  0  0  0  0
    5.4620   -9.6187    4.6153 C   0  0  0  0  0  0  0  0  0  0  0  0
    2.4639   -8.8605    4.0940 C   0  0  1  0  0  0  0  0  0  0  0  0
    1.8560   -9.9468    5.0983 C   0  0  1  0  0  0  0  0  0  0  0  0
    2.8035  -10.6733    5.8482 O   0  0  0  0  0  0  0  0  0  0  0  0
    0.6301   -9.5220    6.0354 C   0  0  0  0  0  0  0  0  0  0  0  0
    0.1171   -7.9999    6.0149 C   0  0  0  0  0  0  0  0  0  0  0  0
    1.0229   -7.0470    5.1735 C   0  0  1  0  0  0  0  0  0  0  0  0
    1.1591   -8.0329    3.8743 C   0  0  1  0  0  0  0  0  0  0  0  0
    0.9002   -7.7672    2.5054 O   0  0  0  0  0  0  0  0  0  0  0  0
    2.3651   -7.0174    5.9021 C   0  0  1  0  0  0  0  0  0  0  0  0
    2.8980   -8.0184    6.9043 N   0  0  0  0  0  0  0  0  0  0  0  0
    2.5845   -8.2914    8.2019 C   0  0  0  0  0  0  0  0  0  0  0  0
    3.3948   -9.3844    8.8912 C   0  0  0  0  0  0  0  0  0  0  0  0
    1.6798   -7.7313    8.8202 O   0  0  0  0  0  0  0  0  0  0  0  0
    3.6747   -5.0359    5.7998 C   0  0  2  0  0  0  0  0  0  0  0  0
    4.5092   -5.5179    6.8566 O   0  0  0  0  0  0  0  0  0  0  0  0
    4.7601   -4.1829    5.0986 C   0  0  0  0  0  0  0  0  0  0  0  0
    4.2558   -3.0377    4.2307 C   0  0  2  0  0  0  0  0  0  0  0  0
    5.0463   -2.7826    2.8961 C   0  0  0  0  0  0  0  0  0  0  0  0
    4.1178   -1.7793    2.1150 C   0  0  1  0  0  0  0  0  0  0  0  0
    3.8082   -2.1914    0.6554 C   0  0  0  0  0  0  0  0  0  0  0  0
    3.4133   -1.0670   -0.1064 O   0  0  0  0  0  0  0  0  0  0  0  0
    2.8722   -1.7050    3.0772 C   0  0  2  0  0  0  0  0  0  0  0  0
    3.4292   -0.8831    4.2130 C   0  0  0  0  0  0  0  0  0  0  0  0
    4.3052   -1.6497    4.8680 C   0  0  0  0  0  0  0  0  0  0  0  0
    5.2463   -1.2259    5.9815 C   0  0  0  0  0  0  0  0  0  0  0  0
    2.8088   -3.1751    3.6582 C   0  0  2  0  0  0  0  0  0  0  0  0
    0.4113   -2.9982    4.2431 C   0  0  0  0  0  0  0  0  0  0  0  0
   -0.1852    0.9088    4.5298 H   0  0  0  0  0  0  0  0  0  0  0  0
   -1.1073   -0.1284    5.6147 H   0  0  0  0  0  0  0  0  0  0  0  0
   -0.8271   -0.6139    3.9412 H   0  0  0  0  0  0  0  0  0  0  0  0
   -0.1480   -2.1408    6.1260 H   0  0  0  0  0  0  0  0  0  0  0  0
    2.7599   -1.9555    6.5623 H   0  0  0  0  0  0  0  0  0  0  0  0
    1.5258   -2.4241    7.4604 H   0  0  0  0  0  0  0  0  0  0  0  0
    2.6806   -4.2182    7.6424 H   0  0  0  0  0  0  0  0  0  0  0  0
    0.8667   -5.5876    7.3783 H   0  0  0  0  0  0  0  0  0  0  0  0
   -2.1168   -4.2470    7.8899 H   0  0  0  0  0  0  0  0  0  0  0  0
   -1.1894   -5.7257    8.0590 H   0  0  0  0  0  0  0  0  0  0  0  0
   -1.8392   -5.2543    6.4774 H   0  0  0  0  0  0  0  0  0  0  0  0
   -0.2770   -5.3653    4.9152 H   0  0  0  0  0  0  0  0  0  0  0  0
    0.6038   -5.6692    2.9577 H   0  0  0  0  0  0  0  0  0  0  0  0
    1.5807   -4.6743    2.0060 H   0  0  0  0  0  0  0  0  0  0  0  0
    4.3198   -7.8285    3.5002 H   0  0  0  0  0  0  0  0  0  0  0  0
    6.2353   -9.9865    5.2917 H   0  0  0  0  0  0  0  0  0  0  0  0
    5.9428   -9.3554    3.6710 H   0  0  0  0  0  0  0  0  0  0  0  0
    4.7883  -10.4534    4.4167 H   0  0  0  0  0  0  0  0  0  0  0  0
    2.7204   -9.4054    3.1859 H   0  0  0  0  0  0  0  0  0  0  0  0
    1.4328  -10.7087    4.4407 H   0  0  0  0  0  0  0  0  0  0  0  0
    2.3412  -11.3597    6.3303 H   0  0  0  0  0  0  0  0  0  0  0  0
   -0.2001  -10.1587    5.7473 H   0  0  0  0  0  0  0  0  0  0  0  0
    0.8061   -9.8554    7.0606 H   0  0  0  0  0  0  0  0  0  0  0  0
   -0.8781   -7.9936    5.5680 H   0  0  0  0  0  0  0  0  0  0  0  0
   -0.0308   -7.6282    7.0270 H   0  0  0  0  0  0  0  0  0  0  0  0
    0.2964   -8.7000    3.8308 H   0  0  0  0  0  0  0  0  0  0  0  0
    0.8401   -8.5864    2.0292 H   0  0  0  0  0  0  0  0  0  0  0  0
    2.3883   -6.4878    6.8024 H   0  0  0  0  0  0  0  0  0  0  0  0
    3.6872   -8.5425    6.5320 H   0  0  0  0  0  0  0  0  0  0  0  0
    4.2377   -9.7178    8.2784 H   0  0  0  0  0  0  0  0  0  0  0  0
    2.7583  -10.2524    9.0918 H   0  0  0  0  0  0  0  0  0  0  0  0
    3.7802   -9.0198    9.8471 H   0  0  0  0  0  0  0  0  0  0  0  0
    4.0327   -6.1776    7.3429 H   0  0  0  0  0  0  0  0  0  0  0  0
    5.4915   -3.7903    5.8083 H   0  0  0  0  0  0  0  0  0  0  0  0
    5.3515   -4.8536    4.4775 H   0  0  0  0  0  0  0  0  0  0  0  0
    6.0280   -2.3414    3.0770 H   0  0  0  0  0  0  0  0  0  0  0  0
    5.2008   -3.7081    2.3381 H   0  0  0  0  0  0  0  0  0  0  0  0
    4.6308   -0.8136    2.0757 H   0  0  0  0  0  0  0  0  0  0  0  0
    4.7161   -2.5913    0.2014 H   0  0  0  0  0  0  0  0  0  0  0  0
    3.0472   -2.9720    0.5769 H   0  0  0  0  0  0  0  0  0  0  0  0
    2.4610   -1.0589   -0.2114 H   0  0  0  0  0  0  0  0  0  0  0  0
    1.9886   -1.2724    2.6196 H   0  0  0  0  0  0  0  0  0  0  0  0
    3.2488    0.1700    4.3675 H   0  0  0  0  0  0  0  0  0  0  0  0
    6.2739   -1.3989    5.6783 H   0  0  0  0  0  0  0  0  0  0  0  0
    5.0522   -1.7956    6.8891 H   0  0  0  0  0  0  0  0  0  0  0  0
    5.1334   -0.1670    6.2055 H   0  0  0  0  0  0  0  0  0  0  0  0
    2.9848   -3.5694    2.6698 H   0  0  0  0  0  0  0  0  0  0  0  0
   -0.5925   -3.3780    4.3744 H   0  0  0  0  0  0  0  0  0  0  0  0
    0.3639   -2.4066    3.3353 H   0  0  0  0  0  0  0  0  0  0  0  0
  1  2  1  0
  1 45  1  0
  1 46  1  0
  1 47  1  0
  2  3  1  0
  3 44  1  0
  3  4  1  0
  3 48  1  1
  4  5  1  0
  4 49  1  0
  4 50  1  0
  5 31  1  0
  5  6  1  0
  5 51  1  1
  6  7  1  0
  6  9  1  0
  6 52  1  1
  7  8  1  0
  8 53  1  0
  8 54  1  0
  8 55  1  0
  9 23  1  0
  9 10  1  0
  9 56  1  6
 10 43  1  0
 10 11  1  0
 10 44  1  6
 11 12  1  0
 11 57  1  0
 11 58  1  0
 12 13  2  0
 14 12  1  6
 14 26  1  0
 14 15  1  0
 14 31  1  0
 15 16  1  0
 15 18  1  0
 15 59  1  6
 16 17  1  0
 17 60  1  0
 17 61  1  0
 17 62  1  0
 18 24  1  0
 18 19  1  0
 18 63  1  6
 19 20  1  0
 19 21  1  0
 19 64  1  6
 20 65  1  0
 21 22  1  0
 21 66  1  0
 21 67  1  0
 23 22  1  1
 22 68  1  0
 22 69  1  0
 23 24  1  0
 23 26  1  0
 24 25  1  0
 24 70  1  1
 25 71  1  0
 26 27  1  0
 26 72  1  1
 27 28  1  0
 27 73  1  0
 28 29  1  0
 28 30  2  0
 29 74  1  0
 29 75  1  0
 29 76  1  0
 31 32  1  1
 31 33  1  0
 32 77  1  0
 33 34  1  0
 33 78  1  0
 33 79  1  0
 34 41  1  0
 34 43  1  0
 34 35  1  6
 35 36  1  0
 35 80  1  0
 35 81  1  0
 36 37  1  0
 36 39  1  0
 36 82  1  6
 37 38  1  0
 37 83  1  0
 37 84  1  0
 38 85  1  0
 39 40  1  0
 39 43  1  0
 39 86  1  6
 40 41  2  0
 40 87  1  0
 41 42  1  0
 42 88  1  0
 42 89  1  0
 42 90  1  0
 43 91  1  6
 44 92  1  0
 44 93  1  0
M  END
>  <i_m_ct_stereo_status>  (239) 
1

>  <s_m_source_file>  (239) 
/var/tmp/pbs.5076255.sched01/tmpo609hgx5/90rinj4u0e.sdf

>  <i_m_source_file_index>  (239) 
9

>  <i_lp_mmshare_version>  (239) 
48012

>  <i_f3d_flags>  (239) 
2

>  <s_epik_input>  (239) 
W09IXVtDSDJdW0NASF0oW0NIMl0xKVtDQEhdKFtDSF09QzJbQ0gzXSlbQ0BIXTNbQ0BAXTEyW0NIMl1bQ0BAXShbT0hdKShbQ0BIXShbQ0BIXTRPW0NIM10pW0NIMl1bQ0BIXShbQ0gyXTUpT1tDSDNdKUMoQyg9TylbQ0gyXTYpKFtDQEBIXTdbTkhdQyg9TylbQ0gzXSlbQ0BASF0oT1tDSDNdKVtDQEhdKFtDQEBIXThbT0hdKVtDQEBIXShbT0hdKVtDSDJdW0NIMl1bQ0BAXTc4W0NAQEhdNFtDQF0zNTY=

>  <s_epik_cmdline>  (239) 
J2VwaWtfcHl0aG9uJywgJy1waHQnLCAnMi4wJywgJy1waCcsICc3LjAnLCAnLXRuJywgJzgnLCAnLW1hJywgJzIwMCcsICctaW1hZScsICc8aW5maWxlLm1hZT4nLCAnLW9tYWUnLCAnPG91dGZpbGUubWFlPic=

>  <r_lp_tautomer_probability>  (239) 
1

>  <r_epik_Ionization_Penalty>  (239) 
1.91366e-06

>  <r_epik_Ionization_Penalty_Charging>  (239) 
0

>  <r_epik_Ionization_Penalty_Neutral>  (239) 
1.91366e-06

>  <r_epik_State_Penalty>  (239) 
-0

>  <r_epik_Charging_Adjusted_Penalty>  (239) 
0

>  <i_epik_Tot_Q>  (239) 
0

>  <i_epik_Tot_abs_Q>  (239) 
0

>  <s_lp_Force_Field>  (239) 
OPLS3e

>  <r_lp_Energy>  (239) 
484.056

>  <b_lp_Chiralities_Consistent>  (239) 
0

>  <s_lp_Variant>  (239) 
59:0-1

>  <s_i_glide_gridfile>  (239) 
pfpi4k_grid

>  <i_i_glide_lignum>  (239) 
9

>  <i_i_glide_rotatable_bonds>  (239) 
10

>  <r_i_docking_score>  (239) 
-2.64213

>  <r_i_glide_ligand_efficiency>  (239) 
-0.0600484

>  <r_i_glide_ligand_efficiency_sa>  (239) 
-0.211992

>  <r_i_glide_ligand_efficiency_ln>  (239) 
-0.552263

>  <r_i_glide_gscore>  (239) 
-2.64213

>  <r_i_glide_lipo>  (239) 
-0.17421

>  <r_i_glide_hbond>  (239) 
-0.152

>  <r_i_glide_metal>  (239) 
-0

>  <r_i_glide_rewards>  (239) 
0

>  <r_i_glide_evdw>  (239) 
-21.1277

>  <r_i_glide_ecoul>  (239) 
-9.03623

>  <r_i_glide_erotb>  (239) 
0.11118

>  <r_i_glide_esite>  (239) 
-0.0152776

>  <r_i_glide_emodel>  (239) 
-32.3899

>  <r_i_glide_energy>  (239) 
-30.164

>  <r_i_glide_einternal>  (239) 
5.4902

>  <r_i_glide_intrahb_reward>  (239) 
-0

>  <i_i_glide_confnum>  (239) 
4

>  <i_i_glide_posenum>  (239) 
36

>  <r_i_glide_eff_state_penalty>  (239) 
0

>  <ligand_id>  (239) 
59

>  <original_smiles>  (239) 
COC1CC2C(OC)C3C4(CC(=O)C5(C(OC)C6C(O)CCC3(C6O)C5NC(C)=O)C2(O)CC23CC(CO)C(C=C2C)C34)C1

>  <smiles>  (239) 
[H]OC([H])([H])C1([H])C([H])([H])C23C(C([H])([H])[H])=C([H])C1([H])C2([H])C12C([H])([H])C(=O)C45C([H])(OC([H])([H])[H])C6([H])C([H])(O[H])C([H])([H])C([H])([H])C(C6([H])O[H])(C4([H])N([H])C(=O)C([H])([H])[H])C1([H])C([H])(OC([H])([H])[H])C([H])(C([H])([H])C([H])(OC([H])([H])[H])C2([H])[H])C5(O[H])C3([H])[H]

$$$$
59:0:1
     RDKit          3D

 93100  0  0  1  0  0  0  0  0999 V2000
    3.0965   -0.1357    5.6223 C   0  0  0  0  0  0  0  0  0  0  0  0
    2.9022   -0.9180    4.4528 O   0  0  0  0  0  0  0  0  0  0  0  0
    2.1481   -2.1090    4.6364 C   0  0  2  0  0  0  0  0  0  0  0  0
    2.8192   -3.1561    5.6789 C   0  0  0  0  0  0  0  0  0  0  0  0
    2.4870   -4.7261    5.6971 C   0  0  1  0  0  0  0  0  0  0  0  0
    0.9237   -4.6279    5.4471 C   0  0  1  0  0  0  0  0  0  0  0  0
    0.1726   -3.4791    5.8574 O   0  0  0  0  0  0  0  0  0  0  0  0
   -0.0883   -3.3304    7.2448 C   0  0  0  0  0  0  0  0  0  0  0  0
    0.8064   -4.9483    3.9499 C   0  0  1  0  0  0  0  0  0  0  0  0
    2.0828   -4.1202    3.1186 C   0  0  2  0  0  0  0  0  0  0  0  0
    1.9052   -5.0111    1.9460 C   0  0  0  0  0  0  0  0  0  0  0  0
    2.7040   -6.3203    2.3428 C   0  0  0  0  0  0  0  0  0  0  0  0
    3.5223   -6.7184    1.5292 O   0  0  0  0  0  0  0  0  0  0  0  0
    2.5878   -7.0088    3.8093 C   0  0  2  0  0  0  0  0  0  0  0  0
    2.4088   -8.5455    3.2798 C   0  0  1  0  0  0  0  0  0  0  0  0
    2.9117   -9.6089    4.1097 O   0  0  0  0  0  0  0  0  0  0  0  0
    3.1053  -10.8758    3.4621 C   0  0  0  0  0  0  0  0  0  0  0  0
    0.8831   -8.7527    2.6379 C   0  0  1  0  0  0  0  0  0  0  0  0
   -0.2911   -9.4695    3.4054 C   0  0  1  0  0  0  0  0  0  0  0  0
    0.2083  -10.5471    4.1426 O   0  0  0  0  0  0  0  0  0  0  0  0
   -1.3338   -8.5962    4.2696 C   0  0  0  0  0  0  0  0  0  0  0  0
   -1.1112   -7.0119    4.3838 C   0  0  0  0  0  0  0  0  0  0  0  0
    0.2416   -6.5461    3.7650 C   0  0  1  0  0  0  0  0  0  0  0  0
    0.1319   -7.4141    2.3804 C   0  0  1  0  0  0  0  0  0  0  0  0
    0.2253   -7.0071    1.0287 O   0  0  0  0  0  0  0  0  0  0  0  0
    1.3160   -7.1754    4.6327 C   0  0  1  0  0  0  0  0  0  0  0  0
    1.1130   -8.3473    5.5690 N   0  0  0  0  0  0  0  0  0  0  0  0
    0.6458   -8.4141    6.8427 C   0  0  0  0  0  0  0  0  0  0  0  0
    0.4440   -9.8286    7.3920 C   0  0  0  0  0  0  0  0  0  0  0  0
    0.2630   -7.4464    7.5121 O   0  0  0  0  0  0  0  0  0  0  0  0
    3.3653   -6.0553    4.9629 C   0  0  2  0  0  0  0  0  0  0  0  0
    3.6903   -6.9186    6.0491 O   0  0  0  0  0  0  0  0  0  0  0  0
    4.7951   -5.7859    4.4883 C   0  0  0  0  0  0  0  0  0  0  0  0
    4.9890   -4.5157    3.6927 C   0  0  2  0  0  0  0  0  0  0  0  0
    5.9989   -4.5983    2.4889 C   0  0  0  0  0  0  0  0  0  0  0  0
    5.7904   -3.2180    1.7607 C   0  0  1  0  0  0  0  0  0  0  0  0
    5.6213   -3.3536    0.2307 C   0  0  0  0  0  0  0  0  0  0  0  0
    5.7704   -2.0811   -0.3705 O   0  0  0  0  0  0  0  0  0  0  0  0
    4.5680   -2.6175    2.5452 C   0  0  2  0  0  0  0  0  0  0  0  0
    5.2459   -2.2331    3.8303 C   0  0  0  0  0  0  0  0  0  0  0  0
    5.4982   -3.3463    4.5135 C   0  0  0  0  0  0  0  0  0  0  0  0
    6.3235   -3.4521    5.8032 C   0  0  0  0  0  0  0  0  0  0  0  0
    3.7754   -3.9244    2.9317 C   0  0  2  0  0  0  0  0  0  0  0  0
    1.6600   -2.6470    3.2422 C   0  0  0  0  0  0  0  0  0  0  0  0
    3.6207    0.7803    5.3474 H   0  0  0  0  0  0  0  0  0  0  0  0
    3.7054   -0.6529    6.3687 H   0  0  0  0  0  0  0  0  0  0  0  0
    2.1452    0.1478    6.0803 H   0  0  0  0  0  0  0  0  0  0  0  0
    1.2542   -1.6774    5.0859 H   0  0  0  0  0  0  0  0  0  0  0  0
    3.8227   -2.9315    5.9868 H   0  0  0  0  0  0  0  0  0  0  0  0
    2.4168   -2.7855    6.6153 H   0  0  0  0  0  0  0  0  0  0  0  0
    2.5900   -4.9515    6.7639 H   0  0  0  0  0  0  0  0  0  0  0  0
    0.3454   -5.3125    6.0599 H   0  0  0  0  0  0  0  0  0  0  0  0
   -0.5518   -2.3576    7.3838 H   0  0  0  0  0  0  0  0  0  0  0  0
    0.8160   -3.3670    7.8472 H   0  0  0  0  0  0  0  0  0  0  0  0
   -0.7761   -4.0948    7.5958 H   0  0  0  0  0  0  0  0  0  0  0  0
   -0.0903   -4.4134    3.6697 H   0  0  0  0  0  0  0  0  0  0  0  0
    0.8525   -5.1012    1.7756 H   0  0  0  0  0  0  0  0  0  0  0  0
    2.2759   -4.5971    1.0106 H   0  0  0  0  0  0  0  0  0  0  0  0
    3.0717   -8.7139    2.4447 H   0  0  0  0  0  0  0  0  0  0  0  0
    3.4648  -11.5858    4.2092 H   0  0  0  0  0  0  0  0  0  0  0  0
    3.8453  -10.8131    2.6585 H   0  0  0  0  0  0  0  0  0  0  0  0
    2.1995  -11.3108    3.0319 H   0  0  0  0  0  0  0  0  0  0  0  0
    1.0211   -9.3302    1.7274 H   0  0  0  0  0  0  0  0  0  0  0  0
   -0.9105   -9.9415    2.6436 H   0  0  0  0  0  0  0  0  0  0  0  0
   -0.5867  -10.9035    4.5499 H   0  0  0  0  0  0  0  0  0  0  0  0
   -2.3266   -8.7531    3.8431 H   0  0  0  0  0  0  0  0  0  0  0  0
   -1.4346   -9.0234    5.2700 H   0  0  0  0  0  0  0  0  0  0  0  0
   -1.9301   -6.5432    3.8367 H   0  0  0  0  0  0  0  0  0  0  0  0
   -1.2188   -6.6743    5.4149 H   0  0  0  0  0  0  0  0  0  0  0  0
   -0.9142   -7.6128    2.1539 H   0  0  0  0  0  0  0  0  0  0  0  0
    0.1718   -7.7881    0.4926 H   0  0  0  0  0  0  0  0  0  0  0  0
    1.4275   -6.7551    5.5751 H   0  0  0  0  0  0  0  0  0  0  0  0
    1.3329   -9.2469    5.1344 H   0  0  0  0  0  0  0  0  0  0  0  0
    0.7465  -10.5548    6.6228 H   0  0  0  0  0  0  0  0  0  0  0  0
   -0.6243   -9.9799    7.6014 H   0  0  0  0  0  0  0  0  0  0  0  0
    1.0295   -9.9821    8.3097 H   0  0  0  0  0  0  0  0  0  0  0  0
    4.1093   -7.6923    5.6957 H   0  0  0  0  0  0  0  0  0  0  0  0
    5.4839   -5.7867    5.3253 H   0  0  0  0  0  0  0  0  0  0  0  0
    5.1199   -6.6269    3.8779 H   0  0  0  0  0  0  0  0  0  0  0  0
    7.0302   -4.7506    2.7978 H   0  0  0  0  0  0  0  0  0  0  0  0
    5.7272   -5.4307    1.8303 H   0  0  0  0  0  0  0  0  0  0  0  0
    6.6732   -2.5999    1.9289 H   0  0  0  0  0  0  0  0  0  0  0  0
    6.4102   -4.0096   -0.1534 H   0  0  0  0  0  0  0  0  0  0  0  0
    4.6654   -3.7993   -0.0714 H   0  0  0  0  0  0  0  0  0  0  0  0
    5.0973   -1.5111   -0.0163 H   0  0  0  0  0  0  0  0  0  0  0  0
    4.0629   -1.7923    2.0504 H   0  0  0  0  0  0  0  0  0  0  0  0
    5.5400   -1.2296    4.0996 H   0  0  0  0  0  0  0  0  0  0  0  0
    7.2112   -4.0826    5.6783 H   0  0  0  0  0  0  0  0  0  0  0  0
    5.7512   -3.8712    6.6319 H   0  0  0  0  0  0  0  0  0  0  0  0
    6.6708   -2.4597    6.1014 H   0  0  0  0  0  0  0  0  0  0  0  0
    3.8986   -4.2895    1.9206 H   0  0  0  0  0  0  0  0  0  0  0  0
    0.5753   -2.5268    3.1591 H   0  0  0  0  0  0  0  0  0  0  0  0
    2.0389   -2.0272    2.4285 H   0  0  0  0  0  0  0  0  0  0  0  0
  1  2  1  0
  1 45  1  0
  1 46  1  0
  1 47  1  0
  2  3  1  0
  3 44  1  0
  3  4  1  0
  3 48  1  1
  4  5  1  0
  4 49  1  0
  4 50  1  0
  5 31  1  0
  5  6  1  0
  5 51  1  1
  6  7  1  0
  6  9  1  0
  6 52  1  1
  7  8  1  0
  8 53  1  0
  8 54  1  0
  8 55  1  0
  9 23  1  0
  9 10  1  0
  9 56  1  6
 10 43  1  0
 10 11  1  0
 10 44  1  6
 11 12  1  0
 11 57  1  0
 11 58  1  0
 12 13  2  0
 14 12  1  6
 14 26  1  0
 14 15  1  0
 14 31  1  0
 15 16  1  0
 15 18  1  0
 15 59  1  6
 16 17  1  0
 17 60  1  0
 17 61  1  0
 17 62  1  0
 18 24  1  0
 18 19  1  0
 18 63  1  6
 19 20  1  0
 19 21  1  0
 19 64  1  6
 20 65  1  0
 21 22  1  0
 21 66  1  0
 21 67  1  0
 23 22  1  1
 22 68  1  0
 22 69  1  0
 23 24  1  0
 23 26  1  0
 24 25  1  0
 24 70  1  6
 25 71  1  0
 26 27  1  0
 26 72  1  1
 27 28  1  0
 27 73  1  0
 28 29  1  0
 28 30  2  0
 29 74  1  0
 29 75  1  0
 29 76  1  0
 31 32  1  1
 31 33  1  0
 32 77  1  0
 33 34  1  0
 33 78  1  0
 33 79  1  0
 34 41  1  0
 34 43  1  0
 34 35  1  6
 35 36  1  0
 35 80  1  0
 35 81  1  0
 36 37  1  0
 36 39  1  0
 36 82  1  6
 37 38  1  0
 37 83  1  0
 37 84  1  0
 38 85  1  0
 39 40  1  0
 39 43  1  0
 39 86  1  6
 40 41  2  0
 40 87  1  0
 41 42  1  0
 42 88  1  0
 42 89  1  0
 42 90  1  0
 43 91  1  6
 44 92  1  0
 44 93  1  0
M  END
>  <i_m_ct_stereo_status>  (240) 
1

>  <s_m_source_file>  (240) 
/var/tmp/pbs.5076255.sched01/tmpo609hgx5/90rinj4u0e.sdf

>  <i_m_source_file_index>  (240) 
9

>  <i_lp_mmshare_version>  (240) 
48012

>  <i_f3d_flags>  (240) 
2

>  <s_epik_input>  (240) 
W09IXVtDSDJdW0NASF0oW0NIMl0xKVtDQEhdKFtDSF09QzJbQ0gzXSlbQ0BIXTNbQ0BAXTEyW0NIMl1bQ0BAXShbT0hdKShbQ0BIXShbQ0BIXTRPW0NIM10pW0NIMl1bQ0BIXShbQ0gyXTUpT1tDSDNdKUMoQyg9TylbQ0gyXTYpKFtDQEBIXTdbTkhdQyg9TylbQ0gzXSlbQ0BASF0oT1tDSDNdKVtDQEhdKFtDQEBIXThbT0hdKVtDQEBIXShbT0hdKVtDSDJdW0NIMl1bQ0BAXTc4W0NAQEhdNFtDQF0zNTY=

>  <s_epik_cmdline>  (240) 
J2VwaWtfcHl0aG9uJywgJy1waHQnLCAnMi4wJywgJy1waCcsICc3LjAnLCAnLXRuJywgJzgnLCAnLW1hJywgJzIwMCcsICctaW1hZScsICc8aW5maWxlLm1hZT4nLCAnLW9tYWUnLCAnPG91dGZpbGUubWFlPic=

>  <r_lp_tautomer_probability>  (240) 
1

>  <r_epik_Ionization_Penalty>  (240) 
1.91366e-06

>  <r_epik_Ionization_Penalty_Charging>  (240) 
0

>  <r_epik_Ionization_Penalty_Neutral>  (240) 
1.91366e-06

>  <r_epik_State_Penalty>  (240) 
-0

>  <r_epik_Charging_Adjusted_Penalty>  (240) 
0

>  <i_epik_Tot_Q>  (240) 
0

>  <i_epik_Tot_abs_Q>  (240) 
0

>  <s_lp_Force_Field>  (240) 
OPLS3e

>  <r_lp_Energy>  (240) 
484.056

>  <b_lp_Chiralities_Consistent>  (240) 
0

>  <s_lp_Variant>  (240) 
59:0-1

>  <s_i_glide_gridfile>  (240) 
pfpi4k_grid

>  <i_i_glide_lignum>  (240) 
9

>  <i_i_glide_rotatable_bonds>  (240) 
10

>  <r_i_docking_score>  (240) 
-2.5993

>  <r_i_glide_ligand_efficiency>  (240) 
-0.059075

>  <r_i_glide_ligand_efficiency_sa>  (240) 
-0.208555

>  <r_i_glide_ligand_efficiency_ln>  (240) 
-0.54331

>  <r_i_glide_gscore>  (240) 
-2.5993

>  <r_i_glide_lipo>  (240) 
-0.275001

>  <r_i_glide_hbond>  (240) 
0

>  <r_i_glide_metal>  (240) 
-0

>  <r_i_glide_rewards>  (240) 
0

>  <r_i_glide_evdw>  (240) 
-21.9415

>  <r_i_glide_ecoul>  (240) 
-8.53565

>  <r_i_glide_erotb>  (240) 
0.11118

>  <r_i_glide_esite>  (240) 
-0.0580534

>  <r_i_glide_emodel>  (240) 
-32.5166

>  <r_i_glide_energy>  (240) 
-30.4772

>  <r_i_glide_einternal>  (240) 
3.97668

>  <r_i_glide_intrahb_reward>  (240) 
-0

>  <i_i_glide_confnum>  (240) 
3

>  <i_i_glide_posenum>  (240) 
34

>  <r_i_glide_eff_state_penalty>  (240) 
0

>  <ligand_id>  (240) 
59

>  <original_smiles>  (240) 
COC1CC2C(OC)C3C4(CC(=O)C5(C(OC)C6C(O)CCC3(C6O)C5NC(C)=O)C2(O)CC23CC(CO)C(C=C2C)C34)C1

>  <smiles>  (240) 
[H]OC([H])([H])C1([H])C([H])([H])C23C(C([H])([H])[H])=C([H])C1([H])C2([H])C12C([H])([H])C(=O)C45C([H])(OC([H])([H])[H])C6([H])C([H])(O[H])C([H])([H])C([H])([H])C(C6([H])O[H])(C4([H])N([H])C(=O)C([H])([H])[H])C1([H])C([H])(OC([H])([H])[H])C([H])(C([H])([H])C([H])(OC([H])([H])[H])C2([H])[H])C5(O[H])C3([H])[H]

$$$$
59:0:2
     RDKit          3D

 93100  0  0  1  0  0  0  0  0999 V2000
    1.4910   -1.3042    8.4374 C   0  0  0  0  0  0  0  0  0  0  0  0
    1.2695   -1.6294    7.0704 O   0  0  0  0  0  0  0  0  0  0  0  0
    1.0813   -3.0118    6.7954 C   0  0  2  0  0  0  0  0  0  0  0  0
    2.3334   -3.9401    7.2161 C   0  0  0  0  0  0  0  0  0  0  0  0
    2.5934   -5.3870    6.5933 C   0  0  1  0  0  0  0  0  0  0  0  0
    1.0873   -5.9059    6.5673 C   0  0  1  0  0  0  0  0  0  0  0  0
    0.0989   -5.4259    7.4838 O   0  0  0  0  0  0  0  0  0  0  0  0
    0.1940   -5.8859    8.8348 C   0  0  0  0  0  0  0  0  0  0  0  0
    0.7157   -5.7179    5.0909 C   0  0  1  0  0  0  0  0  0  0  0  0
    1.3452   -4.1764    4.5788 C   0  0  2  0  0  0  0  0  0  0  0  0
    1.2102   -4.5835    3.1631 C   0  0  0  0  0  0  0  0  0  0  0  0
    2.5029   -5.4728    2.9181 C   0  0  0  0  0  0  0  0  0  0  0  0
    3.1480   -5.1608    1.9120 O   0  0  0  0  0  0  0  0  0  0  0  0
    3.0398   -6.6134    3.9546 C   0  0  2  0  0  0  0  0  0  0  0  0
    3.2978   -7.7969    2.8535 C   0  0  1  0  0  0  0  0  0  0  0  0
    4.3460   -8.7435    3.0942 O   0  0  0  0  0  0  0  0  0  0  0  0
    4.7404   -9.5495    1.9817 C   0  0  0  0  0  0  0  0  0  0  0  0
    1.8522   -8.4632    2.3433 C   0  0  1  0  0  0  0  0  0  0  0  0
    1.2543   -9.8538    2.8649 C   0  0  1  0  0  0  0  0  0  0  0  0
    2.1429  -10.9544    2.9609 O   0  0  0  0  0  0  0  0  0  0  0  0
    0.2208   -9.8242    4.0844 C   0  0  0  0  0  0  0  0  0  0  0  0
   -0.0998   -8.4392    4.8153 C   0  0  0  0  0  0  0  0  0  0  0  0
    0.7801   -7.2437    4.3264 C   0  0  1  0  0  0  0  0  0  0  0  0
    0.6305   -7.5574    2.7176 C   0  0  1  0  0  0  0  0  0  0  0  0
    0.2284   -6.7066    1.6491 O   0  0  0  0  0  0  0  0  0  0  0  0
    2.1930   -7.6137    4.7750 C   0  0  1  0  0  0  0  0  0  0  0  0
    2.6456   -9.0145    5.1247 N   0  0  0  0  0  0  0  0  0  0  0  0
    3.4108   -9.4910    6.1574 C   0  0  0  0  0  0  0  0  0  0  0  0
    3.7510  -11.0063    6.1234 C   0  0  0  0  0  0  0  0  0  0  0  0
    3.7909   -8.7613    7.0499 O   0  0  0  0  0  0  0  0  0  0  0  0
    3.7004   -5.8574    5.3115 C   0  0  2  0  0  0  0  0  0  0  0  0
    4.6806   -6.7130    5.8626 O   0  0  0  0  0  0  0  0  0  0  0  0
    4.7508   -4.8041    4.8745 C   0  0  0  0  0  0  0  0  0  0  0  0
    4.2623   -3.3892    4.6946 C   0  0  2  0  0  0  0  0  0  0  0  0
    4.9057   -2.6138    3.5006 C   0  0  0  0  0  0  0  0  0  0  0  0
    4.0175   -1.3267    3.4031 C   0  0  1  0  0  0  0  0  0  0  0  0
    3.5056   -1.0200    1.9826 C   0  0  0  0  0  0  0  0  0  0  0  0
    2.8547    0.2290    1.9670 O   0  0  0  0  0  0  0  0  0  0  0  0
    2.9156   -1.6293    4.4856 C   0  0  2  0  0  0  0  0  0  0  0  0
    3.7039   -1.4320    5.7625 C   0  0  0  0  0  0  0  0  0  0  0  0
    4.5677   -2.4398    5.8609 C   0  0  0  0  0  0  0  0  0  0  0  0
    5.6779   -2.6164    6.8825 C   0  0  0  0  0  0  0  0  0  0  0  0
    2.7561   -3.1915    4.3605 C   0  0  2  0  0  0  0  0  0  0  0  0
    0.4759   -3.1902    5.3601 C   0  0  0  0  0  0  0  0  0  0  0  0
    1.5515   -0.2221    8.5370 H   0  0  0  0  0  0  0  0  0  0  0  0
    2.4305   -1.7123    8.8082 H   0  0  0  0  0  0  0  0  0  0  0  0
    0.6826   -1.6508    9.0829 H   0  0  0  0  0  0  0  0  0  0  0  0
    0.2467   -3.2034    7.4708 H   0  0  0  0  0  0  0  0  0  0  0  0
    3.2380   -3.4243    7.4377 H   0  0  0  0  0  0  0  0  0  0  0  0
    2.1115   -4.1141    8.2627 H   0  0  0  0  0  0  0  0  0  0  0  0
    3.0321   -5.9149    7.4318 H   0  0  0  0  0  0  0  0  0  0  0  0
    0.9553   -6.9374    6.8902 H   0  0  0  0  0  0  0  0  0  0  0  0
   -0.5347   -5.3429    9.4355 H   0  0  0  0  0  0  0  0  0  0  0  0
    1.1707   -5.7174    9.2879 H   0  0  0  0  0  0  0  0  0  0  0  0
   -0.0259   -6.9510    8.9250 H   0  0  0  0  0  0  0  0  0  0  0  0
   -0.3656   -5.5915    5.0695 H   0  0  0  0  0  0  0  0  0  0  0  0
    0.2377   -5.0283    3.0369 H   0  0  0  0  0  0  0  0  0  0  0  0
    1.1790   -3.7281    2.4890 H   0  0  0  0  0  0  0  0  0  0  0  0
    3.7180   -7.3454    1.9631 H   0  0  0  0  0  0  0  0  0  0  0  0
    5.5533  -10.2075    2.2962 H   0  0  0  0  0  0  0  0  0  0  0  0
    5.1217   -8.9414    1.1565 H   0  0  0  0  0  0  0  0  0  0  0  0
    3.9290  -10.1898    1.6220 H   0  0  0  0  0  0  0  0  0  0  0  0
    1.9274   -8.5606    1.2609 H   0  0  0  0  0  0  0  0  0  0  0  0
    0.6305  -10.1740    2.0293 H   0  0  0  0  0  0  0  0  0  0  0  0
    2.8154  -10.7950    3.6218 H   0  0  0  0  0  0  0  0  0  0  0  0
   -0.7140  -10.2235    3.6863 H   0  0  0  0  0  0  0  0  0  0  0  0
    0.5349  -10.5404    4.8382 H   0  0  0  0  0  0  0  0  0  0  0  0
   -1.1400   -8.2047    4.6022 H   0  0  0  0  0  0  0  0  0  0  0  0
   -0.0420   -8.5820    5.8942 H   0  0  0  0  0  0  0  0  0  0  0  0
   -0.3006   -8.1077    2.5412 H   0  0  0  0  0  0  0  0  0  0  0  0
    0.0914   -7.2530    0.8770 H   0  0  0  0  0  0  0  0  0  0  0  0
    2.3504   -7.5227    5.7975 H   0  0  0  0  0  0  0  0  0  0  0  0
    2.2428   -9.6903    4.5027 H   0  0  0  0  0  0  0  0  0  0  0  0
    3.2905  -11.5773    5.3056 H   0  0  0  0  0  0  0  0  0  0  0  0
    3.4295  -11.4609    7.0597 H   0  0  0  0  0  0  0  0  0  0  0  0
    4.8336  -11.1455    6.0636 H   0  0  0  0  0  0  0  0  0  0  0  0
    4.2132   -7.5339    6.2132 H   0  0  0  0  0  0  0  0  0  0  0  0
    5.6037   -4.7574    5.5477 H   0  0  0  0  0  0  0  0  0  0  0  0
    5.1830   -5.1519    3.9385 H   0  0  0  0  0  0  0  0  0  0  0  0
    5.9352   -2.3504    3.7000 H   0  0  0  0  0  0  0  0  0  0  0  0
    4.8845   -3.2002    2.5795 H   0  0  0  0  0  0  0  0  0  0  0  0
    4.6220   -0.4781    3.7230 H   0  0  0  0  0  0  0  0  0  0  0  0
    4.3536   -0.9957    1.2979 H   0  0  0  0  0  0  0  0  0  0  0  0
    2.8174   -1.7774    1.5985 H   0  0  0  0  0  0  0  0  0  0  0  0
    3.4997    0.9160    2.1195 H   0  0  0  0  0  0  0  0  0  0  0  0
    2.0339   -1.0014    4.4233 H   0  0  0  0  0  0  0  0  0  0  0  0
    3.6645   -0.5552    6.3969 H   0  0  0  0  0  0  0  0  0  0  0  0
    6.6432   -2.6899    6.3849 H   0  0  0  0  0  0  0  0  0  0  0  0
    5.5226   -3.5228    7.4664 H   0  0  0  0  0  0  0  0  0  0  0  0
    5.7045   -1.7707    7.5713 H   0  0  0  0  0  0  0  0  0  0  0  0
    2.7741   -3.1172    3.2809 H   0  0  0  0  0  0  0  0  0  0  0  0
   -0.5545   -3.5317    5.4333 H   0  0  0  0  0  0  0  0  0  0  0  0
    0.3893   -2.2388    4.8486 H   0  0  0  0  0  0  0  0  0  0  0  0
  1  2  1  0
  1 45  1  0
  1 46  1  0
  1 47  1  0
  2  3  1  0
  3 44  1  0
  3  4  1  0
  3 48  1  1
  4  5  1  0
  4 49  1  0
  4 50  1  0
  5 31  1  0
  5  6  1  0
  5 51  1  1
  6  7  1  0
  6  9  1  0
  6 52  1  6
  7  8  1  0
  8 53  1  0
  8 54  1  0
  8 55  1  0
  9 23  1  0
  9 10  1  0
  9 56  1  1
 10 43  1  0
 10 11  1  0
 10 44  1  6
 11 12  1  0
 11 57  1  0
 11 58  1  0
 12 13  2  0
 14 12  1  6
 14 26  1  0
 14 15  1  0
 14 31  1  0
 15 16  1  0
 15 18  1  0
 15 59  1  6
 16 17  1  0
 17 60  1  0
 17 61  1  0
 17 62  1  0
 18 24  1  0
 18 19  1  0
 18 63  1  6
 19 20  1  0
 19 21  1  0
 19 64  1  6
 20 65  1  0
 21 22  1  0
 21 66  1  0
 21 67  1  0
 23 22  1  1
 22 68  1  0
 22 69  1  0
 23 24  1  0
 23 26  1  0
 24 25  1  0
 24 70  1  1
 25 71  1  0
 26 27  1  0
 26 72  1  1
 27 28  1  0
 27 73  1  0
 28 29  1  0
 28 30  2  0
 29 74  1  0
 29 75  1  0
 29 76  1  0
 31 32  1  1
 31 33  1  0
 32 77  1  0
 33 34  1  0
 33 78  1  0
 33 79  1  0
 34 41  1  0
 34 43  1  0
 34 35  1  6
 35 36  1  0
 35 80  1  0
 35 81  1  0
 36 37  1  0
 36 39  1  0
 36 82  1  1
 37 38  1  0
 37 83  1  0
 37 84  1  0
 38 85  1  0
 39 40  1  0
 39 43  1  0
 39 86  1  1
 40 41  2  0
 40 87  1  0
 41 42  1  0
 42 88  1  0
 42 89  1  0
 42 90  1  0
 43 91  1  6
 44 92  1  0
 44 93  1  0
M  END
>  <i_m_ct_stereo_status>  (241) 
1

>  <s_m_source_file>  (241) 
/var/tmp/pbs.5076255.sched01/tmpo609hgx5/90rinj4u0e.sdf

>  <i_m_source_file_index>  (241) 
9

>  <i_lp_mmshare_version>  (241) 
48012

>  <i_f3d_flags>  (241) 
2

>  <s_epik_input>  (241) 
W09IXVtDSDJdW0NASF0oW0NIMl0xKVtDQEhdKFtDSF09QzJbQ0gzXSlbQ0BIXTNbQ0BAXTEyW0NIMl1bQ0BAXShbT0hdKShbQ0BIXShbQ0BIXTRPW0NIM10pW0NIMl1bQ0BIXShbQ0gyXTUpT1tDSDNdKUMoQyg9TylbQ0gyXTYpKFtDQEBIXTdbTkhdQyg9TylbQ0gzXSlbQ0BASF0oT1tDSDNdKVtDQEhdKFtDQEBIXThbT0hdKVtDQEBIXShbT0hdKVtDSDJdW0NIMl1bQ0BAXTc4W0NAQEhdNFtDQF0zNTY=

>  <s_epik_cmdline>  (241) 
J2VwaWtfcHl0aG9uJywgJy1waHQnLCAnMi4wJywgJy1waCcsICc3LjAnLCAnLXRuJywgJzgnLCAnLW1hJywgJzIwMCcsICctaW1hZScsICc8aW5maWxlLm1hZT4nLCAnLW9tYWUnLCAnPG91dGZpbGUubWFlPic=

>  <r_lp_tautomer_probability>  (241) 
1

>  <r_epik_Ionization_Penalty>  (241) 
1.91366e-06

>  <r_epik_Ionization_Penalty_Charging>  (241) 
0

>  <r_epik_Ionization_Penalty_Neutral>  (241) 
1.91366e-06

>  <r_epik_State_Penalty>  (241) 
-0

>  <r_epik_Charging_Adjusted_Penalty>  (241) 
0

>  <i_epik_Tot_Q>  (241) 
0

>  <i_epik_Tot_abs_Q>  (241) 
0

>  <s_lp_Force_Field>  (241) 
OPLS3e

>  <r_lp_Energy>  (241) 
484.056

>  <b_lp_Chiralities_Consistent>  (241) 
0

>  <s_lp_Variant>  (241) 
59:0-1

>  <s_i_glide_gridfile>  (241) 
pfpi4k_grid

>  <i_i_glide_lignum>  (241) 
9

>  <i_i_glide_rotatable_bonds>  (241) 
10

>  <r_i_docking_score>  (241) 
-2.35214

>  <r_i_glide_ligand_efficiency>  (241) 
-0.0534578

>  <r_i_glide_ligand_efficiency_sa>  (241) 
-0.188725

>  <r_i_glide_ligand_efficiency_ln>  (241) 
-0.491649

>  <r_i_glide_gscore>  (241) 
-2.35214

>  <r_i_glide_lipo>  (241) 
-0.167476

>  <r_i_glide_hbond>  (241) 
0

>  <r_i_glide_metal>  (241) 
-0

>  <r_i_glide_rewards>  (241) 
-0.5

>  <r_i_glide_evdw>  (241) 
-24.9715

>  <r_i_glide_ecoul>  (241) 
-3.36972

>  <r_i_glide_erotb>  (241) 
0.11118

>  <r_i_glide_esite>  (241) 
-0.0418156

>  <r_i_glide_emodel>  (241) 
-34.0071

>  <r_i_glide_energy>  (241) 
-28.3412

>  <r_i_glide_einternal>  (241) 
3.85151

>  <r_i_glide_intrahb_reward>  (241) 
-0.5

>  <i_i_glide_confnum>  (241) 
4

>  <i_i_glide_posenum>  (241) 
24

>  <r_i_glide_eff_state_penalty>  (241) 
0

>  <ligand_id>  (241) 
59

>  <original_smiles>  (241) 
COC1CC2C(OC)C3C4(CC(=O)C5(C(OC)C6C(O)CCC3(C6O)C5NC(C)=O)C2(O)CC23CC(CO)C(C=C2C)C34)C1

>  <smiles>  (241) 
[H]OC([H])([H])C1([H])C([H])([H])C23C(C([H])([H])[H])=C([H])C1([H])C2([H])C12C([H])([H])C(=O)C45C([H])(OC([H])([H])[H])C6([H])C([H])(O[H])C([H])([H])C([H])([H])C(C6([H])O[H])(C4([H])N([H])C(=O)C([H])([H])[H])C1([H])C([H])(OC([H])([H])[H])C([H])(C([H])([H])C([H])(OC([H])([H])[H])C2([H])[H])C5(O[H])C3([H])[H]

$$$$
60:0:0
     RDKit          3D

 72 78  0  0  1  0  0  0  0  0999 V2000
    1.8314   -6.1155    0.4094 C   0  0  0  0  0  0  0  0  0  0  0  0
    2.0171   -5.4474    1.6395 O   0  0  0  0  0  0  0  0  0  0  0  0
    3.2260   -5.7558    2.3520 C   0  0  2  0  0  0  0  0  0  0  0  0
    3.2438   -5.0054    3.7425 C   0  0  2  0  0  0  0  0  0  0  0  0
    2.9192   -3.5257    3.6283 C   0  0  0  0  0  0  0  0  0  0  0  0
    3.6380   -2.8246    2.4956 C   0  0  0  0  0  0  0  0  0  0  0  0
    3.5407   -1.4300    2.4698 C   0  0  0  0  0  0  0  0  0  0  0  0
    4.1107   -0.7032    1.4108 C   0  0  0  0  0  0  0  0  0  0  0  0
    4.7420   -1.3877    0.3615 C   0  0  0  0  0  0  0  0  0  0  0  0
    5.2934   -0.7289   -0.6962 O   0  0  0  0  0  0  0  0  0  0  0  0
    4.8376   -2.7966    0.3987 C   0  0  0  0  0  0  0  0  0  0  0  0
    4.2982   -3.5522    1.4748 C   0  0  0  0  0  0  0  0  0  0  0  0
    4.4819   -5.0909    1.5368 C   0  0  2  0  0  0  0  0  0  0  0  0
    5.8673   -5.4934    0.6316 C   0  0  1  0  0  0  0  0  0  0  0  0
    7.4306   -5.1550    1.0416 C   0  0  0  0  0  0  0  0  0  0  0  0
    7.9944   -5.8107    2.4576 C   0  0  0  0  0  0  0  0  0  0  0  0
    7.0627   -6.2929    3.7499 C   0  0  0  0  0  0  0  0  0  0  0  0
    5.4616   -6.2608    3.6766 C   0  0  2  0  0  0  0  0  0  0  0  0
    4.6169   -5.2393    4.4996 C   0  0  0  0  0  0  0  0  0  0  0  0
    4.6331   -7.5629    3.6537 C   0  0  0  0  0  0  0  0  0  0  0  0
    3.2619   -7.2823    2.8937 C   0  0  1  0  0  0  0  0  0  0  0  0
    2.1090   -7.7745    3.7041 N   0  0  0  0  0  0  0  0  0  0  0  0
    0.7732   -7.4974    3.1511 C   0  0  0  0  0  0  0  0  0  0  0  0
   -0.3955   -8.0252    3.9724 C   0  0  1  0  0  0  0  0  0  0  0  0
   -1.7079   -7.7684    3.2226 C   0  0  0  0  0  0  0  0  0  0  0  0
   -0.1905   -9.4200    4.1539 O   0  0  0  0  0  0  0  0  0  0  0  0
    1.0415   -9.7938    4.7780 C   0  0  0  0  0  0  0  0  0  0  0  0
    1.1077   -9.2730    6.2306 C   0  0  0  0  0  0  0  0  0  0  0  0
    1.0937  -11.3332    4.7799 C   0  0  0  0  0  0  0  0  0  0  0  0
    2.1980   -9.2241    3.9205 C   0  0  0  0  0  0  0  0  0  0  0  0
    5.4353   -5.7639    2.3678 C   0  0  1  0  0  0  0  0  0  0  0  0
    5.7154   -6.7965    1.1646 C   0  0  1  0  0  0  0  0  0  0  0  0
    4.7498   -7.5574    0.4686 O   0  0  0  0  0  0  0  0  0  0  0  0
    0.8576   -5.8543    0.0029 H   0  0  0  0  0  0  0  0  0  0  0  0
    1.8223   -7.1903    0.5296 H   0  0  0  0  0  0  0  0  0  0  0  0
    2.5996   -5.8375   -0.3123 H   0  0  0  0  0  0  0  0  0  0  0  0
    2.4719   -5.4218    4.3857 H   0  0  0  0  0  0  0  0  0  0  0  0
    1.8499   -3.4318    3.4239 H   0  0  0  0  0  0  0  0  0  0  0  0
    3.1040   -3.0132    4.5739 H   0  0  0  0  0  0  0  0  0  0  0  0
    3.0240   -0.8937    3.2667 H   0  0  0  0  0  0  0  0  0  0  0  0
    4.0446    0.3772    1.4170 H   0  0  0  0  0  0  0  0  0  0  0  0
    5.1095    0.2183   -0.6582 H   0  0  0  0  0  0  0  0  0  0  0  0
    5.3153   -3.2848   -0.4323 H   0  0  0  0  0  0  0  0  0  0  0  0
    5.6589   -5.4620   -0.4363 H   0  0  0  0  0  0  0  0  0  0  0  0
    8.0890   -5.4931    0.2514 H   0  0  0  0  0  0  0  0  0  0  0  0
    7.5717   -4.0768    1.0810 H   0  0  0  0  0  0  0  0  0  0  0  0
    8.5720   -6.6925    2.1709 H   0  0  0  0  0  0  0  0  0  0  0  0
    8.7614   -5.1328    2.8404 H   0  0  0  0  0  0  0  0  0  0  0  0
    7.3635   -7.3113    3.9957 H   0  0  0  0  0  0  0  0  0  0  0  0
    7.3699   -5.6849    4.6015 H   0  0  0  0  0  0  0  0  0  0  0  0
    5.1641   -4.2959    4.5958 H   0  0  0  0  0  0  0  0  0  0  0  0
    4.4521   -5.6034    5.5159 H   0  0  0  0  0  0  0  0  0  0  0  0
    5.1780   -8.3782    3.1721 H   0  0  0  0  0  0  0  0  0  0  0  0
    4.4768   -7.8756    4.6890 H   0  0  0  0  0  0  0  0  0  0  0  0
    3.2389   -7.9417    2.0421 H   0  0  0  0  0  0  0  0  0  0  0  0
    0.5921   -6.4317    3.0992 H   0  0  0  0  0  0  0  0  0  0  0  0
    0.6851   -7.9704    2.1784 H   0  0  0  0  0  0  0  0  0  0  0  0
   -0.4604   -7.5012    4.9253 H   0  0  0  0  0  0  0  0  0  0  0  0
   -1.8590   -6.7004    3.1077 H   0  0  0  0  0  0  0  0  0  0  0  0
   -2.5511   -8.1613    3.7783 H   0  0  0  0  0  0  0  0  0  0  0  0
   -1.7252   -8.2094    2.2265 H   0  0  0  0  0  0  0  0  0  0  0  0
    2.0084   -9.6152    6.7330 H   0  0  0  0  0  0  0  0  0  0  0  0
    0.2573   -9.6426    6.7903 H   0  0  0  0  0  0  0  0  0  0  0  0
    1.1146   -8.1875    6.3115 H   0  0  0  0  0  0  0  0  0  0  0  0
    2.0116  -11.6879    5.2441 H   0  0  0  0  0  0  0  0  0  0  0  0
    1.0427  -11.7659    3.7817 H   0  0  0  0  0  0  0  0  0  0  0  0
    0.2665  -11.7374    5.3545 H   0  0  0  0  0  0  0  0  0  0  0  0
    2.1977   -9.7137    2.9384 H   0  0  0  0  0  0  0  0  0  0  0  0
    3.1472   -9.5163    4.3919 H   0  0  0  0  0  0  0  0  0  0  0  0
    5.8962   -4.7812    2.6243 H   0  0  0  0  0  0  0  0  0  0  0  0
    6.6015   -7.4208    1.2234 H   0  0  0  0  0  0  0  0  0  0  0  0
    4.5867   -8.3471    0.9669 H   0  0  0  0  0  0  0  0  0  0  0  0
  1  2  1  0
  1 34  1  0
  1 35  1  0
  1 36  1  0
  3  2  1  6
  3 13  1  0
  3 21  1  0
  3  4  1  0
  4 19  1  0
  4  5  1  0
  4 37  1  1
  5  6  1  0
  5 38  1  0
  5 39  1  0
  6 12  2  0
  6  7  1  0
  7  8  2  0
  7 40  1  0
  8  9  1  0
  8 41  1  0
  9 10  1  0
  9 11  2  0
 10 42  1  0
 11 12  1  0
 11 43  1  0
 13 12  1  1
 13 31  1  0
 13 14  1  0
 14 32  1  0
 14 15  1  0
 14 44  1  6
 15 16  1  0
 15 45  1  0
 15 46  1  0
 16 17  1  0
 16 47  1  0
 16 48  1  0
 18 17  1  1
 17 49  1  0
 17 50  1  0
 18 19  1  0
 18 20  1  0
 18 31  1  0
 19 51  1  0
 19 52  1  0
 20 21  1  0
 20 53  1  0
 20 54  1  0
 21 22  1  0
 21 55  1  6
 22 30  1  0
 22 23  1  0
 23 24  1  0
 23 56  1  0
 23 57  1  0
 24 25  1  0
 24 26  1  0
 24 58  1  1
 25 59  1  0
 25 60  1  0
 25 61  1  0
 26 27  1  0
 27 28  1  0
 27 29  1  0
 27 30  1  0
 28 62  1  0
 28 63  1  0
 28 64  1  0
 29 65  1  0
 29 66  1  0
 29 67  1  0
 30 68  1  0
 30 69  1  0
 31 32  1  0
 31 70  1  1
 32 33  1  0
 32 71  1  1
 33 72  1  0
M  END
>  <i_m_ct_stereo_status>  (242) 
1

>  <s_m_source_file>  (242) 
/var/tmp/pbs.5076255.sched01/tmpo609hgx5/90rinj4u0e.sdf

>  <i_m_source_file_index>  (242) 
10

>  <i_lp_mmshare_version>  (242) 
48012

>  <i_f3d_flags>  (242) 
0

>  <s_epik_input>  (242) 
W2NIXTFbY0hdYyhbT0hdKVtjSF1jMmMxW0NIMl1bQ0BASF0oW0NAXTMoW0NAXTI0NSlPW0NIM10pW0NIMl1bQ0BdNihbQ0BIXTVbQ0BASF0oW09IXSlbQ0BASF00W0NIMl1bQ0gyXVtDSDJdNilbQ0gyXVtDQEhdM04oW0NIMl03KVtDSDJdW0NAQEhdKFtDSDNdKU9DNyhbQ0gzXSlbQ0gzXQ==

>  <s_epik_cmdline>  (242) 
J2VwaWtfcHl0aG9uJywgJy1waHQnLCAnMi4wJywgJy1waCcsICc3LjAnLCAnLXRuJywgJzgnLCAnLW1hJywgJzIwMCcsICctaW1hZScsICc8aW5maWxlLm1hZT4nLCAnLW9tYWUnLCAnPG91dGZpbGUubWFlPic=

>  <r_lp_tautomer_probability>  (242) 
1

>  <r_epik_Ionization_Penalty>  (242) 
0.122111

>  <r_epik_Ionization_Penalty_Charging>  (242) 
0

>  <r_epik_Ionization_Penalty_Neutral>  (242) 
0.122111

>  <r_epik_State_Penalty>  (242) 
0.111426

>  <r_epik_Charging_Adjusted_Penalty>  (242) 
0.111426

>  <i_epik_Tot_Q>  (242) 
0

>  <i_epik_Tot_abs_Q>  (242) 
0

>  <s_lp_Force_Field>  (242) 
OPLS3e

>  <r_lp_Energy>  (242) 
299.894

>  <b_lp_Chiralities_Consistent>  (242) 
1

>  <s_lp_Variant>  (242) 
60:0-1

>  <s_i_glide_gridfile>  (242) 
pfpi4k_grid

>  <i_i_glide_lignum>  (242) 
10

>  <i_i_glide_rotatable_bonds>  (242) 
4

>  <r_i_docking_score>  (242) 
-2.58457

>  <r_i_glide_ligand_efficiency>  (242) 
-0.0783202

>  <r_i_glide_ligand_efficiency_sa>  (242) 
-0.251215

>  <r_i_glide_ligand_efficiency_ln>  (242) 
-0.574794

>  <r_i_glide_gscore>  (242) 
-2.58457

>  <r_i_glide_lipo>  (242) 
-0.447875

>  <r_i_glide_hbond>  (242) 
-0.325469

>  <r_i_glide_metal>  (242) 
-0

>  <r_i_glide_rewards>  (242) 
-0.316271

>  <r_i_glide_evdw>  (242) 
-25.6926

>  <r_i_glide_ecoul>  (242) 
-2.05255

>  <r_i_glide_erotb>  (242) 
0.0975603

>  <r_i_glide_esite>  (242) 
0

>  <r_i_glide_emodel>  (242) 
-31.1859

>  <r_i_glide_energy>  (242) 
-27.7451

>  <r_i_glide_einternal>  (242) 
0.863596

>  <r_i_glide_intrahb_reward>  (242) 
-0

>  <i_i_glide_confnum>  (242) 
3

>  <i_i_glide_posenum>  (242) 
37

>  <r_i_glide_eff_state_penalty>  (242) 
0

>  <ligand_id>  (242) 
60

>  <original_smiles>  (242) 
COC12C3Cc4ccc(O)cc4C14C1CCCC(C3)(CC2N2CC(C)OC(C)(C)C2)C4C1O

>  <smiles>  (242) 
[H]Oc1c([H])c([H])c2c(c1[H])C13C4([H])C([H])([H])C([H])([H])C([H])([H])C5(C([H])([H])C([H])(N6C([H])([H])C([H])(C([H])([H])[H])OC(C([H])([H])[H])(C([H])([H])[H])C6([H])[H])C1(OC([H])([H])[H])C([H])(C2([H])[H])C5([H])[H])C3([H])C4([H])O[H]

$$$$
61:0:0
     RDKit          3D

 60 64  0  0  1  0  0  0  0  0999 V2000
    3.6342   -0.9661   -4.1211 C   0  0  0  0  0  0  0  0  0  0  0  0
    3.7317   -1.5455   -2.6974 C   0  0  2  0  0  0  0  0  0  0  0  0
    4.7998   -0.8238   -1.8765 C   0  0  0  0  0  0  0  0  0  0  0  0
    4.8501   -1.2978   -0.4172 C   0  0  0  0  0  0  0  0  0  0  0  0
    5.1178   -2.8390   -0.2852 C   0  0  2  0  0  0  0  0  0  0  0  0
    6.5784   -3.2537   -0.7163 C   0  0  1  0  0  0  0  0  0  0  0  0
    7.5241   -2.2043   -0.7264 O   0  0  0  0  0  0  0  0  0  0  0  0
    7.0797   -4.3196    0.2759 C   0  0  0  0  0  0  0  0  0  0  0  0
    5.8437   -4.6742    1.0923 C   0  0  1  0  0  0  0  0  0  0  0  0
    6.0369   -5.3348    2.4578 C   0  0  0  0  0  0  0  0  0  0  0  0
    4.6728   -5.6641    3.1047 C   0  0  0  0  0  0  0  0  0  0  0  0
    3.4368   -5.0987    2.3368 C   0  0  1  0  0  0  0  0  0  0  0  0
    2.1545   -5.3393    3.0698 N   0  0  1  0  0  0  0  0  0  0  0  0
    1.8727   -6.7627    3.3806 C   0  0  0  0  0  0  0  0  0  0  0  0
    1.9511   -4.4669    4.2503 C   0  0  0  0  0  0  0  0  0  0  0  0
    2.0815   -2.9846    3.8759 C   0  0  0  0  0  0  0  0  0  0  0  0
    3.4205   -2.7171    3.1673 C   0  0  0  0  0  0  0  0  0  0  0  0
    3.6276   -3.5914    1.8853 C   0  0  2  0  0  0  0  0  0  0  0  0
    2.5209   -3.1730    0.8966 C   0  0  0  0  0  0  0  0  0  0  0  0
    2.6899   -3.6726   -0.5373 C   0  0  0  0  0  0  0  0  0  0  0  0
    1.7244   -4.1605   -1.1193 O   0  0  0  0  0  0  0  0  0  0  0  0
    4.0858   -3.6013   -1.1975 C   0  0  1  0  0  0  0  0  0  0  0  0
    4.0716   -3.0398   -2.6617 C   0  0  1  0  0  0  0  0  0  0  0  0
    3.2375   -3.7467   -3.5532 O   0  0  0  0  0  0  0  0  0  0  0  0
    5.0468   -3.3631    1.1995 C   0  0  2  0  0  0  0  0  0  0  0  0
    5.8147   -2.4760    2.0034 O   0  0  0  0  0  0  0  0  0  0  0  0
    4.5461   -1.1285   -4.6955 H   0  0  0  0  0  0  0  0  0  0  0  0
    3.4381    0.1061   -4.0874 H   0  0  0  0  0  0  0  0  0  0  0  0
    2.8023   -1.4155   -4.6646 H   0  0  0  0  0  0  0  0  0  0  0  0
    2.7584   -1.3794   -2.2328 H   0  0  0  0  0  0  0  0  0  0  0  0
    5.7841   -0.9511   -2.3244 H   0  0  0  0  0  0  0  0  0  0  0  0
    4.5699    0.2288   -1.9165 H   0  0  0  0  0  0  0  0  0  0  0  0
    5.6102   -0.7190    0.1048 H   0  0  0  0  0  0  0  0  0  0  0  0
    3.9105   -1.0112    0.0480 H   0  0  0  0  0  0  0  0  0  0  0  0
    6.6023   -3.6626   -1.7237 H   0  0  0  0  0  0  0  0  0  0  0  0
    8.3771   -2.5862   -0.8815 H   0  0  0  0  0  0  0  0  0  0  0  0
    7.4772   -5.1953   -0.2257 H   0  0  0  0  0  0  0  0  0  0  0  0
    7.8745   -3.9401    0.9221 H   0  0  0  0  0  0  0  0  0  0  0  0
    5.2936   -5.3914    0.4803 H   0  0  0  0  0  0  0  0  0  0  0  0
    6.6418   -6.2395    2.3555 H   0  0  0  0  0  0  0  0  0  0  0  0
    6.5905   -4.6658    3.1163 H   0  0  0  0  0  0  0  0  0  0  0  0
    4.5951   -6.7503    3.1503 H   0  0  0  0  0  0  0  0  0  0  0  0
    4.6882   -5.3159    4.1379 H   0  0  0  0  0  0  0  0  0  0  0  0
    3.3358   -5.7005    1.4349 H   0  0  0  0  0  0  0  0  0  0  0  0
    2.5178   -7.1312    4.1816 H   0  0  0  0  0  0  0  0  0  0  0  0
    2.0087   -7.3962    2.5017 H   0  0  0  0  0  0  0  0  0  0  0  0
    0.8398   -6.8782    3.7142 H   0  0  0  0  0  0  0  0  0  0  0  0
    0.9480   -4.6313    4.6482 H   0  0  0  0  0  0  0  0  0  0  0  0
    2.6521   -4.7202    5.0509 H   0  0  0  0  0  0  0  0  0  0  0  0
    1.2403   -2.6677    3.2537 H   0  0  0  0  0  0  0  0  0  0  0  0
    2.0221   -2.3850    4.7877 H   0  0  0  0  0  0  0  0  0  0  0  0
    3.4887   -1.6529    2.9329 H   0  0  0  0  0  0  0  0  0  0  0  0
    4.2117   -2.9326    3.8911 H   0  0  0  0  0  0  0  0  0  0  0  0
    1.5950   -3.5722    1.2929 H   0  0  0  0  0  0  0  0  0  0  0  0
    2.3778   -2.0910    0.8824 H   0  0  0  0  0  0  0  0  0  0  0  0
    4.3950   -4.6424   -1.2783 H   0  0  0  0  0  0  0  0  0  0  0  0
    5.0604   -3.1705   -3.0994 H   0  0  0  0  0  0  0  0  0  0  0  0
    3.0100   -4.5792   -3.1460 H   0  0  0  0  0  0  0  0  0  0  0  0
    5.3700   -1.6448    2.0208 H   0  0  0  0  0  0  0  0  0  0  0  0
    1.4364   -5.0634    2.4191 H   0  0  0  0  0  0  0  0  0  0  0  0
  1  2  1  0
  1 27  1  0
  1 28  1  0
  1 29  1  0
  2 23  1  0
  2  3  1  0
  2 30  1  1
  3  4  1  0
  3 31  1  0
  3 32  1  0
  5  4  1  1
  4 33  1  0
  4 34  1  0
  5 22  1  0
  5 25  1  0
  5  6  1  0
  6  7  1  0
  6  8  1  0
  6 35  1  6
  7 36  1  0
  8  9  1  0
  8 37  1  0
  8 38  1  0
  9 25  1  0
  9 10  1  0
  9 39  1  6
 10 11  1  0
 10 40  1  0
 10 41  1  0
 11 12  1  0
 11 42  1  0
 11 43  1  0
 12 18  1  0
 12 13  1  0
 12 44  1  6
 13 14  1  0
 13 15  1  0
 13 60  1  6
 14 45  1  0
 14 46  1  0
 14 47  1  0
 15 16  1  0
 15 48  1  0
 15 49  1  0
 16 17  1  0
 16 50  1  0
 16 51  1  0
 18 17  1  1
 17 52  1  0
 17 53  1  0
 18 19  1  0
 18 25  1  0
 19 20  1  0
 19 54  1  0
 19 55  1  0
 20 21  2  0
 20 22  1  0
 22 23  1  0
 22 56  1  6
 23 24  1  0
 23 57  1  6
 24 58  1  0
 25 26  1  1
 26 59  1  0
M  CHG  1  13   1
M  END
>  <i_m_ct_stereo_status>  (243) 
1

>  <s_m_source_file>  (243) 
/var/tmp/pbs.5076255.sched01/tmpo609hgx5/90rinj4u0e.sdf

>  <i_m_source_file_index>  (243) 
12

>  <i_lp_mmshare_version>  (243) 
48012

>  <i_f3d_flags>  (243) 
0

>  <s_epik_input>  (243) 
W0NIMl0xW0NIMl1bQ0BASF0oW0NIM10pW0NASF0oW09IXSlbQ0BASF0oW0NAXTEyMylDKD1PKVtDSDJdW0NAXTQ1W0NASF0oTihbQ0gzXSlbQ0gyXVtDSDJdW0NIMl00KVtDSDJdW0NIMl1bQ0BASF0oW0NAQF0zNVtPSF0pW0NIMl1bQ0BASF0yW09IXQ==

>  <s_epik_cmdline>  (243) 
J2VwaWtfcHl0aG9uJywgJy1waHQnLCAnMi4wJywgJy1waCcsICc3LjAnLCAnLXRuJywgJzgnLCAnLW1hJywgJzIwMCcsICctaW1hZScsICc8aW5maWxlLm1hZT4nLCAnLW9tYWUnLCAnPG91dGZpbGUubWFlPic=

>  <r_lp_tautomer_probability>  (243) 
1

>  <r_epik_Ionization_Penalty>  (243) 
0.000704391

>  <r_epik_Ionization_Penalty_Charging>  (243) 
0.000704022

>  <r_epik_Ionization_Penalty_Neutral>  (243) 
3.69137e-07

>  <r_epik_State_Penalty>  (243) 
0.00044821

>  <r_epik_Charging_Adjusted_Penalty>  (243) 
0.00115223

>  <i_epik_Tot_Q>  (243) 
1

>  <i_epik_Tot_abs_Q>  (243) 
1

>  <s_lp_Force_Field>  (243) 
OPLS3e

>  <r_lp_Energy>  (243) 
66.3279

>  <b_lp_Chiralities_Consistent>  (243) 
1

>  <s_lp_Variant>  (243) 
61:0-1

>  <s_i_glide_gridfile>  (243) 
pfpi4k_grid

>  <i_i_glide_lignum>  (243) 
12

>  <i_i_glide_rotatable_bonds>  (243) 
3

>  <r_i_docking_score>  (243) 
-3.85596

>  <r_i_glide_ligand_efficiency>  (243) 
-0.148306

>  <r_i_glide_ligand_efficiency_sa>  (243) 
-0.439357

>  <r_i_glide_ligand_efficiency_ln>  (243) 
-0.90556

>  <r_i_glide_gscore>  (243) 
-3.85596

>  <r_i_glide_lipo>  (243) 
-0.514752

>  <r_i_glide_hbond>  (243) 
-0.00106258

>  <r_i_glide_metal>  (243) 
-0

>  <r_i_glide_rewards>  (243) 
-0.923871

>  <r_i_glide_evdw>  (243) 
-15.114

>  <r_i_glide_ecoul>  (243) 
-10.837

>  <r_i_glide_erotb>  (243) 
0

>  <r_i_glide_esite>  (243) 
-0.035024

>  <r_i_glide_emodel>  (243) 
-29.8181

>  <r_i_glide_energy>  (243) 
-25.951

>  <r_i_glide_einternal>  (243) 
1.64311

>  <r_i_glide_intrahb_reward>  (243) 
-0

>  <i_i_glide_confnum>  (243) 
2

>  <i_i_glide_posenum>  (243) 
17

>  <r_i_glide_eff_state_penalty>  (243) 
0

>  <ligand_id>  (243) 
61

>  <original_smiles>  (243) 
CC1CCC23C(O)CC4CCC5N(C)CCCC5(CC(=O)C2C1O)C43O

>  <smiles>  (243) 
[H]OC1([H])C2([H])C(=O)C([H])([H])C34C([H])([H])C([H])([H])C([H])([H])[N+]([H])(C([H])([H])[H])C3([H])C([H])([H])C([H])([H])C3([H])C([H])([H])C([H])(O[H])C2(C([H])([H])C([H])([H])C1([H])C([H])([H])[H])C34O[H]

$$$$
61:0:1
     RDKit          3D

 60 64  0  0  1  0  0  0  0  0999 V2000
    3.6099   -0.9623   -3.9948 C   0  0  0  0  0  0  0  0  0  0  0  0
    3.7225   -1.5865   -2.5925 C   0  0  2  0  0  0  0  0  0  0  0  0
    4.7877   -0.8821   -1.7587 C   0  0  0  0  0  0  0  0  0  0  0  0
    4.8371   -1.3832   -0.3094 C   0  0  0  0  0  0  0  0  0  0  0  0
    5.1324   -2.9204   -0.2151 C   0  0  2  0  0  0  0  0  0  0  0  0
    6.6018   -3.2819   -0.6521 C   0  0  1  0  0  0  0  0  0  0  0  0
    7.5051   -2.1980   -0.5947 O   0  0  0  0  0  0  0  0  0  0  0  0
    7.1272   -4.3723    0.3014 C   0  0  0  0  0  0  0  0  0  0  0  0
    5.8977   -4.7776    1.1069 C   0  0  1  0  0  0  0  0  0  0  0  0
    6.1007   -5.4747    2.4520 C   0  0  0  0  0  0  0  0  0  0  0  0
    4.7473   -5.8577    3.0848 C   0  0  0  0  0  0  0  0  0  0  0  0
    3.5009   -5.2907    2.3343 C   0  0  1  0  0  0  0  0  0  0  0  0
    2.2243   -5.5806    3.0594 N   0  0  1  0  0  0  0  0  0  0  0  0
    1.9748   -7.0187    3.3286 C   0  0  0  0  0  0  0  0  0  0  0  0
    2.0009   -4.7497    4.2664 C   0  0  0  0  0  0  0  0  0  0  0  0
    2.1036   -3.2546    3.9373 C   0  0  0  0  0  0  0  0  0  0  0  0
    3.4358   -2.9381    3.2379 C   0  0  0  0  0  0  0  0  0  0  0  0
    3.6578   -3.7679    1.9303 C   0  0  2  0  0  0  0  0  0  0  0  0
    2.5421   -3.3467    0.9525 C   0  0  0  0  0  0  0  0  0  0  0  0
    2.7221   -3.7902   -0.5014 C   0  0  0  0  0  0  0  0  0  0  0  0
    1.7587   -4.2505   -1.1099 O   0  0  0  0  0  0  0  0  0  0  0  0
    4.1181   -3.6771   -1.1524 C   0  0  1  0  0  0  0  0  0  0  0  0
    4.0907   -3.0747   -2.6033 C   0  0  1  0  0  0  0  0  0  0  0  0
    3.2786   -3.7656   -3.5306 O   0  0  0  0  0  0  0  0  0  0  0  0
    5.0686   -3.4882    1.2494 C   0  0  2  0  0  0  0  0  0  0  0  0
    5.8155   -2.5937    2.0647 O   0  0  0  0  0  0  0  0  0  0  0  0
    4.5247   -1.0882   -4.5746 H   0  0  0  0  0  0  0  0  0  0  0  0
    3.3921    0.1051   -3.9290 H   0  0  0  0  0  0  0  0  0  0  0  0
    2.7874   -1.4122   -4.5519 H   0  0  0  0  0  0  0  0  0  0  0  0
    2.7518   -1.4474   -2.1138 H   0  0  0  0  0  0  0  0  0  0  0  0
    5.7661   -0.9725   -2.2299 H   0  0  0  0  0  0  0  0  0  0  0  0
    4.5371    0.1599   -1.7572 H   0  0  0  0  0  0  0  0  0  0  0  0
    5.5753   -0.7974    0.2359 H   0  0  0  0  0  0  0  0  0  0  0  0
    3.8909   -1.1282    0.1581 H   0  0  0  0  0  0  0  0  0  0  0  0
    6.6401   -3.6430   -1.6757 H   0  0  0  0  0  0  0  0  0  0  0  0
    7.6394   -1.9909    0.3187 H   0  0  0  0  0  0  0  0  0  0  0  0
    7.5430   -5.2187   -0.2363 H   0  0  0  0  0  0  0  0  0  0  0  0
    7.9196   -4.0031    0.9554 H   0  0  0  0  0  0  0  0  0  0  0  0
    5.3678   -5.4871    0.4715 H   0  0  0  0  0  0  0  0  0  0  0  0
    6.7366   -6.3556    2.3289 H   0  0  0  0  0  0  0  0  0  0  0  0
    6.6165   -4.8069    3.1397 H   0  0  0  0  0  0  0  0  0  0  0  0
    4.6959   -6.9445    3.1019 H   0  0  0  0  0  0  0  0  0  0  0  0
    4.7579   -5.5374    4.1277 H   0  0  0  0  0  0  0  0  0  0  0  0
    3.4142   -5.8668    1.4144 H   0  0  0  0  0  0  0  0  0  0  0  0
    2.6278   -7.3954    4.1175 H   0  0  0  0  0  0  0  0  0  0  0  0
    2.1258   -7.6227    2.4330 H   0  0  0  0  0  0  0  0  0  0  0  0
    0.9466   -7.1698    3.6579 H   0  0  0  0  0  0  0  0  0  0  0  0
    1.0044   -4.9479    4.6607 H   0  0  0  0  0  0  0  0  0  0  0  0
    2.7074   -5.0132    5.0573 H   0  0  0  0  0  0  0  0  0  0  0  0
    1.2561   -2.9369    3.3251 H   0  0  0  0  0  0  0  0  0  0  0  0
    2.0290   -2.6823    4.8655 H   0  0  0  0  0  0  0  0  0  0  0  0
    3.4824   -1.8659    3.0362 H   0  0  0  0  0  0  0  0  0  0  0  0
    4.2342   -3.1564    3.9540 H   0  0  0  0  0  0  0  0  0  0  0  0
    1.6229   -3.7737    1.3284 H   0  0  0  0  0  0  0  0  0  0  0  0
    2.3796   -2.2695    0.9681 H   0  0  0  0  0  0  0  0  0  0  0  0
    4.4513   -4.7084   -1.2632 H   0  0  0  0  0  0  0  0  0  0  0  0
    5.0844   -3.1664   -3.0372 H   0  0  0  0  0  0  0  0  0  0  0  0
    3.0165   -4.5958   -3.1387 H   0  0  0  0  0  0  0  0  0  0  0  0
    5.3505   -1.7752    2.1109 H   0  0  0  0  0  0  0  0  0  0  0  0
    1.5005   -5.3039    2.4180 H   0  0  0  0  0  0  0  0  0  0  0  0
  1  2  1  0
  1 27  1  0
  1 28  1  0
  1 29  1  0
  2 23  1  0
  2  3  1  0
  2 30  1  1
  3  4  1  0
  3 31  1  0
  3 32  1  0
  5  4  1  1
  4 33  1  0
  4 34  1  0
  5 22  1  0
  5 25  1  0
  5  6  1  0
  6  7  1  0
  6  8  1  0
  6 35  1  6
  7 36  1  0
  8  9  1  0
  8 37  1  0
  8 38  1  0
  9 25  1  0
  9 10  1  0
  9 39  1  6
 10 11  1  0
 10 40  1  0
 10 41  1  0
 11 12  1  0
 11 42  1  0
 11 43  1  0
 12 18  1  0
 12 13  1  0
 12 44  1  6
 13 14  1  0
 13 15  1  0
 13 60  1  6
 14 45  1  0
 14 46  1  0
 14 47  1  0
 15 16  1  0
 15 48  1  0
 15 49  1  0
 16 17  1  0
 16 50  1  0
 16 51  1  0
 18 17  1  1
 17 52  1  0
 17 53  1  0
 18 19  1  0
 18 25  1  0
 19 20  1  0
 19 54  1  0
 19 55  1  0
 20 21  2  0
 20 22  1  0
 22 23  1  0
 22 56  1  6
 23 24  1  0
 23 57  1  6
 24 58  1  0
 25 26  1  1
 26 59  1  0
M  CHG  1  13   1
M  END
>  <i_m_ct_stereo_status>  (244) 
1

>  <s_m_source_file>  (244) 
/var/tmp/pbs.5076255.sched01/tmpo609hgx5/90rinj4u0e.sdf

>  <i_m_source_file_index>  (244) 
12

>  <i_lp_mmshare_version>  (244) 
48012

>  <i_f3d_flags>  (244) 
0

>  <s_epik_input>  (244) 
W0NIMl0xW0NIMl1bQ0BASF0oW0NIM10pW0NASF0oW09IXSlbQ0BASF0oW0NAXTEyMylDKD1PKVtDSDJdW0NAXTQ1W0NASF0oTihbQ0gzXSlbQ0gyXVtDSDJdW0NIMl00KVtDSDJdW0NIMl1bQ0BASF0oW0NAQF0zNVtPSF0pW0NIMl1bQ0BASF0yW09IXQ==

>  <s_epik_cmdline>  (244) 
J2VwaWtfcHl0aG9uJywgJy1waHQnLCAnMi4wJywgJy1waCcsICc3LjAnLCAnLXRuJywgJzgnLCAnLW1hJywgJzIwMCcsICctaW1hZScsICc8aW5maWxlLm1hZT4nLCAnLW9tYWUnLCAnPG91dGZpbGUubWFlPic=

>  <r_lp_tautomer_probability>  (244) 
1

>  <r_epik_Ionization_Penalty>  (244) 
0.000704391

>  <r_epik_Ionization_Penalty_Charging>  (244) 
0.000704022

>  <r_epik_Ionization_Penalty_Neutral>  (244) 
3.69137e-07

>  <r_epik_State_Penalty>  (244) 
0.00044821

>  <r_epik_Charging_Adjusted_Penalty>  (244) 
0.00115223

>  <i_epik_Tot_Q>  (244) 
1

>  <i_epik_Tot_abs_Q>  (244) 
1

>  <s_lp_Force_Field>  (244) 
OPLS3e

>  <r_lp_Energy>  (244) 
66.3279

>  <b_lp_Chiralities_Consistent>  (244) 
1

>  <s_lp_Variant>  (244) 
61:0-1

>  <s_i_glide_gridfile>  (244) 
pfpi4k_grid

>  <i_i_glide_lignum>  (244) 
12

>  <i_i_glide_rotatable_bonds>  (244) 
3

>  <r_i_docking_score>  (244) 
-3.83783

>  <r_i_glide_ligand_efficiency>  (244) 
-0.147609

>  <r_i_glide_ligand_efficiency_sa>  (244) 
-0.43729

>  <r_i_glide_ligand_efficiency_ln>  (244) 
-0.901301

>  <r_i_glide_gscore>  (244) 
-3.83783

>  <r_i_glide_lipo>  (244) 
-0.570429

>  <r_i_glide_hbond>  (244) 
0

>  <r_i_glide_metal>  (244) 
-0

>  <r_i_glide_rewards>  (244) 
-0.923871

>  <r_i_glide_evdw>  (244) 
-15.2027

>  <r_i_glide_ecoul>  (244) 
-10.3068

>  <r_i_glide_erotb>  (244) 
0

>  <r_i_glide_esite>  (244) 
-0.0373694

>  <r_i_glide_emodel>  (244) 
-29.2726

>  <r_i_glide_energy>  (244) 
-25.5095

>  <r_i_glide_einternal>  (244) 
1.44916

>  <r_i_glide_intrahb_reward>  (244) 
-0

>  <i_i_glide_confnum>  (244) 
2

>  <i_i_glide_posenum>  (244) 
21

>  <r_i_glide_eff_state_penalty>  (244) 
0

>  <ligand_id>  (244) 
61

>  <original_smiles>  (244) 
CC1CCC23C(O)CC4CCC5N(C)CCCC5(CC(=O)C2C1O)C43O

>  <smiles>  (244) 
[H]OC1([H])C2([H])C(=O)C([H])([H])C34C([H])([H])C([H])([H])C([H])([H])[N+]([H])(C([H])([H])[H])C3([H])C([H])([H])C([H])([H])C3([H])C([H])([H])C([H])(O[H])C2(C([H])([H])C([H])([H])C1([H])C([H])([H])[H])C34O[H]

$$$$
61:0:2
     RDKit          3D

 60 64  0  0  1  0  0  0  0  0999 V2000
    3.6263   -0.9623   -4.1185 C   0  0  0  0  0  0  0  0  0  0  0  0
    3.7258   -1.5365   -2.6939 C   0  0  2  0  0  0  0  0  0  0  0  0
    4.8047   -0.8254   -1.8829 C   0  0  0  0  0  0  0  0  0  0  0  0
    4.8682   -1.2944   -0.4236 C   0  0  0  0  0  0  0  0  0  0  0  0
    5.1103   -2.8356   -0.2850 C   0  0  2  0  0  0  0  0  0  0  0  0
    6.5584   -3.2856   -0.7201 C   0  0  1  0  0  0  0  0  0  0  0  0
    7.5336   -2.2520   -0.7425 O   0  0  0  0  0  0  0  0  0  0  0  0
    7.0438   -4.3537    0.2741 C   0  0  0  0  0  0  0  0  0  0  0  0
    5.8085   -4.6745    1.1045 C   0  0  1  0  0  0  0  0  0  0  0  0
    6.0036   -5.3372    2.4676 C   0  0  0  0  0  0  0  0  0  0  0  0
    4.6406   -5.6348    3.1291 C   0  0  0  0  0  0  0  0  0  0  0  0
    3.4002   -5.0533    2.3677 C   0  0  1  0  0  0  0  0  0  0  0  0
    2.1354   -5.2714    3.1219 N   0  0  1  0  0  0  0  0  0  0  0  0
    1.8261   -6.6714    3.4337 C   0  0  0  0  0  0  0  0  0  0  0  0
    1.9531   -4.3874    4.2811 C   0  0  0  0  0  0  0  0  0  0  0  0
    2.1052   -2.9073    3.9066 C   0  0  0  0  0  0  0  0  0  0  0  0
    3.4413   -2.6695    3.1796 C   0  0  0  0  0  0  0  0  0  0  0  0
    3.6206   -3.5556    1.9016 C   0  0  2  0  0  0  0  0  0  0  0  0
    2.5099   -3.1313    0.9138 C   0  0  0  0  0  0  0  0  0  0  0  0
    2.6682   -3.6305   -0.5272 C   0  0  0  0  0  0  0  0  0  0  0  0
    1.6967   -4.0982   -1.1209 O   0  0  0  0  0  0  0  0  0  0  0  0
    4.0604   -3.5911   -1.1877 C   0  0  1  0  0  0  0  0  0  0  0  0
    4.0489   -3.0319   -2.6533 C   0  0  1  0  0  0  0  0  0  0  0  0
    3.1987   -3.7299   -3.5390 O   0  0  0  0  0  0  0  0  0  0  0  0
    5.0323   -3.3486    1.1996 C   0  0  2  0  0  0  0  0  0  0  0  0
    5.8158   -2.4568    1.9796 O   0  0  0  0  0  0  0  0  0  0  0  0
    4.5278   -1.1450   -4.7006 H   0  0  0  0  0  0  0  0  0  0  0  0
    3.4498    0.1134   -4.0923 H   0  0  0  0  0  0  0  0  0  0  0  0
    2.7819   -1.4010   -4.6512 H   0  0  0  0  0  0  0  0  0  0  0  0
    2.7597   -1.3519   -2.2204 H   0  0  0  0  0  0  0  0  0  0  0  0
    5.7908   -0.9683   -2.3214 H   0  0  0  0  0  0  0  0  0  0  0  0
    4.5834    0.2251   -1.9366 H   0  0  0  0  0  0  0  0  0  0  0  0
    5.6422   -0.7295    0.0930 H   0  0  0  0  0  0  0  0  0  0  0  0
    3.9403   -0.9913    0.0548 H   0  0  0  0  0  0  0  0  0  0  0  0
    6.5672   -3.6993   -1.7246 H   0  0  0  0  0  0  0  0  0  0  0  0
    8.3719   -2.6583   -0.9058 H   0  0  0  0  0  0  0  0  0  0  0  0
    7.3997   -5.2463   -0.2270 H   0  0  0  0  0  0  0  0  0  0  0  0
    7.8561   -3.9906    0.9060 H   0  0  0  0  0  0  0  0  0  0  0  0
    5.2457   -5.3905    0.4994 H   0  0  0  0  0  0  0  0  0  0  0  0
    6.5940   -6.2505    2.3673 H   0  0  0  0  0  0  0  0  0  0  0  0
    6.5678   -4.6745    3.1227 H   0  0  0  0  0  0  0  0  0  0  0  0
    4.5478   -6.7210    3.1834 H   0  0  0  0  0  0  0  0  0  0  0  0
    4.6731   -5.2842    4.1582 H   0  0  0  0  0  0  0  0  0  0  0  0
    3.2904   -5.6609    1.4689 H   0  0  0  0  0  0  0  0  0  0  0  0
    2.4681   -7.0564    4.2307 H   0  0  0  0  0  0  0  0  0  0  0  0
    1.9420   -7.3215    2.5639 H   0  0  0  0  0  0  0  0  0  0  0  0
    0.7957   -6.7764    3.7800 H   0  0  0  0  0  0  0  0  0  0  0  0
    0.9511   -4.5253    4.6996 H   0  0  0  0  0  0  0  0  0  0  0  0
    2.6548   -4.6427    5.0850 H   0  0  0  0  0  0  0  0  0  0  0  0
    1.2684   -2.5770    3.2880 H   0  0  0  0  0  0  0  0  0  0  0  0
    2.0673   -2.2977    4.8116 H   0  0  0  0  0  0  0  0  0  0  0  0
    3.5354   -1.6103    2.9367 H   0  0  0  0  0  0  0  0  0  0  0  0
    4.2324   -2.8940    3.9021 H   0  0  0  0  0  0  0  0  0  0  0  0
    1.5802   -3.5005    1.3168 H   0  0  0  0  0  0  0  0  0  0  0  0
    2.3927   -2.0471    0.8933 H   0  0  0  0  0  0  0  0  0  0  0  0
    4.3532   -4.6389   -1.2628 H   0  0  0  0  0  0  0  0  0  0  0  0
    5.0307   -3.1809   -3.0953 H   0  0  0  0  0  0  0  0  0  0  0  0
    3.0067   -4.5800   -3.1480 H   0  0  0  0  0  0  0  0  0  0  0  0
    5.8791   -2.7943    2.8517 H   0  0  0  0  0  0  0  0  0  0  0  0
    1.4173   -4.9739    2.4704 H   0  0  0  0  0  0  0  0  0  0  0  0
  1  2  1  0
  1 27  1  0
  1 28  1  0
  1 29  1  0
  2 23  1  0
  2  3  1  0
  2 30  1  1
  3  4  1  0
  3 31  1  0
  3 32  1  0
  5  4  1  1
  4 33  1  0
  4 34  1  0
  5 22  1  0
  5 25  1  0
  5  6  1  0
  6  7  1  0
  6  8  1  0
  6 35  1  6
  7 36  1  0
  8  9  1  0
  8 37  1  0
  8 38  1  0
  9 25  1  0
  9 10  1  0
  9 39  1  6
 10 11  1  0
 10 40  1  0
 10 41  1  0
 11 12  1  0
 11 42  1  0
 11 43  1  0
 12 18  1  0
 12 13  1  0
 12 44  1  6
 13 14  1  0
 13 15  1  0
 13 60  1  6
 14 45  1  0
 14 46  1  0
 14 47  1  0
 15 16  1  0
 15 48  1  0
 15 49  1  0
 16 17  1  0
 16 50  1  0
 16 51  1  0
 18 17  1  1
 17 52  1  0
 17 53  1  0
 18 19  1  0
 18 25  1  0
 19 20  1  0
 19 54  1  0
 19 55  1  0
 20 21  2  0
 20 22  1  0
 22 23  1  0
 22 56  1  6
 23 24  1  0
 23 57  1  6
 24 58  1  0
 25 26  1  1
 26 59  1  0
M  CHG  1  13   1
M  END
>  <i_m_ct_stereo_status>  (245) 
1

>  <s_m_source_file>  (245) 
/var/tmp/pbs.5076255.sched01/tmpo609hgx5/90rinj4u0e.sdf

>  <i_m_source_file_index>  (245) 
12

>  <i_lp_mmshare_version>  (245) 
48012

>  <i_f3d_flags>  (245) 
0

>  <s_epik_input>  (245) 
W0NIMl0xW0NIMl1bQ0BASF0oW0NIM10pW0NASF0oW09IXSlbQ0BASF0oW0NAXTEyMylDKD1PKVtDSDJdW0NAXTQ1W0NASF0oTihbQ0gzXSlbQ0gyXVtDSDJdW0NIMl00KVtDSDJdW0NIMl1bQ0BASF0oW0NAQF0zNVtPSF0pW0NIMl1bQ0BASF0yW09IXQ==

>  <s_epik_cmdline>  (245) 
J2VwaWtfcHl0aG9uJywgJy1waHQnLCAnMi4wJywgJy1waCcsICc3LjAnLCAnLXRuJywgJzgnLCAnLW1hJywgJzIwMCcsICctaW1hZScsICc8aW5maWxlLm1hZT4nLCAnLW9tYWUnLCAnPG91dGZpbGUubWFlPic=

>  <r_lp_tautomer_probability>  (245) 
1

>  <r_epik_Ionization_Penalty>  (245) 
0.000704391

>  <r_epik_Ionization_Penalty_Charging>  (245) 
0.000704022

>  <r_epik_Ionization_Penalty_Neutral>  (245) 
3.69137e-07

>  <r_epik_State_Penalty>  (245) 
0.00044821

>  <r_epik_Charging_Adjusted_Penalty>  (245) 
0.00115223

>  <i_epik_Tot_Q>  (245) 
1

>  <i_epik_Tot_abs_Q>  (245) 
1

>  <s_lp_Force_Field>  (245) 
OPLS3e

>  <r_lp_Energy>  (245) 
66.3279

>  <b_lp_Chiralities_Consistent>  (245) 
1

>  <s_lp_Variant>  (245) 
61:0-1

>  <s_i_glide_gridfile>  (245) 
pfpi4k_grid

>  <i_i_glide_lignum>  (245) 
12

>  <i_i_glide_rotatable_bonds>  (245) 
3

>  <r_i_docking_score>  (245) 
-3.79802

>  <r_i_glide_ligand_efficiency>  (245) 
-0.146078

>  <r_i_glide_ligand_efficiency_sa>  (245) 
-0.432755

>  <r_i_glide_ligand_efficiency_ln>  (245) 
-0.891953

>  <r_i_glide_gscore>  (245) 
-3.79802

>  <r_i_glide_lipo>  (245) 
-0.516657

>  <r_i_glide_hbond>  (245) 
-0.00377592

>  <r_i_glide_metal>  (245) 
-0

>  <r_i_glide_rewards>  (245) 
-0.923871

>  <r_i_glide_evdw>  (245) 
-15.4631

>  <r_i_glide_ecoul>  (245) 
-10.3098

>  <r_i_glide_erotb>  (245) 
0

>  <r_i_glide_esite>  (245) 
-0.0340989

>  <r_i_glide_emodel>  (245) 
-29.5363

>  <r_i_glide_energy>  (245) 
-25.7728

>  <r_i_glide_einternal>  (245) 
1.55731

>  <r_i_glide_intrahb_reward>  (245) 
-0

>  <i_i_glide_confnum>  (245) 
1

>  <i_i_glide_posenum>  (245) 
25

>  <r_i_glide_eff_state_penalty>  (245) 
0

>  <ligand_id>  (245) 
61

>  <original_smiles>  (245) 
CC1CCC23C(O)CC4CCC5N(C)CCCC5(CC(=O)C2C1O)C43O

>  <smiles>  (245) 
[H]OC1([H])C2([H])C(=O)C([H])([H])C34C([H])([H])C([H])([H])C([H])([H])[N+]([H])(C([H])([H])[H])C3([H])C([H])([H])C([H])([H])C3([H])C([H])([H])C([H])(O[H])C2(C([H])([H])C([H])([H])C1([H])C([H])([H])[H])C34O[H]

$$$$
62:0:0
     RDKit          3D

 25 26  0  0  1  0  0  0  0  0999 V2000
   -3.8209    3.4114    2.4937 C   0  0  0  0  0  0  0  0  0  0  0  0
   -2.4825    3.9785    2.9966 C   0  0  0  0  0  0  0  0  0  0  0  0
   -1.3862    3.0219    2.8782 N   0  0  0  0  0  0  0  0  0  0  0  0
   -1.1342    2.0007    3.7115 C   0  0  0  0  0  0  0  0  0  0  0  0
   -1.7787    1.7917    4.7396 O   0  0  0  0  0  0  0  0  0  0  0  0
   -0.0440    1.0459    3.3120 C   0  0  0  0  0  0  0  0  0  0  0  0
    0.0180   -0.2490    3.9015 C   0  0  0  0  0  0  0  0  0  0  0  0
    0.9406   -1.1665    3.6285 N   0  0  0  0  0  0  0  0  0  0  0  0
    1.8837   -0.8219    2.7343 C   0  0  0  0  0  0  0  0  0  0  0  0
    2.9286   -1.5067    2.2734 N   0  0  0  0  0  0  0  0  0  0  0  0
    3.5161   -0.6308    1.4119 C   0  0  0  0  0  0  0  0  0  0  0  0
    4.6838   -0.9584    0.7089 N   0  0  0  0  0  0  0  0  0  0  0  0
    2.9472    0.5544    1.2903 N   0  0  0  0  0  0  0  0  0  0  0  0
    1.8873    0.4467    2.1270 N   0  0  0  0  0  0  0  0  0  0  0  0
    0.9372    1.3851    2.3991 C   0  0  0  0  0  0  0  0  0  0  0  0
   -4.6209    4.1475    2.5732 H   0  0  0  0  0  0  0  0  0  0  0  0
   -4.1215    2.5432    3.0793 H   0  0  0  0  0  0  0  0  0  0  0  0
   -3.7813    3.1036    1.4491 H   0  0  0  0  0  0  0  0  0  0  0  0
   -2.2193    4.8543    2.4047 H   0  0  0  0  0  0  0  0  0  0  0  0
   -2.5734    4.3069    4.0317 H   0  0  0  0  0  0  0  0  0  0  0  0
   -0.7737    3.1750    2.0814 H   0  0  0  0  0  0  0  0  0  0  0  0
   -0.7331   -0.5531    4.6257 H   0  0  0  0  0  0  0  0  0  0  0  0
    5.0772   -0.2974    0.0549 H   0  0  0  0  0  0  0  0  0  0  0  0
    1.0143    2.3418    1.8865 H   0  0  0  0  0  0  0  0  0  0  0  0
    5.0940   -1.8747    0.8034 H   0  0  0  0  0  0  0  0  0  0  0  0
  1  2  1  0
  1 16  1  0
  1 17  1  0
  1 18  1  0
  2  3  1  0
  2 19  1  0
  2 20  1  0
  3  4  1  0
  3 21  1  0
  4  5  2  0
  4  6  1  0
  6 15  2  0
  6  7  1  0
  7  8  2  0
  7 22  1  0
  8  9  1  0
  9 14  1  0
  9 10  2  0
 10 11  1  0
 11 12  1  0
 11 13  2  0
 12 23  1  0
 12 25  1  0
 13 14  1  0
 14 15  1  0
 15 24  1  0
M  END
>  <i_m_ct_stereo_status>  (246) 
1

>  <s_m_source_file>  (246) 
/var/tmp/pbs.5076255.sched01/tmpo609hgx5/90rinj4u0e.sdf

>  <i_m_source_file_index>  (246) 
13

>  <i_lp_mmshare_version>  (246) 
48012

>  <i_f3d_flags>  (246) 
0

>  <s_epik_input>  (246) 
W0NIM11bQ0gyXVtOSF1DKD1PKWMoW2NIXW4xKVtjSF1uKGMxMilbbkhdYyhcbjIpPU5cW0hd

>  <s_epik_cmdline>  (246) 
J2VwaWtfcHl0aG9uJywgJy1waHQnLCAnMi4wJywgJy1waCcsICc3LjAnLCAnLXRuJywgJzgnLCAnLW1hJywgJzIwMCcsICctaW1hZScsICc8aW5maWxlLm1hZT4nLCAnLW9tYWUnLCAnPG91dGZpbGUubWFlPic=

>  <r_lp_tautomer_probability>  (246) 
1

>  <r_epik_Ionization_Penalty>  (246) 
3.69471e-05

>  <r_epik_Ionization_Penalty_Charging>  (246) 
0

>  <r_epik_Ionization_Penalty_Neutral>  (246) 
3.69471e-05

>  <r_epik_State_Penalty>  (246) 
-0

>  <r_epik_Charging_Adjusted_Penalty>  (246) 
0

>  <i_epik_Tot_Q>  (246) 
0

>  <i_epik_Tot_abs_Q>  (246) 
0

>  <s_lp_Force_Field>  (246) 
OPLS3e

>  <r_lp_Energy>  (246) 
2.33138

>  <b_lp_Chiralities_Consistent>  (246) 
1

>  <s_lp_Variant>  (246) 
62:0-1

>  <s_i_glide_gridfile>  (246) 
pfpi4k_grid

>  <i_i_glide_lignum>  (246) 
13

>  <i_i_glide_rotatable_bonds>  (246) 
3

>  <r_i_docking_score>  (246) 
-3.16001

>  <r_i_glide_ligand_efficiency>  (246) 
-0.210668

>  <r_i_glide_ligand_efficiency_sa>  (246) 
-0.519551

>  <r_i_glide_ligand_efficiency_ln>  (246) 
-0.852204

>  <r_i_glide_gscore>  (246) 
-3.16001

>  <r_i_glide_lipo>  (246) 
-0.168632

>  <r_i_glide_hbond>  (246) 
-0.16

>  <r_i_glide_metal>  (246) 
-0

>  <r_i_glide_rewards>  (246) 
-2.00315

>  <r_i_glide_evdw>  (246) 
-20.8392

>  <r_i_glide_ecoul>  (246) 
-2.53719

>  <r_i_glide_erotb>  (246) 
0.776043

>  <r_i_glide_esite>  (246) 
-0.181734

>  <r_i_glide_emodel>  (246) 
-28.5451

>  <r_i_glide_energy>  (246) 
-23.3764

>  <r_i_glide_einternal>  (246) 
0.363622

>  <r_i_glide_intrahb_reward>  (246) 
-0

>  <i_i_glide_confnum>  (246) 
2

>  <i_i_glide_posenum>  (246) 
1

>  <r_i_glide_eff_state_penalty>  (246) 
0

>  <ligand_id>  (246) 
62

>  <original_smiles>  (246) 
CCNC(=O)c1cnc2nc(=N)[nH]n2c1

>  <smiles>  (246) 
[H]c1nc2nc(N([H])[H])nn2c([H])c1C(=O)N([H])C([H])([H])C([H])([H])[H]

$$$$
62:0:1
     RDKit          3D

 25 26  0  0  1  0  0  0  0  0999 V2000
    1.9337   -5.4621    2.4769 C   0  0  0  0  0  0  0  0  0  0  0  0
    2.5752   -4.5119    3.4986 C   0  0  0  0  0  0  0  0  0  0  0  0
    1.7855   -3.2964    3.6927 N   0  0  0  0  0  0  0  0  0  0  0  0
    0.6996   -3.2035    4.4797 C   0  0  0  0  0  0  0  0  0  0  0  0
    0.2452   -4.1548    5.1134 O   0  0  0  0  0  0  0  0  0  0  0  0
    0.0477   -1.8532    4.5880 C   0  0  0  0  0  0  0  0  0  0  0  0
   -0.9056   -1.6004    5.6147 C   0  0  0  0  0  0  0  0  0  0  0  0
   -1.5706   -0.4590    5.7769 N   0  0  0  0  0  0  0  0  0  0  0  0
   -1.3021    0.5241    4.8959 C   0  0  0  0  0  0  0  0  0  0  0  0
   -1.7783    1.7631    4.8070 N   0  0  0  0  0  0  0  0  0  0  0  0
   -1.1336    2.2572    3.7114 C   0  0  0  0  0  0  0  0  0  0  0  0
   -1.3534    3.5698    3.2791 N   0  0  0  0  0  0  0  0  0  0  0  0
   -0.2848    1.4472    3.0987 N   0  0  0  0  0  0  0  0  0  0  0  0
   -0.3759    0.3326    3.8558 N   0  0  0  0  0  0  0  0  0  0  0  0
    0.2991   -0.8362    3.6867 C   0  0  0  0  0  0  0  0  0  0  0  0
    2.5497   -6.3518    2.3399 H   0  0  0  0  0  0  0  0  0  0  0  0
    1.8179   -4.9899    1.5018 H   0  0  0  0  0  0  0  0  0  0  0  0
    0.9523   -5.7952    2.8134 H   0  0  0  0  0  0  0  0  0  0  0  0
    2.7213   -5.0299    4.4485 H   0  0  0  0  0  0  0  0  0  0  0  0
    3.5687   -4.2267    3.1520 H   0  0  0  0  0  0  0  0  0  0  0  0
    2.1201   -2.4636    3.2308 H   0  0  0  0  0  0  0  0  0  0  0  0
   -1.1402   -2.3820    6.3319 H   0  0  0  0  0  0  0  0  0  0  0  0
   -0.8883    3.9107    2.4353 H   0  0  0  0  0  0  0  0  0  0  0  0
    0.9765   -0.8933    2.8410 H   0  0  0  0  0  0  0  0  0  0  0  0
   -2.0337    4.1407    3.7484 H   0  0  0  0  0  0  0  0  0  0  0  0
  1  2  1  0
  1 16  1  0
  1 17  1  0
  1 18  1  0
  2  3  1  0
  2 19  1  0
  2 20  1  0
  3  4  1  0
  3 21  1  0
  4  5  2  0
  4  6  1  0
  6 15  2  0
  6  7  1  0
  7  8  2  0
  7 22  1  0
  8  9  1  0
  9 14  1  0
  9 10  2  0
 10 11  1  0
 11 12  1  0
 11 13  2  0
 12 23  1  0
 12 25  1  0
 13 14  1  0
 14 15  1  0
 15 24  1  0
M  END
>  <i_m_ct_stereo_status>  (247) 
1

>  <s_m_source_file>  (247) 
/var/tmp/pbs.5076255.sched01/tmpo609hgx5/90rinj4u0e.sdf

>  <i_m_source_file_index>  (247) 
13

>  <i_lp_mmshare_version>  (247) 
48012

>  <i_f3d_flags>  (247) 
0

>  <s_epik_input>  (247) 
W0NIM11bQ0gyXVtOSF1DKD1PKWMoW2NIXW4xKVtjSF1uKGMxMilbbkhdYyhcbjIpPU5cW0hd

>  <s_epik_cmdline>  (247) 
J2VwaWtfcHl0aG9uJywgJy1waHQnLCAnMi4wJywgJy1waCcsICc3LjAnLCAnLXRuJywgJzgnLCAnLW1hJywgJzIwMCcsICctaW1hZScsICc8aW5maWxlLm1hZT4nLCAnLW9tYWUnLCAnPG91dGZpbGUubWFlPic=

>  <r_lp_tautomer_probability>  (247) 
1

>  <r_epik_Ionization_Penalty>  (247) 
3.69471e-05

>  <r_epik_Ionization_Penalty_Charging>  (247) 
0

>  <r_epik_Ionization_Penalty_Neutral>  (247) 
3.69471e-05

>  <r_epik_State_Penalty>  (247) 
-0

>  <r_epik_Charging_Adjusted_Penalty>  (247) 
0

>  <i_epik_Tot_Q>  (247) 
0

>  <i_epik_Tot_abs_Q>  (247) 
0

>  <s_lp_Force_Field>  (247) 
OPLS3e

>  <r_lp_Energy>  (247) 
2.33138

>  <b_lp_Chiralities_Consistent>  (247) 
1

>  <s_lp_Variant>  (247) 
62:0-1

>  <s_i_glide_gridfile>  (247) 
pfpi4k_grid

>  <i_i_glide_lignum>  (247) 
13

>  <i_i_glide_rotatable_bonds>  (247) 
3

>  <r_i_docking_score>  (247) 
-3.03254

>  <r_i_glide_ligand_efficiency>  (247) 
-0.202169

>  <r_i_glide_ligand_efficiency_sa>  (247) 
-0.498592

>  <r_i_glide_ligand_efficiency_ln>  (247) 
-0.817826

>  <r_i_glide_gscore>  (247) 
-3.03254

>  <r_i_glide_lipo>  (247) 
-0.00591296

>  <r_i_glide_hbond>  (247) 
-0.207222

>  <r_i_glide_metal>  (247) 
-0

>  <r_i_glide_rewards>  (247) 
-2.03325

>  <r_i_glide_evdw>  (247) 
-16.3344

>  <r_i_glide_ecoul>  (247) 
-3.77452

>  <r_i_glide_erotb>  (247) 
0.776043

>  <r_i_glide_esite>  (247) 
-0.179301

>  <r_i_glide_emodel>  (247) 
-25.1787

>  <r_i_glide_energy>  (247) 
-20.109

>  <r_i_glide_einternal>  (247) 
0.181922

>  <r_i_glide_intrahb_reward>  (247) 
-0

>  <i_i_glide_confnum>  (247) 
5

>  <i_i_glide_posenum>  (247) 
14

>  <r_i_glide_eff_state_penalty>  (247) 
0

>  <ligand_id>  (247) 
62

>  <original_smiles>  (247) 
CCNC(=O)c1cnc2nc(=N)[nH]n2c1

>  <smiles>  (247) 
[H]c1nc2nc(N([H])[H])nn2c([H])c1C(=O)N([H])C([H])([H])C([H])([H])[H]

$$$$
62:0:2
     RDKit          3D

 25 26  0  0  1  0  0  0  0  0999 V2000
   -2.9715    2.7325    6.6463 C   0  0  0  0  0  0  0  0  0  0  0  0
   -1.4406    2.8722    6.6214 C   0  0  0  0  0  0  0  0  0  0  0  0
   -0.7731    2.0396    5.6239 N   0  0  0  0  0  0  0  0  0  0  0  0
   -0.8968    0.7075    5.4720 C   0  0  0  0  0  0  0  0  0  0  0  0
   -1.6986    0.0190    6.1092 O   0  0  0  0  0  0  0  0  0  0  0  0
    0.0515    0.0386    4.5137 C   0  0  0  0  0  0  0  0  0  0  0  0
    0.1286   -1.3822    4.4812 C   0  0  0  0  0  0  0  0  0  0  0  0
    0.9307   -2.0828    3.6873 N   0  0  0  0  0  0  0  0  0  0  0  0
    1.7209   -1.3858    2.8521 C   0  0  0  0  0  0  0  0  0  0  0  0
    2.6201   -1.8028    1.9703 N   0  0  0  0  0  0  0  0  0  0  0  0
    3.0947   -0.6323    1.4566 C   0  0  0  0  0  0  0  0  0  0  0  0
    4.1180   -0.6417    0.5016 N   0  0  0  0  0  0  0  0  0  0  0  0
    2.5813    0.4915    1.9275 N   0  0  0  0  0  0  0  0  0  0  0  0
    1.6900    0.0244    2.8270 N   0  0  0  0  0  0  0  0  0  0  0  0
    0.8616    0.7474    3.6374 C   0  0  0  0  0  0  0  0  0  0  0  0
   -3.4029    3.3983    7.3880 H   0  0  0  0  0  0  0  0  0  0  0  0
   -3.2860    1.7271    6.9208 H   0  0  0  0  0  0  0  0  0  0  0  0
   -3.3967    2.9664    5.6697 H   0  0  0  0  0  0  0  0  0  0  0  0
   -1.1890    3.9123    6.4080 H   0  0  0  0  0  0  0  0  0  0  0  0
   -1.0211    2.6629    7.6057 H   0  0  0  0  0  0  0  0  0  0  0  0
   -0.0714    2.5106    5.0699 H   0  0  0  0  0  0  0  0  0  0  0  0
   -0.4987   -1.9679    5.1496 H   0  0  0  0  0  0  0  0  0  0  0  0
    4.4074    0.2212    0.0630 H   0  0  0  0  0  0  0  0  0  0  0  0
    0.9147    1.8229    3.5452 H   0  0  0  0  0  0  0  0  0  0  0  0
    4.4128   -1.5153    0.0933 H   0  0  0  0  0  0  0  0  0  0  0  0
  1  2  1  0
  1 16  1  0
  1 17  1  0
  1 18  1  0
  2  3  1  0
  2 19  1  0
  2 20  1  0
  3  4  1  0
  3 21  1  0
  4  5  2  0
  4  6  1  0
  6 15  2  0
  6  7  1  0
  7  8  2  0
  7 22  1  0
  8  9  1  0
  9 14  1  0
  9 10  2  0
 10 11  1  0
 11 12  1  0
 11 13  2  0
 12 23  1  0
 12 25  1  0
 13 14  1  0
 14 15  1  0
 15 24  1  0
M  END
>  <i_m_ct_stereo_status>  (248) 
1

>  <s_m_source_file>  (248) 
/var/tmp/pbs.5076255.sched01/tmpo609hgx5/90rinj4u0e.sdf

>  <i_m_source_file_index>  (248) 
13

>  <i_lp_mmshare_version>  (248) 
48012

>  <i_f3d_flags>  (248) 
0

>  <s_epik_input>  (248) 
W0NIM11bQ0gyXVtOSF1DKD1PKWMoW2NIXW4xKVtjSF1uKGMxMilbbkhdYyhcbjIpPU5cW0hd

>  <s_epik_cmdline>  (248) 
J2VwaWtfcHl0aG9uJywgJy1waHQnLCAnMi4wJywgJy1waCcsICc3LjAnLCAnLXRuJywgJzgnLCAnLW1hJywgJzIwMCcsICctaW1hZScsICc8aW5maWxlLm1hZT4nLCAnLW9tYWUnLCAnPG91dGZpbGUubWFlPic=

>  <r_lp_tautomer_probability>  (248) 
1

>  <r_epik_Ionization_Penalty>  (248) 
3.69471e-05

>  <r_epik_Ionization_Penalty_Charging>  (248) 
0

>  <r_epik_Ionization_Penalty_Neutral>  (248) 
3.69471e-05

>  <r_epik_State_Penalty>  (248) 
-0

>  <r_epik_Charging_Adjusted_Penalty>  (248) 
0

>  <i_epik_Tot_Q>  (248) 
0

>  <i_epik_Tot_abs_Q>  (248) 
0

>  <s_lp_Force_Field>  (248) 
OPLS3e

>  <r_lp_Energy>  (248) 
2.33138

>  <b_lp_Chiralities_Consistent>  (248) 
1

>  <s_lp_Variant>  (248) 
62:0-1

>  <s_i_glide_gridfile>  (248) 
pfpi4k_grid

>  <i_i_glide_lignum>  (248) 
13

>  <i_i_glide_rotatable_bonds>  (248) 
3

>  <r_i_docking_score>  (248) 
-2.95474

>  <r_i_glide_ligand_efficiency>  (248) 
-0.196983

>  <r_i_glide_ligand_efficiency_sa>  (248) 
-0.485801

>  <r_i_glide_ligand_efficiency_ln>  (248) 
-0.796845

>  <r_i_glide_gscore>  (248) 
-2.95474

>  <r_i_glide_lipo>  (248) 
-0.225051

>  <r_i_glide_hbond>  (248) 
-0.189543

>  <r_i_glide_metal>  (248) 
-0

>  <r_i_glide_rewards>  (248) 
-2.00315

>  <r_i_glide_evdw>  (248) 
-17.4131

>  <r_i_glide_ecoul>  (248) 
-2.24959

>  <r_i_glide_erotb>  (248) 
0.776043

>  <r_i_glide_esite>  (248) 
-0.104948

>  <r_i_glide_emodel>  (248) 
-24.1832

>  <r_i_glide_energy>  (248) 
-19.6627

>  <r_i_glide_einternal>  (248) 
0.71664

>  <r_i_glide_intrahb_reward>  (248) 
-0

>  <i_i_glide_confnum>  (248) 
1

>  <i_i_glide_posenum>  (248) 
25

>  <r_i_glide_eff_state_penalty>  (248) 
0

>  <ligand_id>  (248) 
62

>  <original_smiles>  (248) 
CCNC(=O)c1cnc2nc(=N)[nH]n2c1

>  <smiles>  (248) 
[H]c1nc2nc(N([H])[H])nn2c([H])c1C(=O)N([H])C([H])([H])C([H])([H])[H]

$$$$
65:0:0
     RDKit          3D

 25 28  0  0  1  0  0  0  0  0999 V2000
    6.8367   -2.2557   -1.0467 O   0  0  0  0  0  0  0  0  0  0  0  0
    5.9120   -2.9283   -0.5806 C   0  0  0  0  0  0  0  0  0  0  0  0
    6.0992   -4.2229    0.2490 C   0  0  0  0  0  0  0  0  0  0  0  0
    4.6873   -4.7589    0.0446 C   0  0  1  0  0  0  0  0  0  0  0  0
    3.8165   -5.6296    0.9054 C   0  0  2  0  0  0  0  0  0  0  0  0
    2.6100   -5.4332    0.0942 N   0  0  0  0  0  0  0  0  0  0  0  0
    2.6165   -4.0733    0.7180 N   0  0  0  0  0  0  0  0  0  0  0  0
    3.9260   -3.5024    0.3580 C   0  0  2  0  0  0  0  0  0  0  0  0
    4.4120   -2.5890   -0.7582 C   0  0  0  0  0  0  0  0  0  0  0  0
    2.9765   -4.8440    1.9375 C   0  0  1  0  0  0  0  0  0  0  0  0
    1.8495   -5.4717    2.7470 C   0  0  0  0  0  0  0  0  0  0  0  0
    1.3344   -5.0379    3.9411 C   0  0  0  0  0  0  0  0  0  0  0  0
    0.3198   -5.8653    4.4454 N   0  0  0  0  0  0  0  0  0  0  0  0
    0.0534   -6.8961    3.7000 N   0  0  0  0  0  0  0  0  0  0  0  0
    1.0404   -6.9489    2.3499 S   0  0  0  0  0  0  0  0  0  0  0  0
    6.8773   -4.8816   -0.1370 H   0  0  0  0  0  0  0  0  0  0  0  0
    6.3203   -3.9810    1.2903 H   0  0  0  0  0  0  0  0  0  0  0  0
    4.6096   -5.0671   -1.0089 H   0  0  0  0  0  0  0  0  0  0  0  0
    4.0941   -6.6702    1.0992 H   0  0  0  0  0  0  0  0  0  0  0  0
    2.8371   -5.3413   -0.8958 H   0  0  0  0  0  0  0  0  0  0  0  0
    4.2626   -2.9942    1.2636 H   0  0  0  0  0  0  0  0  0  0  0  0
    4.2024   -1.5307   -0.6041 H   0  0  0  0  0  0  0  0  0  0  0  0
    4.0626   -2.9030   -1.7412 H   0  0  0  0  0  0  0  0  0  0  0  0
    3.6128   -4.2787    2.6229 H   0  0  0  0  0  0  0  0  0  0  0  0
    1.6342   -4.1754    4.5102 H   0  0  0  0  0  0  0  0  0  0  0  0
  1  2  2  0
  2  9  1  0
  2  3  1  0
  3  4  1  0
  3 16  1  0
  3 17  1  0
  4  8  1  0
  4  5  1  0
  4 18  1  6
  5 10  1  0
  5  6  1  0
  5 19  1  1
  6  7  1  0
  6 20  1  0
  7  8  1  0
  7 10  1  0
  8  9  1  0
  8 21  1  1
  9 22  1  0
  9 23  1  0
 10 11  1  0
 10 24  1  1
 11 15  1  0
 11 12  2  0
 12 13  1  0
 12 25  1  0
 13 14  2  0
 14 15  1  0
M  END
>  <i_m_ct_stereo_status>  (249) 
1

>  <s_m_source_file>  (249) 
/var/tmp/pbs.5076255.sched01/tmpo609hgx5/90rinj4u0e.sdf

>  <i_m_source_file_index>  (249) 
16

>  <i_lp_mmshare_version>  (249) 
48012

>  <i_f3d_flags>  (249) 
0

>  <s_epik_input>  (249) 
Tz1DKFtDSDJdMSlbQ0gyXVtDQEhdMk4oW05IXVtDQEhdM1tDQEhdMTIpW0NASF0zYzRbY0hdbm5zNA==

>  <s_epik_cmdline>  (249) 
J2VwaWtfcHl0aG9uJywgJy1waHQnLCAnMi4wJywgJy1waCcsICc3LjAnLCAnLXRuJywgJzgnLCAnLW1hJywgJzIwMCcsICctaW1hZScsICc8aW5maWxlLm1hZT4nLCAnLW9tYWUnLCAnPG91dGZpbGUubWFlPic=

>  <r_lp_tautomer_probability>  (249) 
1

>  <r_epik_Ionization_Penalty>  (249) 
2.67406e-05

>  <r_epik_Ionization_Penalty_Charging>  (249) 
0

>  <r_epik_Ionization_Penalty_Neutral>  (249) 
2.67406e-05

>  <r_epik_State_Penalty>  (249) 
-0

>  <r_epik_Charging_Adjusted_Penalty>  (249) 
0

>  <i_epik_Tot_Q>  (249) 
0

>  <i_epik_Tot_abs_Q>  (249) 
0

>  <s_lp_Force_Field>  (249) 
OPLS3e

>  <r_lp_Energy>  (249) 
63.4952

>  <b_lp_Chiralities_Consistent>  (249) 
1

>  <s_lp_Variant>  (249) 
65:0-1

>  <s_i_glide_gridfile>  (249) 
pfpi4k_grid

>  <i_i_glide_lignum>  (249) 
16

>  <i_i_glide_rotatable_bonds>  (249) 
1

>  <r_i_docking_score>  (249) 
-4.09977

>  <r_i_glide_ligand_efficiency>  (249) 
-0.273318

>  <r_i_glide_ligand_efficiency_sa>  (249) 
-0.67406

>  <r_i_glide_ligand_efficiency_ln>  (249) 
-1.10564

>  <r_i_glide_gscore>  (249) 
-4.09977

>  <r_i_glide_lipo>  (249) 
-0.141722

>  <r_i_glide_hbond>  (249) 
-0.469152

>  <r_i_glide_metal>  (249) 
-0

>  <r_i_glide_rewards>  (249) 
-1.91793

>  <r_i_glide_evdw>  (249) 
-17.4371

>  <r_i_glide_ecoul>  (249) 
-5.93656

>  <r_i_glide_erotb>  (249) 
0.342036

>  <r_i_glide_esite>  (249) 
-0.150658

>  <r_i_glide_emodel>  (249) 
-28.8393

>  <r_i_glide_energy>  (249) 
-23.3737

>  <r_i_glide_einternal>  (249) 
2.30514

>  <r_i_glide_intrahb_reward>  (249) 
-0

>  <i_i_glide_confnum>  (249) 
2

>  <i_i_glide_posenum>  (249) 
1

>  <r_i_glide_eff_state_penalty>  (249) 
0

>  <ligand_id>  (249) 
65

>  <original_smiles>  (249) 
O=C1CC2C3NN(C2C1)C3c1cnns1

>  <smiles>  (249) 
[H]c1nnsc1C1([H])N2N([H])C1([H])C1([H])C([H])([H])C(=O)C([H])([H])C21[H]

$$$$
65:0:1
     RDKit          3D

 25 28  0  0  1  0  0  0  0  0999 V2000
    4.2090   -1.3012   -4.5181 O   0  0  0  0  0  0  0  0  0  0  0  0
    4.0344   -1.8765   -3.4494 C   0  0  0  0  0  0  0  0  0  0  0  0
    4.8240   -1.5590   -2.1556 C   0  0  0  0  0  0  0  0  0  0  0  0
    4.5543   -2.8871   -1.4658 C   0  0  1  0  0  0  0  0  0  0  0  0
    4.4466   -3.2324   -0.0125 C   0  0  2  0  0  0  0  0  0  0  0  0
    3.9435   -4.5870   -0.2327 N   0  0  0  0  0  0  0  0  0  0  0  0
    2.6794   -3.8613   -0.6173 N   0  0  0  0  0  0  0  0  0  0  0  0
    3.0783   -2.9566   -1.7111 C   0  0  2  0  0  0  0  0  0  0  0  0
    3.0340   -3.0386   -3.2271 C   0  0  0  0  0  0  0  0  0  0  0  0
    3.0208   -3.0403    0.5695 C   0  0  1  0  0  0  0  0  0  0  0  0
    2.6155   -3.5656    1.9357 C   0  0  0  0  0  0  0  0  0  0  0  0
    2.5250   -2.8557    3.0985 C   0  0  0  0  0  0  0  0  0  0  0  0
    2.1328   -3.6296    4.2003 N   0  0  0  0  0  0  0  0  0  0  0  0
    1.9322   -4.8858    3.9299 N   0  0  0  0  0  0  0  0  0  0  0  0
    2.2131   -5.2088    2.3129 S   0  0  0  0  0  0  0  0  0  0  0  0
    5.8827   -1.3829   -2.3238 H   0  0  0  0  0  0  0  0  0  0  0  0
    4.3853   -0.7011   -1.6409 H   0  0  0  0  0  0  0  0  0  0  0  0
    5.1318   -3.6541   -1.9990 H   0  0  0  0  0  0  0  0  0  0  0  0
    5.3233   -3.1677    0.6383 H   0  0  0  0  0  0  0  0  0  0  0  0
    4.2969   -5.0269   -1.0747 H   0  0  0  0  0  0  0  0  0  0  0  0
    2.5691   -2.0202   -1.4960 H   0  0  0  0  0  0  0  0  0  0  0  0
    2.0534   -2.8437   -3.6598 H   0  0  0  0  0  0  0  0  0  0  0  0
    3.4379   -3.9732   -3.6147 H   0  0  0  0  0  0  0  0  0  0  0  0
    2.6781   -2.0045    0.4822 H   0  0  0  0  0  0  0  0  0  0  0  0
    2.7183   -1.8051    3.2348 H   0  0  0  0  0  0  0  0  0  0  0  0
  1  2  2  0
  2  9  1  0
  2  3  1  0
  3  4  1  0
  3 16  1  0
  3 17  1  0
  4  8  1  0
  4  5  1  0
  4 18  1  6
  5 10  1  0
  5  6  1  0
  5 19  1  1
  6  7  1  0
  6 20  1  0
  7  8  1  0
  7 10  1  0
  8  9  1  0
  8 21  1  1
  9 22  1  0
  9 23  1  0
 10 11  1  0
 10 24  1  6
 11 15  1  0
 11 12  2  0
 12 13  1  0
 12 25  1  0
 13 14  2  0
 14 15  1  0
M  END
>  <i_m_ct_stereo_status>  (250) 
1

>  <s_m_source_file>  (250) 
/var/tmp/pbs.5076255.sched01/tmpo609hgx5/90rinj4u0e.sdf

>  <i_m_source_file_index>  (250) 
16

>  <i_lp_mmshare_version>  (250) 
48012

>  <i_f3d_flags>  (250) 
0

>  <s_epik_input>  (250) 
Tz1DKFtDSDJdMSlbQ0gyXVtDQEhdMk4oW05IXVtDQEhdM1tDQEhdMTIpW0NASF0zYzRbY0hdbm5zNA==

>  <s_epik_cmdline>  (250) 
J2VwaWtfcHl0aG9uJywgJy1waHQnLCAnMi4wJywgJy1waCcsICc3LjAnLCAnLXRuJywgJzgnLCAnLW1hJywgJzIwMCcsICctaW1hZScsICc8aW5maWxlLm1hZT4nLCAnLW9tYWUnLCAnPG91dGZpbGUubWFlPic=

>  <r_lp_tautomer_probability>  (250) 
1

>  <r_epik_Ionization_Penalty>  (250) 
2.67406e-05

>  <r_epik_Ionization_Penalty_Charging>  (250) 
0

>  <r_epik_Ionization_Penalty_Neutral>  (250) 
2.67406e-05

>  <r_epik_State_Penalty>  (250) 
-0

>  <r_epik_Charging_Adjusted_Penalty>  (250) 
0

>  <i_epik_Tot_Q>  (250) 
0

>  <i_epik_Tot_abs_Q>  (250) 
0

>  <s_lp_Force_Field>  (250) 
OPLS3e

>  <r_lp_Energy>  (250) 
63.4952

>  <b_lp_Chiralities_Consistent>  (250) 
1

>  <s_lp_Variant>  (250) 
65:0-1

>  <s_i_glide_gridfile>  (250) 
pfpi4k_grid

>  <i_i_glide_lignum>  (250) 
16

>  <i_i_glide_rotatable_bonds>  (250) 
1

>  <r_i_docking_score>  (250) 
-4.04667

>  <r_i_glide_ligand_efficiency>  (250) 
-0.269778

>  <r_i_glide_ligand_efficiency_sa>  (250) 
-0.665329

>  <r_i_glide_ligand_efficiency_ln>  (250) 
-1.09132

>  <r_i_glide_gscore>  (250) 
-4.04667

>  <r_i_glide_lipo>  (250) 
-0.126518

>  <r_i_glide_hbond>  (250) 
-0.372509

>  <r_i_glide_metal>  (250) 
-0

>  <r_i_glide_rewards>  (250) 
-2.14417

>  <r_i_glide_evdw>  (250) 
-20.4121

>  <r_i_glide_ecoul>  (250) 
-4.39886

>  <r_i_glide_erotb>  (250) 
0.342036

>  <r_i_glide_esite>  (250) 
-0.0650724

>  <r_i_glide_emodel>  (250) 
-30.8816

>  <r_i_glide_energy>  (250) 
-24.811

>  <r_i_glide_einternal>  (250) 
0.866218

>  <r_i_glide_intrahb_reward>  (250) 
-0

>  <i_i_glide_confnum>  (250) 
2

>  <i_i_glide_posenum>  (250) 
25

>  <r_i_glide_eff_state_penalty>  (250) 
0

>  <ligand_id>  (250) 
65

>  <original_smiles>  (250) 
O=C1CC2C3NN(C2C1)C3c1cnns1

>  <smiles>  (250) 
[H]c1nnsc1C1([H])N2N([H])C1([H])C1([H])C([H])([H])C(=O)C([H])([H])C21[H]

$$$$
65:0:2
     RDKit          3D

 25 28  0  0  1  0  0  0  0  0999 V2000
   -1.3775    4.8768    3.8721 O   0  0  0  0  0  0  0  0  0  0  0  0
   -0.8460    3.7844    3.6794 C   0  0  0  0  0  0  0  0  0  0  0  0
    0.6810    3.5359    3.6986 C   0  0  0  0  0  0  0  0  0  0  0  0
    0.6445    2.2265    2.9163 C   0  0  1  0  0  0  0  0  0  0  0  0
    1.5456    1.0316    2.9395 C   0  0  2  0  0  0  0  0  0  0  0  0
    0.6953    0.1766    2.1087 N   0  0  0  0  0  0  0  0  0  0  0  0
   -0.1755    0.1486    3.3368 N   0  0  0  0  0  0  0  0  0  0  0  0
   -0.4702    1.5547    3.6606 C   0  0  2  0  0  0  0  0  0  0  0  0
   -1.6270    2.4915    3.3560 C   0  0  0  0  0  0  0  0  0  0  0  0
    1.1409   -0.0118    4.0109 C   0  0  1  0  0  0  0  0  0  0  0  0
    1.7228   -1.3992    4.0470 C   0  0  0  0  0  0  0  0  0  0  0  0
    1.1176   -2.6198    3.9526 C   0  0  0  0  0  0  0  0  0  0  0  0
    2.0214   -3.6883    4.0569 N   0  0  0  0  0  0  0  0  0  0  0  0
    3.2618   -3.3273    4.2186 N   0  0  0  0  0  0  0  0  0  0  0  0
    3.4106   -1.6637    4.2562 S   0  0  0  0  0  0  0  0  0  0  0  0
    1.2488    4.3195    3.1984 H   0  0  0  0  0  0  0  0  0  0  0  0
    1.0372    3.4154    4.7207 H   0  0  0  0  0  0  0  0  0  0  0  0
    0.3923    2.4787    1.8788 H   0  0  0  0  0  0  0  0  0  0  0  0
    2.5801    1.1144    2.5951 H   0  0  0  0  0  0  0  0  0  0  0  0
    0.2135    0.6907    1.3784 H   0  0  0  0  0  0  0  0  0  0  0  0
   -0.3754    1.6114    4.7492 H   0  0  0  0  0  0  0  0  0  0  0  0
   -2.4956    2.3541    3.9971 H   0  0  0  0  0  0  0  0  0  0  0  0
   -1.9242    2.4715    2.3101 H   0  0  0  0  0  0  0  0  0  0  0  0
    1.1801    0.4061    5.0192 H   0  0  0  0  0  0  0  0  0  0  0  0
    0.0667   -2.8257    3.8253 H   0  0  0  0  0  0  0  0  0  0  0  0
  1  2  2  0
  2  9  1  0
  2  3  1  0
  3  4  1  0
  3 16  1  0
  3 17  1  0
  4  8  1  0
  4  5  1  0
  4 18  1  6
  5 10  1  0
  5  6  1  0
  5 19  1  6
  6  7  1  0
  6 20  1  0
  7  8  1  0
  7 10  1  0
  8  9  1  0
  8 21  1  1
  9 22  1  0
  9 23  1  0
 10 11  1  0
 10 24  1  1
 11 15  1  0
 11 12  2  0
 12 13  1  0
 12 25  1  0
 13 14  2  0
 14 15  1  0
M  END
>  <i_m_ct_stereo_status>  (251) 
1

>  <s_m_source_file>  (251) 
/var/tmp/pbs.5076255.sched01/tmpo609hgx5/90rinj4u0e.sdf

>  <i_m_source_file_index>  (251) 
16

>  <i_lp_mmshare_version>  (251) 
48012

>  <i_f3d_flags>  (251) 
0

>  <s_epik_input>  (251) 
Tz1DKFtDSDJdMSlbQ0gyXVtDQEhdMk4oW05IXVtDQEhdM1tDQEhdMTIpW0NASF0zYzRbY0hdbm5zNA==

>  <s_epik_cmdline>  (251) 
J2VwaWtfcHl0aG9uJywgJy1waHQnLCAnMi4wJywgJy1waCcsICc3LjAnLCAnLXRuJywgJzgnLCAnLW1hJywgJzIwMCcsICctaW1hZScsICc8aW5maWxlLm1hZT4nLCAnLW9tYWUnLCAnPG91dGZpbGUubWFlPic=

>  <r_lp_tautomer_probability>  (251) 
1

>  <r_epik_Ionization_Penalty>  (251) 
2.67406e-05

>  <r_epik_Ionization_Penalty_Charging>  (251) 
0

>  <r_epik_Ionization_Penalty_Neutral>  (251) 
2.67406e-05

>  <r_epik_State_Penalty>  (251) 
-0

>  <r_epik_Charging_Adjusted_Penalty>  (251) 
0

>  <i_epik_Tot_Q>  (251) 
0

>  <i_epik_Tot_abs_Q>  (251) 
0

>  <s_lp_Force_Field>  (251) 
OPLS3e

>  <r_lp_Energy>  (251) 
63.4952

>  <b_lp_Chiralities_Consistent>  (251) 
1

>  <s_lp_Variant>  (251) 
65:0-1

>  <s_i_glide_gridfile>  (251) 
pfpi4k_grid

>  <i_i_glide_lignum>  (251) 
16

>  <i_i_glide_rotatable_bonds>  (251) 
1

>  <r_i_docking_score>  (251) 
-3.2198

>  <r_i_glide_ligand_efficiency>  (251) 
-0.214653

>  <r_i_glide_ligand_efficiency_sa>  (251) 
-0.52938

>  <r_i_glide_ligand_efficiency_ln>  (251) 
-0.868327

>  <r_i_glide_gscore>  (251) 
-3.2198

>  <r_i_glide_lipo>  (251) 
-0.0335616

>  <r_i_glide_hbond>  (251) 
-0.144325

>  <r_i_glide_metal>  (251) 
-0

>  <r_i_glide_rewards>  (251) 
-1.89363

>  <r_i_glide_evdw>  (251) 
-13.8875

>  <r_i_glide_ecoul>  (251) 
-4.08454

>  <r_i_glide_erotb>  (251) 
0.342036

>  <r_i_glide_esite>  (251) 
-0.183263

>  <r_i_glide_emodel>  (251) 
-23.1707

>  <r_i_glide_energy>  (251) 
-17.9721

>  <r_i_glide_einternal>  (251) 
0.00334123

>  <r_i_glide_intrahb_reward>  (251) 
-0

>  <i_i_glide_confnum>  (251) 
1

>  <i_i_glide_posenum>  (251) 
26

>  <r_i_glide_eff_state_penalty>  (251) 
0

>  <ligand_id>  (251) 
65

>  <original_smiles>  (251) 
O=C1CC2C3NN(C2C1)C3c1cnns1

>  <smiles>  (251) 
[H]c1nnsc1C1([H])N2N([H])C1([H])C1([H])C([H])([H])C(=O)C([H])([H])C21[H]

$$$$
66:0:0
     RDKit          3D

 34 36  0  0  1  0  0  0  0  0999 V2000
    6.5847   -2.3324    0.2671 C   0  0  0  0  0  0  0  0  0  0  0  0
    5.4127   -2.5092    1.0244 C   0  0  0  0  0  0  0  0  0  0  0  0
    4.1784   -2.1921    0.4318 C   0  0  0  0  0  0  0  0  0  0  0  0
    2.8827   -2.3605    1.1883 C   0  0  0  0  0  0  0  0  0  0  0  0
    2.6801   -1.2863    2.1873 N   0  0  2  0  0  0  0  0  0  0  0  0
    1.3439   -1.2895    2.8014 C   0  0  0  0  0  0  0  0  0  0  0  0
    1.2260    0.0692    3.5071 C   0  0  2  0  0  0  0  0  0  0  0  0
   -0.1359    0.7645    3.3512 C   0  0  0  0  0  0  0  0  0  0  0  0
    0.0281    1.6910    2.2152 N   0  0  0  0  0  0  0  0  0  0  0  0
    1.4221    2.1507    2.2512 C   0  0  0  0  0  0  0  0  0  0  0  0
    2.2363    0.9735    2.7831 C   0  0  2  0  0  0  0  0  0  0  0  0
    2.8581    0.0918    1.6917 C   0  0  0  0  0  0  0  0  0  0  0  0
    4.1656   -1.6810   -0.8828 C   0  0  0  0  0  0  0  0  0  0  0  0
    5.3901   -1.5483   -1.5534 C   0  0  0  0  0  0  0  0  0  0  0  0
    6.5834   -1.8561   -0.9977 N   0  0  0  0  0  0  0  0  0  0  0  0
    7.5499   -2.5705    0.6872 H   0  0  0  0  0  0  0  0  0  0  0  0
    5.4722   -2.8837    2.0392 H   0  0  0  0  0  0  0  0  0  0  0  0
    2.0615   -2.3646    0.4733 H   0  0  0  0  0  0  0  0  0  0  0  0
    2.8652   -3.3336    1.6828 H   0  0  0  0  0  0  0  0  0  0  0  0
    0.6119   -1.3380    1.9966 H   0  0  0  0  0  0  0  0  0  0  0  0
    1.1717   -2.1426    3.4613 H   0  0  0  0  0  0  0  0  0  0  0  0
    1.4955   -0.0453    4.5609 H   0  0  0  0  0  0  0  0  0  0  0  0
   -0.9687    0.0758    3.2117 H   0  0  0  0  0  0  0  0  0  0  0  0
   -0.3375    1.3555    4.2428 H   0  0  0  0  0  0  0  0  0  0  0  0
   -0.1268    1.1941    1.3479 H   0  0  0  0  0  0  0  0  0  0  0  0
    1.7574    2.5153    1.2811 H   0  0  0  0  0  0  0  0  0  0  0  0
    1.4803    2.9844    2.9525 H   0  0  0  0  0  0  0  0  0  0  0  0
    3.0147    1.3148    3.4683 H   0  0  0  0  0  0  0  0  0  0  0  0
    3.8993    0.3549    1.4902 H   0  0  0  0  0  0  0  0  0  0  0  0
    2.2980    0.1887    0.7598 H   0  0  0  0  0  0  0  0  0  0  0  0
    3.2435   -1.3969   -1.3694 H   0  0  0  0  0  0  0  0  0  0  0  0
    5.4113   -1.1622   -2.5634 H   0  0  0  0  0  0  0  0  0  0  0  0
   -0.5983    2.4847    2.2587 H   0  0  0  0  0  0  0  0  0  0  0  0
    3.3542   -1.4064    2.9277 H   0  0  0  0  0  0  0  0  0  0  0  0
  1 15  2  0
  1  2  1  0
  1 16  1  0
  2  3  2  0
  2 17  1  0
  3  4  1  0
  3 13  1  0
  4  5  1  0
  4 18  1  0
  4 19  1  0
  5 12  1  0
  5  6  1  0
  5 34  1  1
  6  7  1  0
  6 20  1  0
  6 21  1  0
  7 11  1  0
  7  8  1  0
  7 22  1  1
  8  9  1  0
  8 23  1  0
  8 24  1  0
  9 10  1  0
  9 25  1  0
  9 33  1  0
 10 11  1  0
 10 26  1  0
 10 27  1  0
 11 12  1  0
 11 28  1  1
 12 29  1  0
 12 30  1  0
 13 14  2  0
 13 31  1  0
 14 15  1  0
 14 32  1  0
M  CHG  2   5   1   9   1
M  END
>  <i_m_ct_stereo_status>  (252) 
1

>  <s_m_source_file>  (252) 
/var/tmp/pbs.5076255.sched01/tmpo609hgx5/90rinj4u0e.sdf

>  <i_m_source_file_index>  (252) 
17

>  <i_lp_mmshare_version>  (252) 
48012

>  <i_f3d_flags>  (252) 
0

>  <s_epik_input>  (252) 
W2NIXTFbY0hdbltjSF1bY0hdYzFbQ0gyXU4oW0NIMl0yKVtDSDJdW0NASF0oW0NASF0yMylbQ0gyXVtOSF1bQ0gyXTM=

>  <s_epik_cmdline>  (252) 
J2VwaWtfcHl0aG9uJywgJy1waHQnLCAnMi4wJywgJy1waCcsICc3LjAnLCAnLXRuJywgJzgnLCAnLW1hJywgJzIwMCcsICctaW1hZScsICc8aW5maWxlLm1hZT4nLCAnLW9tYWUnLCAnPG91dGZpbGUubWFlPic=

>  <r_epik_Ionization_Penalty>  (252) 
0.0140837

>  <r_epik_Ionization_Penalty_Charging>  (252) 
0.0139666

>  <r_epik_Ionization_Penalty_Neutral>  (252) 
0.000117087

>  <r_epik_State_Penalty>  (252) 
0.0673876

>  <r_epik_Charging_Adjusted_Penalty>  (252) 
0.0813542

>  <i_epik_Tot_Q>  (252) 
2

>  <i_epik_Tot_abs_Q>  (252) 
2

>  <s_lp_Force_Field>  (252) 
OPLS3e

>  <r_lp_Energy>  (252) 
31.9157

>  <b_lp_Chiralities_Consistent>  (252) 
1

>  <s_lp_Variant>  (252) 
66:0-1

>  <s_i_glide_gridfile>  (252) 
pfpi4k_grid

>  <i_i_glide_lignum>  (252) 
17

>  <i_i_glide_rotatable_bonds>  (252) 
2

>  <r_i_docking_score>  (252) 
-3.99877

>  <r_i_glide_ligand_efficiency>  (252) 
-0.266584

>  <r_i_glide_ligand_efficiency_sa>  (252) 
-0.657454

>  <r_i_glide_ligand_efficiency_ln>  (252) 
-1.0784

>  <r_i_glide_gscore>  (252) 
-3.99877

>  <r_i_glide_lipo>  (252) 
-0.119589

>  <r_i_glide_hbond>  (252) 
-0.16

>  <r_i_glide_metal>  (252) 
-0

>  <r_i_glide_rewards>  (252) 
-2.00932

>  <r_i_glide_evdw>  (252) 
-16.1992

>  <r_i_glide_ecoul>  (252) 
-10.5722

>  <r_i_glide_erotb>  (252) 
0.781776

>  <r_i_glide_esite>  (252) 
-0.0958406

>  <r_i_glide_emodel>  (252) 
-35.4975

>  <r_i_glide_energy>  (252) 
-26.7714

>  <r_i_glide_einternal>  (252) 
0.889409

>  <r_i_glide_intrahb_reward>  (252) 
-0

>  <i_i_glide_confnum>  (252) 
4

>  <i_i_glide_posenum>  (252) 
13

>  <r_i_glide_eff_state_penalty>  (252) 
0

>  <ligand_id>  (252) 
66

>  <original_smiles>  (252) 
c1cc(CN2CC3CNCC3C2)ccn1

>  <smiles>  (252) 
[H]c1nc([H])c([H])c(C([H])([H])[N+]2([H])C([H])([H])C3([H])C([H])(C([H])([H])[N+]([H])([H])C3([H])[H])C2([H])[H])c1[H]

$$$$
66:0:1
     RDKit          3D

 34 36  0  0  1  0  0  0  0  0999 V2000
   -2.6194    2.9839    4.9142 C   0  0  0  0  0  0  0  0  0  0  0  0
   -1.7781    2.7150    3.8240 C   0  0  0  0  0  0  0  0  0  0  0  0
   -0.3918    2.8192    4.0162 C   0  0  0  0  0  0  0  0  0  0  0  0
    0.5512    2.5724    2.8722 C   0  0  0  0  0  0  0  0  0  0  0  0
    1.5218    1.5071    3.1673 N   0  0  2  0  0  0  0  0  0  0  0  0
    2.6193    1.4404    2.1978 C   0  0  0  0  0  0  0  0  0  0  0  0
    3.3077    0.0978    2.4661 C   0  0  2  0  0  0  0  0  0  0  0  0
    3.7324   -0.6594    1.1979 C   0  0  0  0  0  0  0  0  0  0  0  0
    2.6254   -1.5886    0.9075 N   0  0  0  0  0  0  0  0  0  0  0  0
    2.0576   -1.9827    2.2112 C   0  0  0  0  0  0  0  0  0  0  0  0
    2.2164   -0.7624    3.1264 C   0  0  2  0  0  0  0  0  0  0  0  0
    0.9731    0.1424    3.1929 C   0  0  0  0  0  0  0  0  0  0  0  0
    0.0986    3.1809    5.2899 C   0  0  0  0  0  0  0  0  0  0  0  0
   -0.8341    3.4247    6.3138 C   0  0  0  0  0  0  0  0  0  0  0  0
   -2.1665    3.3320    6.1357 N   0  0  0  0  0  0  0  0  0  0  0  0
   -3.6911    2.9412    4.7954 H   0  0  0  0  0  0  0  0  0  0  0  0
   -2.1998    2.4553    2.8615 H   0  0  0  0  0  0  0  0  0  0  0  0
   -0.0091    2.3251    1.9705 H   0  0  0  0  0  0  0  0  0  0  0  0
    1.0739    3.5013    2.6545 H   0  0  0  0  0  0  0  0  0  0  0  0
    2.1965    1.4521    1.1919 H   0  0  0  0  0  0  0  0  0  0  0  0
    3.2968    2.2894    2.3011 H   0  0  0  0  0  0  0  0  0  0  0  0
    4.1542    0.2406    3.1420 H   0  0  0  0  0  0  0  0  0  0  0  0
    3.9637   -0.0115    0.3534 H   0  0  0  0  0  0  0  0  0  0  0  0
    4.6208   -1.2547    1.4199 H   0  0  0  0  0  0  0  0  0  0  0  0
    1.9150   -1.1179    0.3375 H   0  0  0  0  0  0  0  0  0  0  0  0
    1.0244   -2.3105    2.1252 H   0  0  0  0  0  0  0  0  0  0  0  0
    2.6543   -2.8074    2.6071 H   0  0  0  0  0  0  0  0  0  0  0  0
    2.5186   -1.0585    4.1355 H   0  0  0  0  0  0  0  0  0  0  0  0
    0.3515   -0.0485    4.0694 H   0  0  0  0  0  0  0  0  0  0  0  0
    0.3551   -0.0041    2.3041 H   0  0  0  0  0  0  0  0  0  0  0  0
    1.1546    3.2820    5.4853 H   0  0  0  0  0  0  0  0  0  0  0  0
   -0.5022    3.7086    7.3021 H   0  0  0  0  0  0  0  0  0  0  0  0
    2.9568   -2.3929    0.3928 H   0  0  0  0  0  0  0  0  0  0  0  0
    1.9354    1.6953    4.0725 H   0  0  0  0  0  0  0  0  0  0  0  0
  1 15  2  0
  1  2  1  0
  1 16  1  0
  2  3  2  0
  2 17  1  0
  3  4  1  0
  3 13  1  0
  4  5  1  0
  4 18  1  0
  4 19  1  0
  5 12  1  0
  5  6  1  0
  5 34  1  1
  6  7  1  0
  6 20  1  0
  6 21  1  0
  7 11  1  0
  7  8  1  0
  7 22  1  1
  8  9  1  0
  8 23  1  0
  8 24  1  0
  9 10  1  0
  9 25  1  0
  9 33  1  0
 10 11  1  0
 10 26  1  0
 10 27  1  0
 11 12  1  0
 11 28  1  1
 12 29  1  0
 12 30  1  0
 13 14  2  0
 13 31  1  0
 14 15  1  0
 14 32  1  0
M  CHG  2   5   1   9   1
M  END
>  <i_m_ct_stereo_status>  (253) 
1

>  <s_m_source_file>  (253) 
/var/tmp/pbs.5076255.sched01/tmpo609hgx5/90rinj4u0e.sdf

>  <i_m_source_file_index>  (253) 
17

>  <i_lp_mmshare_version>  (253) 
48012

>  <i_f3d_flags>  (253) 
0

>  <s_epik_input>  (253) 
W2NIXTFbY0hdbltjSF1bY0hdYzFbQ0gyXU4oW0NIMl0yKVtDSDJdW0NASF0oW0NASF0yMylbQ0gyXVtOSF1bQ0gyXTM=

>  <s_epik_cmdline>  (253) 
J2VwaWtfcHl0aG9uJywgJy1waHQnLCAnMi4wJywgJy1waCcsICc3LjAnLCAnLXRuJywgJzgnLCAnLW1hJywgJzIwMCcsICctaW1hZScsICc8aW5maWxlLm1hZT4nLCAnLW9tYWUnLCAnPG91dGZpbGUubWFlPic=

>  <r_epik_Ionization_Penalty>  (253) 
0.0140837

>  <r_epik_Ionization_Penalty_Charging>  (253) 
0.0139666

>  <r_epik_Ionization_Penalty_Neutral>  (253) 
0.000117087

>  <r_epik_State_Penalty>  (253) 
0.0673876

>  <r_epik_Charging_Adjusted_Penalty>  (253) 
0.0813542

>  <i_epik_Tot_Q>  (253) 
2

>  <i_epik_Tot_abs_Q>  (253) 
2

>  <s_lp_Force_Field>  (253) 
OPLS3e

>  <r_lp_Energy>  (253) 
31.9157

>  <b_lp_Chiralities_Consistent>  (253) 
1

>  <s_lp_Variant>  (253) 
66:0-1

>  <s_i_glide_gridfile>  (253) 
pfpi4k_grid

>  <i_i_glide_lignum>  (253) 
17

>  <i_i_glide_rotatable_bonds>  (253) 
2

>  <r_i_docking_score>  (253) 
-3.94011

>  <r_i_glide_ligand_efficiency>  (253) 
-0.262674

>  <r_i_glide_ligand_efficiency_sa>  (253) 
-0.64781

>  <r_i_glide_ligand_efficiency_ln>  (253) 
-1.06258

>  <r_i_glide_gscore>  (253) 
-3.94011

>  <r_i_glide_lipo>  (253) 
-0.0330526

>  <r_i_glide_hbond>  (253) 
-0.2

>  <r_i_glide_metal>  (253) 
-0

>  <r_i_glide_rewards>  (253) 
-2.00932

>  <r_i_glide_evdw>  (253) 
-12.9155

>  <r_i_glide_ecoul>  (253) 
-11.7224

>  <r_i_glide_erotb>  (253) 
0.781776

>  <r_i_glide_esite>  (253) 
-0.0753834

>  <r_i_glide_emodel>  (253) 
-33.2406

>  <r_i_glide_energy>  (253) 
-24.6379

>  <r_i_glide_einternal>  (253) 
0.902676

>  <r_i_glide_intrahb_reward>  (253) 
-0

>  <i_i_glide_confnum>  (253) 
2

>  <i_i_glide_posenum>  (253) 
10

>  <r_i_glide_eff_state_penalty>  (253) 
0

>  <ligand_id>  (253) 
66

>  <original_smiles>  (253) 
c1cc(CN2CC3CNCC3C2)ccn1

>  <smiles>  (253) 
[H]c1nc([H])c([H])c(C([H])([H])[N+]2([H])C([H])([H])C3([H])C([H])(C([H])([H])[N+]([H])([H])C3([H])[H])C2([H])[H])c1[H]

$$$$
66:0:2
     RDKit          3D

 34 36  0  0  1  0  0  0  0  0999 V2000
    2.9630   -2.9411   -2.8934 C   0  0  0  0  0  0  0  0  0  0  0  0
    3.7327   -3.2798   -1.7589 C   0  0  0  0  0  0  0  0  0  0  0  0
    4.6093   -2.3200   -1.2275 C   0  0  0  0  0  0  0  0  0  0  0  0
    5.4047   -2.6105    0.0367 C   0  0  0  0  0  0  0  0  0  0  0  0
    4.7448   -2.1038    1.2649 N   0  0  2  0  0  0  0  0  0  0  0  0
    3.3300   -2.4906    1.4596 C   0  0  0  0  0  0  0  0  0  0  0  0
    2.8240   -1.5703    2.5861 C   0  0  2  0  0  0  0  0  0  0  0  0
    1.4142   -1.0033    2.3403 C   0  0  0  0  0  0  0  0  0  0  0  0
    1.6198    0.3099    1.7155 N   0  0  0  0  0  0  0  0  0  0  0  0
    2.8547    0.8596    2.2990 C   0  0  0  0  0  0  0  0  0  0  0  0
    3.7654   -0.3513    2.5683 C   0  0  2  0  0  0  0  0  0  0  0  0
    4.7625   -0.6362    1.4349 C   0  0  0  0  0  0  0  0  0  0  0  0
    4.6770   -1.0568   -1.8488 C   0  0  0  0  0  0  0  0  0  0  0  0
    3.8513   -0.8099   -2.9633 C   0  0  0  0  0  0  0  0  0  0  0  0
    3.0172   -1.7307   -3.4837 N   0  0  0  0  0  0  0  0  0  0  0  0
    2.2639   -3.6499   -3.3158 H   0  0  0  0  0  0  0  0  0  0  0  0
    3.6155   -4.2571   -1.3101 H   0  0  0  0  0  0  0  0  0  0  0  0
    5.5569   -3.6892    0.1301 H   0  0  0  0  0  0  0  0  0  0  0  0
    6.4099   -2.1889   -0.0484 H   0  0  0  0  0  0  0  0  0  0  0  0
    2.7403   -2.2738    0.5641 H   0  0  0  0  0  0  0  0  0  0  0  0
    3.2064   -3.5535    1.6853 H   0  0  0  0  0  0  0  0  0  0  0  0
    2.8800   -2.0905    3.5487 H   0  0  0  0  0  0  0  0  0  0  0  0
    0.7966   -1.6407    1.7097 H   0  0  0  0  0  0  0  0  0  0  0  0
    0.9077   -0.8581    3.2918 H   0  0  0  0  0  0  0  0  0  0  0  0
    1.7103    0.1622    0.7111 H   0  0  0  0  0  0  0  0  0  0  0  0
    3.3111    1.6204    1.6695 H   0  0  0  0  0  0  0  0  0  0  0  0
    2.6046    1.3360    3.2436 H   0  0  0  0  0  0  0  0  0  0  0  0
    4.2969   -0.2487    3.5204 H   0  0  0  0  0  0  0  0  0  0  0  0
    5.7658   -0.2479    1.6312 H   0  0  0  0  0  0  0  0  0  0  0  0
    4.3780   -0.1436    0.5404 H   0  0  0  0  0  0  0  0  0  0  0  0
    5.3026   -0.2658   -1.4684 H   0  0  0  0  0  0  0  0  0  0  0  0
    3.8383    0.1707   -3.4156 H   0  0  0  0  0  0  0  0  0  0  0  0
    0.8295    0.9314    1.8704 H   0  0  0  0  0  0  0  0  0  0  0  0
    5.2472   -2.4793    2.0577 H   0  0  0  0  0  0  0  0  0  0  0  0
  1 15  2  0
  1  2  1  0
  1 16  1  0
  2  3  2  0
  2 17  1  0
  3  4  1  0
  3 13  1  0
  4  5  1  0
  4 18  1  0
  4 19  1  0
  5 12  1  0
  5  6  1  0
  5 34  1  1
  6  7  1  0
  6 20  1  0
  6 21  1  0
  7 11  1  0
  7  8  1  0
  7 22  1  1
  8  9  1  0
  8 23  1  0
  8 24  1  0
  9 10  1  0
  9 25  1  0
  9 33  1  0
 10 11  1  0
 10 26  1  0
 10 27  1  0
 11 12  1  0
 11 28  1  1
 12 29  1  0
 12 30  1  0
 13 14  2  0
 13 31  1  0
 14 15  1  0
 14 32  1  0
M  CHG  2   5   1   9   1
M  END
>  <i_m_ct_stereo_status>  (254) 
1

>  <s_m_source_file>  (254) 
/var/tmp/pbs.5076255.sched01/tmpo609hgx5/90rinj4u0e.sdf

>  <i_m_source_file_index>  (254) 
17

>  <i_lp_mmshare_version>  (254) 
48012

>  <i_f3d_flags>  (254) 
0

>  <s_epik_input>  (254) 
W2NIXTFbY0hdbltjSF1bY0hdYzFbQ0gyXU4oW0NIMl0yKVtDSDJdW0NASF0oW0NASF0yMylbQ0gyXVtOSF1bQ0gyXTM=

>  <s_epik_cmdline>  (254) 
J2VwaWtfcHl0aG9uJywgJy1waHQnLCAnMi4wJywgJy1waCcsICc3LjAnLCAnLXRuJywgJzgnLCAnLW1hJywgJzIwMCcsICctaW1hZScsICc8aW5maWxlLm1hZT4nLCAnLW9tYWUnLCAnPG91dGZpbGUubWFlPic=

>  <r_epik_Ionization_Penalty>  (254) 
0.0140837

>  <r_epik_Ionization_Penalty_Charging>  (254) 
0.0139666

>  <r_epik_Ionization_Penalty_Neutral>  (254) 
0.000117087

>  <r_epik_State_Penalty>  (254) 
0.0673876

>  <r_epik_Charging_Adjusted_Penalty>  (254) 
0.0813542

>  <i_epik_Tot_Q>  (254) 
2

>  <i_epik_Tot_abs_Q>  (254) 
2

>  <s_lp_Force_Field>  (254) 
OPLS3e

>  <r_lp_Energy>  (254) 
31.9157

>  <b_lp_Chiralities_Consistent>  (254) 
1

>  <s_lp_Variant>  (254) 
66:0-1

>  <s_i_glide_gridfile>  (254) 
pfpi4k_grid

>  <i_i_glide_lignum>  (254) 
17

>  <i_i_glide_rotatable_bonds>  (254) 
2

>  <r_i_docking_score>  (254) 
-3.93239

>  <r_i_glide_ligand_efficiency>  (254) 
-0.262159

>  <r_i_glide_ligand_efficiency_sa>  (254) 
-0.64654

>  <r_i_glide_ligand_efficiency_ln>  (254) 
-1.0605

>  <r_i_glide_gscore>  (254) 
-3.93239

>  <r_i_glide_lipo>  (254) 
-0.294158

>  <r_i_glide_hbond>  (254) 
-0.116749

>  <r_i_glide_metal>  (254) 
-0

>  <r_i_glide_rewards>  (254) 
-2.00932

>  <r_i_glide_evdw>  (254) 
-20.5915

>  <r_i_glide_ecoul>  (254) 
-7.94603

>  <r_i_glide_erotb>  (254) 
0.781776

>  <r_i_glide_esite>  (254) 
-0.0724563

>  <r_i_glide_emodel>  (254) 
-35.0323

>  <r_i_glide_energy>  (254) 
-28.5376

>  <r_i_glide_einternal>  (254) 
4.67116

>  <r_i_glide_intrahb_reward>  (254) 
-0

>  <i_i_glide_confnum>  (254) 
4

>  <i_i_glide_posenum>  (254) 
4

>  <r_i_glide_eff_state_penalty>  (254) 
0

>  <ligand_id>  (254) 
66

>  <original_smiles>  (254) 
c1cc(CN2CC3CNCC3C2)ccn1

>  <smiles>  (254) 
[H]c1nc([H])c([H])c(C([H])([H])[N+]2([H])C([H])([H])C3([H])C([H])(C([H])([H])[N+]([H])([H])C3([H])[H])C2([H])[H])c1[H]

$$$$
66:1:0
     RDKit          3D

 34 36  0  0  1  0  0  0  0  0999 V2000
    0.5876   -9.0648   10.0566 C   0  0  0  0  0  0  0  0  0  0  0  0
    1.7389   -9.7482    9.6297 C   0  0  0  0  0  0  0  0  0  0  0  0
    2.3446   -9.3841    8.3941 C   0  0  0  0  0  0  0  0  0  0  0  0
    3.5811  -10.1267    7.9021 C   0  0  0  0  0  0  0  0  0  0  0  0
    3.4818  -10.6885    6.5228 N   0  0  1  0  0  0  0  0  0  0  0  0
    3.1477   -9.6977    5.4758 C   0  0  0  0  0  0  0  0  0  0  0  0
    3.5933  -10.2769    4.1468 C   0  0  2  0  0  0  0  0  0  0  0  0
    2.4521  -10.9901    3.4102 C   0  0  0  0  0  0  0  0  0  0  0  0
    3.0457  -12.2309    2.9002 N   0  0  0  0  0  0  0  0  0  0  0  0
    4.0139  -12.6529    3.9305 C   0  0  0  0  0  0  0  0  0  0  0  0
    4.6245  -11.3648    4.4977 C   0  0  2  0  0  0  0  0  0  0  0  0
    4.7256  -11.3440    6.0395 C   0  0  0  0  0  0  0  0  0  0  0  0
    1.7782   -8.3072    7.6916 C   0  0  0  0  0  0  0  0  0  0  0  0
    0.5899   -7.7377    8.1569 C   0  0  0  0  0  0  0  0  0  0  0  0
   -0.0068   -8.1183    9.3088 N   0  0  0  0  0  0  0  0  0  0  0  0
    0.1209   -9.2860   11.0181 H   0  0  0  0  0  0  0  0  0  0  0  0
    2.1435  -10.5418   10.2378 H   0  0  0  0  0  0  0  0  0  0  0  0
    4.4445   -9.4716    8.0094 H   0  0  0  0  0  0  0  0  0  0  0  0
    3.7896  -10.9650    8.5652 H   0  0  0  0  0  0  0  0  0  0  0  0
    2.0937   -9.3958    5.4691 H   0  0  0  0  0  0  0  0  0  0  0  0
    3.7508   -8.8033    5.6287 H   0  0  0  0  0  0  0  0  0  0  0  0
    4.0418   -9.5245    3.4888 H   0  0  0  0  0  0  0  0  0  0  0  0
    1.6655  -11.2744    4.1139 H   0  0  0  0  0  0  0  0  0  0  0  0
    1.9931  -10.3791    2.6293 H   0  0  0  0  0  0  0  0  0  0  0  0
    2.3344  -12.9550    2.7859 H   0  0  0  0  0  0  0  0  0  0  0  0
    3.4427  -13.1749    4.7153 H   0  0  0  0  0  0  0  0  0  0  0  0
    4.7618  -13.3468    3.5187 H   0  0  0  0  0  0  0  0  0  0  0  0
    5.5906  -11.1657    4.0178 H   0  0  0  0  0  0  0  0  0  0  0  0
    5.5703  -10.7031    6.2977 H   0  0  0  0  0  0  0  0  0  0  0  0
    4.9135  -12.3221    6.4991 H   0  0  0  0  0  0  0  0  0  0  0  0
    2.2015   -7.9206    6.7693 H   0  0  0  0  0  0  0  0  0  0  0  0
    0.0754   -6.9875    7.5768 H   0  0  0  0  0  0  0  0  0  0  0  0
    3.5194  -12.0363    2.0093 H   0  0  0  0  0  0  0  0  0  0  0  0
    2.7508  -11.3950    6.5416 H   0  0  0  0  0  0  0  0  0  0  0  0
  1 15  2  0
  1  2  1  0
  1 16  1  0
  2  3  2  0
  2 17  1  0
  3  4  1  0
  3 13  1  0
  4  5  1  0
  4 18  1  0
  4 19  1  0
  5 12  1  0
  5  6  1  0
  5 34  1  1
  6  7  1  0
  6 20  1  0
  6 21  1  0
  7 11  1  0
  7  8  1  0
  7 22  1  6
  8  9  1  0
  8 23  1  0
  8 24  1  0
  9 10  1  0
  9 25  1  0
  9 33  1  0
 10 11  1  0
 10 26  1  0
 10 27  1  0
 11 12  1  0
 11 28  1  6
 12 29  1  0
 12 30  1  0
 13 14  2  0
 13 31  1  0
 14 15  1  0
 14 32  1  0
M  CHG  2   5   1   9   1
M  END
>  <i_m_ct_stereo_status>  (255) 
1

>  <s_m_source_file>  (255) 
/var/tmp/pbs.5076255.sched01/tmpo609hgx5/90rinj4u0e.sdf

>  <i_m_source_file_index>  (255) 
18

>  <i_lp_mmshare_version>  (255) 
48012

>  <i_f3d_flags>  (255) 
0

>  <s_epik_input>  (255) 
W2NIXTFbY0hdbltjSF1bY0hdYzFbQ0gyXU4oW0NIMl0yKVtDSDJdW0NASF0oW0NASF0yMylbQ0gyXVtOSF1bQ0gyXTM=

>  <s_epik_cmdline>  (255) 
J2VwaWtfcHl0aG9uJywgJy1waHQnLCAnMi4wJywgJy1waCcsICc3LjAnLCAnLXRuJywgJzgnLCAnLW1hJywgJzIwMCcsICctaW1hZScsICc8aW5maWxlLm1hZT4nLCAnLW9tYWUnLCAnPG91dGZpbGUubWFlPic=

>  <r_epik_Ionization_Penalty>  (255) 
0.0140837

>  <r_epik_Ionization_Penalty_Charging>  (255) 
0.0139666

>  <r_epik_Ionization_Penalty_Neutral>  (255) 
0.000117087

>  <r_epik_State_Penalty>  (255) 
0.0673876

>  <r_epik_Charging_Adjusted_Penalty>  (255) 
0.0813542

>  <i_epik_Tot_Q>  (255) 
2

>  <i_epik_Tot_abs_Q>  (255) 
2

>  <s_lp_Force_Field>  (255) 
OPLS3e

>  <r_lp_Energy>  (255) 
32.806

>  <b_lp_Chiralities_Consistent>  (255) 
1

>  <s_lp_Variant>  (255) 
66:0-2

>  <s_i_glide_gridfile>  (255) 
pfpi4k_grid

>  <i_i_glide_lignum>  (255) 
18

>  <i_i_glide_rotatable_bonds>  (255) 
2

>  <r_i_docking_score>  (255) 
-4.58988

>  <r_i_glide_ligand_efficiency>  (255) 
-0.305992

>  <r_i_glide_ligand_efficiency_sa>  (255) 
-0.754642

>  <r_i_glide_ligand_efficiency_ln>  (255) 
-1.23782

>  <r_i_glide_gscore>  (255) 
-4.58988

>  <r_i_glide_lipo>  (255) 
-0.0319457

>  <r_i_glide_hbond>  (255) 
-0.628669

>  <r_i_glide_metal>  (255) 
-0

>  <r_i_glide_rewards>  (255) 
-2.00932

>  <r_i_glide_evdw>  (255) 
-9.10063

>  <r_i_glide_ecoul>  (255) 
-13.9406

>  <r_i_glide_erotb>  (255) 
0.781776

>  <r_i_glide_esite>  (255) 
-0.1556

>  <r_i_glide_emodel>  (255) 
-33.7642

>  <r_i_glide_energy>  (255) 
-23.0412

>  <r_i_glide_einternal>  (255) 
2.44623

>  <r_i_glide_intrahb_reward>  (255) 
-0

>  <i_i_glide_confnum>  (255) 
5

>  <i_i_glide_posenum>  (255) 
33

>  <r_i_glide_eff_state_penalty>  (255) 
0

>  <ligand_id>  (255) 
66

>  <original_smiles>  (255) 
c1cc(CN2CC3CNCC3C2)ccn1

>  <smiles>  (255) 
[H]c1nc([H])c([H])c(C([H])([H])[N+]2([H])C([H])([H])C3([H])C([H])(C([H])([H])[N+]([H])([H])C3([H])[H])C2([H])[H])c1[H]

$$$$
66:1:1
     RDKit          3D

 34 36  0  0  1  0  0  0  0  0999 V2000
    4.2100   -1.3030   -3.5763 C   0  0  0  0  0  0  0  0  0  0  0  0
    4.2479   -1.2703   -2.1694 C   0  0  0  0  0  0  0  0  0  0  0  0
    3.4067   -2.1458   -1.4669 C   0  0  0  0  0  0  0  0  0  0  0  0
    3.4119   -2.1764    0.0539 C   0  0  0  0  0  0  0  0  0  0  0  0
    4.0926   -3.3729    0.6007 N   0  0  1  0  0  0  0  0  0  0  0  0
    3.7044   -4.6776   -0.0001 C   0  0  0  0  0  0  0  0  0  0  0  0
    4.7891   -5.6606    0.4102 C   0  0  2  0  0  0  0  0  0  0  0  0
    4.4660   -6.4806    1.6619 C   0  0  0  0  0  0  0  0  0  0  0  0
    5.7271   -6.4798    2.4216 N   0  0  0  0  0  0  0  0  0  0  0  0
    6.3416   -5.1537    2.2034 C   0  0  0  0  0  0  0  0  0  0  0  0
    6.0086   -4.7935    0.7473 C   0  0  2  0  0  0  0  0  0  0  0  0
    5.5670   -3.3366    0.5210 C   0  0  0  0  0  0  0  0  0  0  0  0
    2.5450   -2.9862   -2.2072 C   0  0  0  0  0  0  0  0  0  0  0  0
    2.6281   -2.9745   -3.6038 C   0  0  0  0  0  0  0  0  0  0  0  0
    3.4538   -2.1501   -4.2855 N   0  0  0  0  0  0  0  0  0  0  0  0
    4.8521   -0.6569   -4.1630 H   0  0  0  0  0  0  0  0  0  0  0  0
    4.9042   -0.5863   -1.6540 H   0  0  0  0  0  0  0  0  0  0  0  0
    3.8752   -1.2774    0.4480 H   0  0  0  0  0  0  0  0  0  0  0  0
    2.3906   -2.1452    0.4296 H   0  0  0  0  0  0  0  0  0  0  0  0
    2.6927   -4.9989    0.2605 H   0  0  0  0  0  0  0  0  0  0  0  0
    3.7849   -4.6570   -1.0853 H   0  0  0  0  0  0  0  0  0  0  0  0
    5.0151   -6.3353   -0.4144 H   0  0  0  0  0  0  0  0  0  0  0  0
    3.7017   -5.9805    2.2593 H   0  0  0  0  0  0  0  0  0  0  0  0
    4.1198   -7.4896    1.4263 H   0  0  0  0  0  0  0  0  0  0  0  0
    5.5620   -6.6573    3.4070 H   0  0  0  0  0  0  0  0  0  0  0  0
    5.8699   -4.4411    2.8865 H   0  0  0  0  0  0  0  0  0  0  0  0
    7.4177   -5.1651    2.3937 H   0  0  0  0  0  0  0  0  0  0  0  0
    6.8508   -5.0408    0.0946 H   0  0  0  0  0  0  0  0  0  0  0  0
    5.8622   -3.0271   -0.4837 H   0  0  0  0  0  0  0  0  0  0  0  0
    6.0015   -2.6301    1.2292 H   0  0  0  0  0  0  0  0  0  0  0  0
    1.8331   -3.6464   -1.7263 H   0  0  0  0  0  0  0  0  0  0  0  0
    2.0130   -3.6336   -4.1948 H   0  0  0  0  0  0  0  0  0  0  0  0
    6.3345   -7.1818    2.0272 H   0  0  0  0  0  0  0  0  0  0  0  0
    3.8618   -3.4092    1.5854 H   0  0  0  0  0  0  0  0  0  0  0  0
  1 15  2  0
  1  2  1  0
  1 16  1  0
  2  3  2  0
  2 17  1  0
  3  4  1  0
  3 13  1  0
  4  5  1  0
  4 18  1  0
  4 19  1  0
  5 12  1  0
  5  6  1  0
  5 34  1  1
  6  7  1  0
  6 20  1  0
  6 21  1  0
  7 11  1  0
  7  8  1  0
  7 22  1  6
  8  9  1  0
  8 23  1  0
  8 24  1  0
  9 10  1  0
  9 25  1  0
  9 33  1  0
 10 11  1  0
 10 26  1  0
 10 27  1  0
 11 12  1  0
 11 28  1  6
 12 29  1  0
 12 30  1  0
 13 14  2  0
 13 31  1  0
 14 15  1  0
 14 32  1  0
M  CHG  2   5   1   9   1
M  END
>  <i_m_ct_stereo_status>  (256) 
1

>  <s_m_source_file>  (256) 
/var/tmp/pbs.5076255.sched01/tmpo609hgx5/90rinj4u0e.sdf

>  <i_m_source_file_index>  (256) 
18

>  <i_lp_mmshare_version>  (256) 
48012

>  <i_f3d_flags>  (256) 
0

>  <s_epik_input>  (256) 
W2NIXTFbY0hdbltjSF1bY0hdYzFbQ0gyXU4oW0NIMl0yKVtDSDJdW0NASF0oW0NASF0yMylbQ0gyXVtOSF1bQ0gyXTM=

>  <s_epik_cmdline>  (256) 
J2VwaWtfcHl0aG9uJywgJy1waHQnLCAnMi4wJywgJy1waCcsICc3LjAnLCAnLXRuJywgJzgnLCAnLW1hJywgJzIwMCcsICctaW1hZScsICc8aW5maWxlLm1hZT4nLCAnLW9tYWUnLCAnPG91dGZpbGUubWFlPic=

>  <r_epik_Ionization_Penalty>  (256) 
0.0140837

>  <r_epik_Ionization_Penalty_Charging>  (256) 
0.0139666

>  <r_epik_Ionization_Penalty_Neutral>  (256) 
0.000117087

>  <r_epik_State_Penalty>  (256) 
0.0673876

>  <r_epik_Charging_Adjusted_Penalty>  (256) 
0.0813542

>  <i_epik_Tot_Q>  (256) 
2

>  <i_epik_Tot_abs_Q>  (256) 
2

>  <s_lp_Force_Field>  (256) 
OPLS3e

>  <r_lp_Energy>  (256) 
32.806

>  <b_lp_Chiralities_Consistent>  (256) 
1

>  <s_lp_Variant>  (256) 
66:0-2

>  <s_i_glide_gridfile>  (256) 
pfpi4k_grid

>  <i_i_glide_lignum>  (256) 
18

>  <i_i_glide_rotatable_bonds>  (256) 
2

>  <r_i_docking_score>  (256) 
-4.31347

>  <r_i_glide_ligand_efficiency>  (256) 
-0.287565

>  <r_i_glide_ligand_efficiency_sa>  (256) 
-0.709195

>  <r_i_glide_ligand_efficiency_ln>  (256) 
-1.16327

>  <r_i_glide_gscore>  (256) 
-4.31347

>  <r_i_glide_lipo>  (256) 
-0.794211

>  <r_i_glide_hbond>  (256) 
-0.32

>  <r_i_glide_metal>  (256) 
-0

>  <r_i_glide_rewards>  (256) 
-2.00932

>  <r_i_glide_evdw>  (256) 
-19.1204

>  <r_i_glide_ecoul>  (256) 
-6.77127

>  <r_i_glide_erotb>  (256) 
0.781776

>  <r_i_glide_esite>  (256) 
0

>  <r_i_glide_emodel>  (256) 
-35.4105

>  <r_i_glide_energy>  (256) 
-25.8917

>  <r_i_glide_einternal>  (256) 
5.17489

>  <r_i_glide_intrahb_reward>  (256) 
-0

>  <i_i_glide_confnum>  (256) 
5

>  <i_i_glide_posenum>  (256) 
5

>  <r_i_glide_eff_state_penalty>  (256) 
0

>  <ligand_id>  (256) 
66

>  <original_smiles>  (256) 
c1cc(CN2CC3CNCC3C2)ccn1

>  <smiles>  (256) 
[H]c1nc([H])c([H])c(C([H])([H])[N+]2([H])C([H])([H])C3([H])C([H])(C([H])([H])[N+]([H])([H])C3([H])[H])C2([H])[H])c1[H]

$$$$
66:1:2
     RDKit          3D

 34 36  0  0  1  0  0  0  0  0999 V2000
    3.8394   -3.3062   -3.3454 C   0  0  0  0  0  0  0  0  0  0  0  0
    4.2931   -3.4509   -2.0248 C   0  0  0  0  0  0  0  0  0  0  0  0
    4.7553   -2.3290   -1.3142 C   0  0  0  0  0  0  0  0  0  0  0  0
    5.1898   -2.4380    0.1414 C   0  0  0  0  0  0  0  0  0  0  0  0
    4.2573   -1.7715    1.0952 N   0  0  1  0  0  0  0  0  0  0  0  0
    3.8179   -0.4010    0.7357 C   0  0  0  0  0  0  0  0  0  0  0  0
    2.6240   -0.0818    1.6132 C   0  0  2  0  0  0  0  0  0  0  0  0
    2.9587    0.7014    2.8813 C   0  0  0  0  0  0  0  0  0  0  0  0
    2.1545    0.0451    3.9177 N   0  0  0  0  0  0  0  0  0  0  0  0
    2.1283   -1.3925    3.5850 C   0  0  0  0  0  0  0  0  0  0  0  0
    2.0807   -1.4497    2.0532 C   0  0  2  0  0  0  0  0  0  0  0  0
    3.0093   -2.4983    1.4002 C   0  0  0  0  0  0  0  0  0  0  0  0
    4.7837   -1.0981   -2.0049 C   0  0  0  0  0  0  0  0  0  0  0  0
    4.2165   -1.0361   -3.2926 C   0  0  0  0  0  0  0  0  0  0  0  0
    3.7979   -2.1123   -3.9757 N   0  0  0  0  0  0  0  0  0  0  0  0
    3.4751   -4.1514   -3.9114 H   0  0  0  0  0  0  0  0  0  0  0  0
    4.2371   -4.4210   -1.5504 H   0  0  0  0  0  0  0  0  0  0  0  0
    5.2813   -3.4894    0.4215 H   0  0  0  0  0  0  0  0  0  0  0  0
    6.1994   -2.0374    0.2594 H   0  0  0  0  0  0  0  0  0  0  0  0
    4.6041    0.3582    0.7742 H   0  0  0  0  0  0  0  0  0  0  0  0
    3.3881   -0.4025   -0.2654 H   0  0  0  0  0  0  0  0  0  0  0  0
    1.8667    0.4660    1.0536 H   0  0  0  0  0  0  0  0  0  0  0  0
    4.0138    0.5821    3.1396 H   0  0  0  0  0  0  0  0  0  0  0  0
    2.7391    1.7722    2.7856 H   0  0  0  0  0  0  0  0  0  0  0  0
    2.5419    0.2124    4.8415 H   0  0  0  0  0  0  0  0  0  0  0  0
    3.0579   -1.8430    3.9521 H   0  0  0  0  0  0  0  0  0  0  0  0
    1.2742   -1.9067    4.0432 H   0  0  0  0  0  0  0  0  0  0  0  0
    1.0479   -1.5740    1.7093 H   0  0  0  0  0  0  0  0  0  0  0  0
    2.5616   -2.8277    0.4604 H   0  0  0  0  0  0  0  0  0  0  0  0
    3.1723   -3.3805    2.0198 H   0  0  0  0  0  0  0  0  0  0  0  0
    5.1734   -0.2113   -1.5357 H   0  0  0  0  0  0  0  0  0  0  0  0
    4.1576   -0.0846   -3.8030 H   0  0  0  0  0  0  0  0  0  0  0  0
    1.2074    0.4061    3.8289 H   0  0  0  0  0  0  0  0  0  0  0  0
    4.7426   -1.7096    1.9823 H   0  0  0  0  0  0  0  0  0  0  0  0
  1 15  2  0
  1  2  1  0
  1 16  1  0
  2  3  2  0
  2 17  1  0
  3  4  1  0
  3 13  1  0
  4  5  1  0
  4 18  1  0
  4 19  1  0
  5 12  1  0
  5  6  1  0
  5 34  1  1
  6  7  1  0
  6 20  1  0
  6 21  1  0
  7 11  1  0
  7  8  1  0
  7 22  1  6
  8  9  1  0
  8 23  1  0
  8 24  1  0
  9 10  1  0
  9 25  1  0
  9 33  1  0
 10 11  1  0
 10 26  1  0
 10 27  1  0
 11 12  1  0
 11 28  1  1
 12 29  1  0
 12 30  1  0
 13 14  2  0
 13 31  1  0
 14 15  1  0
 14 32  1  0
M  CHG  2   5   1   9   1
M  END
>  <i_m_ct_stereo_status>  (257) 
1

>  <s_m_source_file>  (257) 
/var/tmp/pbs.5076255.sched01/tmpo609hgx5/90rinj4u0e.sdf

>  <i_m_source_file_index>  (257) 
18

>  <i_lp_mmshare_version>  (257) 
48012

>  <i_f3d_flags>  (257) 
0

>  <s_epik_input>  (257) 
W2NIXTFbY0hdbltjSF1bY0hdYzFbQ0gyXU4oW0NIMl0yKVtDSDJdW0NASF0oW0NASF0yMylbQ0gyXVtOSF1bQ0gyXTM=

>  <s_epik_cmdline>  (257) 
J2VwaWtfcHl0aG9uJywgJy1waHQnLCAnMi4wJywgJy1waCcsICc3LjAnLCAnLXRuJywgJzgnLCAnLW1hJywgJzIwMCcsICctaW1hZScsICc8aW5maWxlLm1hZT4nLCAnLW9tYWUnLCAnPG91dGZpbGUubWFlPic=

>  <r_epik_Ionization_Penalty>  (257) 
0.0140837

>  <r_epik_Ionization_Penalty_Charging>  (257) 
0.0139666

>  <r_epik_Ionization_Penalty_Neutral>  (257) 
0.000117087

>  <r_epik_State_Penalty>  (257) 
0.0673876

>  <r_epik_Charging_Adjusted_Penalty>  (257) 
0.0813542

>  <i_epik_Tot_Q>  (257) 
2

>  <i_epik_Tot_abs_Q>  (257) 
2

>  <s_lp_Force_Field>  (257) 
OPLS3e

>  <r_lp_Energy>  (257) 
32.806

>  <b_lp_Chiralities_Consistent>  (257) 
1

>  <s_lp_Variant>  (257) 
66:0-2

>  <s_i_glide_gridfile>  (257) 
pfpi4k_grid

>  <i_i_glide_lignum>  (257) 
18

>  <i_i_glide_rotatable_bonds>  (257) 
2

>  <r_i_docking_score>  (257) 
-3.91262

>  <r_i_glide_ligand_efficiency>  (257) 
-0.260841

>  <r_i_glide_ligand_efficiency_sa>  (257) 
-0.64329

>  <r_i_glide_ligand_efficiency_ln>  (257) 
-1.05517

>  <r_i_glide_gscore>  (257) 
-3.91262

>  <r_i_glide_lipo>  (257) 
-0.320569

>  <r_i_glide_hbond>  (257) 
-0.168841

>  <r_i_glide_metal>  (257) 
-0

>  <r_i_glide_rewards>  (257) 
-2.00932

>  <r_i_glide_evdw>  (257) 
-19.9731

>  <r_i_glide_ecoul>  (257) 
-7.94418

>  <r_i_glide_erotb>  (257) 
0.781776

>  <r_i_glide_esite>  (257) 
-0.00538167

>  <r_i_glide_emodel>  (257) 
-35.3298

>  <r_i_glide_energy>  (257) 
-27.9173

>  <r_i_glide_einternal>  (257) 
5.90215

>  <r_i_glide_intrahb_reward>  (257) 
-0

>  <i_i_glide_confnum>  (257) 
5

>  <i_i_glide_posenum>  (257) 
7

>  <r_i_glide_eff_state_penalty>  (257) 
0

>  <ligand_id>  (257) 
66

>  <original_smiles>  (257) 
c1cc(CN2CC3CNCC3C2)ccn1

>  <smiles>  (257) 
[H]c1nc([H])c([H])c(C([H])([H])[N+]2([H])C([H])([H])C3([H])C([H])(C([H])([H])[N+]([H])([H])C3([H])[H])C2([H])[H])c1[H]

$$$$
66:2:0
     RDKit          3D

 33 35  0  0  1  0  0  0  0  0999 V2000
   -4.0773  -11.6704   -7.6445 C   0  0  0  0  0  0  0  0  0  0  0  0
   -5.0019  -10.6226   -7.7831 C   0  0  0  0  0  0  0  0  0  0  0  0
   -6.3086  -10.7907   -7.2905 C   0  0  0  0  0  0  0  0  0  0  0  0
   -7.3207   -9.6543   -7.3425 C   0  0  0  0  0  0  0  0  0  0  0  0
   -6.7354   -8.3326   -7.1100 N   0  0  0  0  0  0  0  0  0  0  0  0
   -6.0826   -8.2742   -5.8126 C   0  0  0  0  0  0  0  0  0  0  0  0
   -5.9118   -6.7818   -5.5597 C   0  0  2  0  0  0  0  0  0  0  0  0
   -6.0945   -6.2966   -4.1288 C   0  0  0  0  0  0  0  0  0  0  0  0
   -6.8969   -5.0633   -4.2372 N   0  0  0  0  0  0  0  0  0  0  0  0
   -7.8230   -5.2833   -5.3569 C   0  0  0  0  0  0  0  0  0  0  0  0
   -7.0335   -6.1375   -6.3526 C   0  0  2  0  0  0  0  0  0  0  0  0
   -7.7612   -7.3001   -7.0312 C   0  0  0  0  0  0  0  0  0  0  0  0
   -6.6351  -12.0253   -6.6989 C   0  0  0  0  0  0  0  0  0  0  0  0
   -5.6370  -13.0151   -6.6124 C   0  0  0  0  0  0  0  0  0  0  0  0
   -4.3830  -12.8543   -7.0828 N   0  0  0  0  0  0  0  0  0  0  0  0
   -3.0654  -11.5529   -8.0035 H   0  0  0  0  0  0  0  0  0  0  0  0
   -4.7121   -9.6838   -8.2283 H   0  0  0  0  0  0  0  0  0  0  0  0
   -7.7732   -9.6574   -8.3318 H   0  0  0  0  0  0  0  0  0  0  0  0
   -8.1211   -9.8575   -6.6263 H   0  0  0  0  0  0  0  0  0  0  0  0
   -6.7707   -8.7473   -5.1226 H   0  0  0  0  0  0  0  0  0  0  0  0
   -5.1265   -8.7970   -5.7770 H   0  0  0  0  0  0  0  0  0  0  0  0
   -4.9359   -6.4527   -5.9199 H   0  0  0  0  0  0  0  0  0  0  0  0
   -6.5862   -7.0545   -3.5197 H   0  0  0  0  0  0  0  0  0  0  0  0
   -5.1365   -6.1376   -3.6549 H   0  0  0  0  0  0  0  0  0  0  0  0
   -7.3979   -4.8607   -3.3801 H   0  0  0  0  0  0  0  0  0  0  0  0
   -8.6758   -5.8422   -4.9784 H   0  0  0  0  0  0  0  0  0  0  0  0
   -8.1718   -4.3396   -5.7830 H   0  0  0  0  0  0  0  0  0  0  0  0
   -6.5997   -5.4917   -7.1089 H   0  0  0  0  0  0  0  0  0  0  0  0
   -8.1674   -7.0415   -8.0067 H   0  0  0  0  0  0  0  0  0  0  0  0
   -8.5762   -7.6578   -6.4070 H   0  0  0  0  0  0  0  0  0  0  0  0
   -7.6168  -12.1946   -6.2851 H   0  0  0  0  0  0  0  0  0  0  0  0
   -5.8471  -13.9633   -6.1440 H   0  0  0  0  0  0  0  0  0  0  0  0
   -6.2774   -4.3020   -4.4862 H   0  0  0  0  0  0  0  0  0  0  0  0
  1 15  2  0
  1  2  1  0
  1 16  1  0
  2  3  2  0
  2 17  1  0
  3  4  1  0
  3 13  1  0
  4  5  1  0
  4 18  1  0
  4 19  1  0
  5 12  1  0
  5  6  1  0
  6  7  1  0
  6 20  1  0
  6 21  1  0
  7 11  1  0
  7  8  1  0
  7 22  1  6
  8  9  1  0
  8 23  1  0
  8 24  1  0
  9 10  1  0
  9 25  1  0
  9 33  1  0
 10 11  1  0
 10 26  1  0
 10 27  1  0
 11 12  1  0
 11 28  1  6
 12 29  1  0
 12 30  1  0
 13 14  2  0
 13 31  1  0
 14 15  1  0
 14 32  1  0
M  CHG  1   9   1
M  END
>  <i_m_ct_stereo_status>  (258) 
1

>  <s_m_source_file>  (258) 
/var/tmp/pbs.5076255.sched01/tmpo609hgx5/90rinj4u0e.sdf

>  <i_m_source_file_index>  (258) 
19

>  <i_lp_mmshare_version>  (258) 
48012

>  <i_f3d_flags>  (258) 
0

>  <s_epik_input>  (258) 
W2NIXTFbY0hdbltjSF1bY0hdYzFbQ0gyXU4oW0NIMl0yKVtDSDJdW0NASF0oW0NASF0yMylbQ0gyXVtOSF1bQ0gyXTM=

>  <s_epik_cmdline>  (258) 
J2VwaWtfcHl0aG9uJywgJy1waHQnLCAnMi4wJywgJy1waCcsICc3LjAnLCAnLXRuJywgJzgnLCAnLW1hJywgJzIwMCcsICctaW1hZScsICc8aW5maWxlLm1hZT4nLCAnLW9tYWUnLCAnPG91dGZpbGUubWFlPic=

>  <r_epik_Ionization_Penalty>  (258) 
1.25742

>  <r_epik_Ionization_Penalty_Charging>  (258) 
0.000163331

>  <r_epik_Ionization_Penalty_Neutral>  (258) 
1.25726

>  <r_epik_State_Penalty>  (258) 
1.32136

>  <r_epik_Charging_Adjusted_Penalty>  (258) 
1.32152

>  <i_epik_Tot_Q>  (258) 
1

>  <i_epik_Tot_abs_Q>  (258) 
1

>  <s_lp_Force_Field>  (258) 
OPLS3e

>  <r_lp_Energy>  (258) 
17.9217

>  <b_lp_Chiralities_Consistent>  (258) 
1

>  <s_lp_Variant>  (258) 
66:0-3

>  <s_i_glide_gridfile>  (258) 
pfpi4k_grid

>  <i_i_glide_lignum>  (258) 
19

>  <i_i_glide_rotatable_bonds>  (258) 
2

>  <r_i_docking_score>  (258) 
-4.41674

>  <r_i_glide_ligand_efficiency>  (258) 
-0.29445

>  <r_i_glide_ligand_efficiency_sa>  (258) 
-0.726175

>  <r_i_glide_ligand_efficiency_ln>  (258) 
-1.19112

>  <r_i_glide_gscore>  (258) 
-4.41674

>  <r_i_glide_lipo>  (258) 
-2.08167

>  <r_i_glide_hbond>  (258) 
0

>  <r_i_glide_metal>  (258) 
-0

>  <r_i_glide_rewards>  (258) 
-2.35786

>  <r_i_glide_evdw>  (258) 
-16.0657

>  <r_i_glide_ecoul>  (258) 
0.252239

>  <r_i_glide_erotb>  (258) 
0.788236

>  <r_i_glide_esite>  (258) 
0

>  <r_i_glide_emodel>  (258) 
-19.9684

>  <r_i_glide_energy>  (258) 
-15.8134

>  <r_i_glide_einternal>  (258) 
3.95503

>  <r_i_glide_intrahb_reward>  (258) 
-0

>  <i_i_glide_confnum>  (258) 
3

>  <i_i_glide_posenum>  (258) 
7

>  <r_i_glide_eff_state_penalty>  (258) 
0

>  <ligand_id>  (258) 
66

>  <original_smiles>  (258) 
c1cc(CN2CC3CNCC3C2)ccn1

>  <smiles>  (258) 
[H]c1nc([H])c([H])c(C([H])([H])N2C([H])([H])C3([H])C([H])(C2([H])[H])C([H])([H])[N+]([H])([H])C3([H])[H])c1[H]

$$$$
66:2:1
     RDKit          3D

 33 35  0  0  1  0  0  0  0  0999 V2000
   -9.5986   -5.6703   -8.7244 C   0  0  0  0  0  0  0  0  0  0  0  0
   -9.0071   -6.7207   -8.0389 C   0  0  0  0  0  0  0  0  0  0  0  0
   -9.3617   -8.0498   -8.3387 C   0  0  0  0  0  0  0  0  0  0  0  0
   -8.6619   -9.2871   -7.7551 C   0  0  0  0  0  0  0  0  0  0  0  0
   -7.1845   -9.2543   -7.7842 N   0  0  0  0  0  0  0  0  0  0  0  0
   -6.5866  -10.4565   -7.2152 C   0  0  0  0  0  0  0  0  0  0  0  0
   -5.1230  -10.0462   -7.0219 C   0  0  2  0  0  0  0  0  0  0  0  0
   -4.4673  -10.5275   -5.7399 C   0  0  0  0  0  0  0  0  0  0  0  0
   -4.6226   -9.4380   -4.7569 N   0  0  0  0  0  0  0  0  0  0  0  0
   -4.5748   -8.1736   -5.5032 C   0  0  0  0  0  0  0  0  0  0  0  0
   -5.1713   -8.5353   -6.8577 C   0  0  2  0  0  0  0  0  0  0  0  0
   -6.5992   -8.2051   -6.9748 C   0  0  0  0  0  0  0  0  0  0  0  0
  -10.5020   -8.2303   -9.1995 C   0  0  0  0  0  0  0  0  0  0  0  0
  -11.1085   -7.0713   -9.7384 C   0  0  0  0  0  0  0  0  0  0  0  0
  -10.6418   -5.8275   -9.5735 N   0  0  0  0  0  0  0  0  0  0  0  0
   -9.2105   -4.6921   -8.5267 H   0  0  0  0  0  0  0  0  0  0  0  0
   -8.2766   -6.4210   -7.3054 H   0  0  0  0  0  0  0  0  0  0  0  0
   -9.0134   -9.4388   -6.7257 H   0  0  0  0  0  0  0  0  0  0  0  0
   -8.9992  -10.1991   -8.2903 H   0  0  0  0  0  0  0  0  0  0  0  0
   -7.0644  -10.6720   -6.2513 H   0  0  0  0  0  0  0  0  0  0  0  0
   -6.6995  -11.3227   -7.8775 H   0  0  0  0  0  0  0  0  0  0  0  0
   -4.5524  -10.2908   -7.9185 H   0  0  0  0  0  0  0  0  0  0  0  0
   -4.8882  -11.4646   -5.3890 H   0  0  0  0  0  0  0  0  0  0  0  0
   -3.4040  -10.6506   -5.9135 H   0  0  0  0  0  0  0  0  0  0  0  0
   -5.5501   -9.5105   -4.3644 H   0  0  0  0  0  0  0  0  0  0  0  0
   -5.0910   -7.3487   -5.0006 H   0  0  0  0  0  0  0  0  0  0  0  0
   -3.5247   -7.8831   -5.6091 H   0  0  0  0  0  0  0  0  0  0  0  0
   -4.6406   -8.0163   -7.6598 H   0  0  0  0  0  0  0  0  0  0  0  0
   -6.5227   -7.2547   -7.4897 H   0  0  0  0  0  0  0  0  0  0  0  0
   -7.1102   -8.1255   -6.0228 H   0  0  0  0  0  0  0  0  0  0  0  0
  -10.9254   -9.2283   -9.4055 H   0  0  0  0  0  0  0  0  0  0  0  0
  -11.9920   -7.1492  -10.3730 H   0  0  0  0  0  0  0  0  0  0  0  0
   -3.9268   -9.4858   -4.0248 H   0  0  0  0  0  0  0  0  0  0  0  0
  1 15  2  0
  1  2  1  0
  1 16  1  0
  2  3  2  0
  2 17  1  0
  3  4  1  0
  3 13  1  0
  4  5  1  0
  4 18  1  0
  4 19  1  0
  5 12  1  0
  5  6  1  0
  6  7  1  0
  6 20  1  0
  6 21  1  0
  7 11  1  0
  7  8  1  0
  7 22  1  6
  8  9  1  0
  8 23  1  0
  8 24  1  0
  9 10  1  0
  9 25  1  0
  9 33  1  0
 10 11  1  0
 10 26  1  0
 10 27  1  0
 11 12  1  0
 11 28  1  6
 12 29  1  0
 12 30  1  0
 13 14  2  0
 13 31  1  0
 14 15  1  0
 14 32  1  0
M  CHG  1   9   1
M  END
>  <i_m_ct_stereo_status>  (259) 
1

>  <s_m_source_file>  (259) 
/var/tmp/pbs.5076255.sched01/tmpo609hgx5/90rinj4u0e.sdf

>  <i_m_source_file_index>  (259) 
19

>  <i_lp_mmshare_version>  (259) 
48012

>  <i_f3d_flags>  (259) 
0

>  <s_epik_input>  (259) 
W2NIXTFbY0hdbltjSF1bY0hdYzFbQ0gyXU4oW0NIMl0yKVtDSDJdW0NASF0oW0NASF0yMylbQ0gyXVtOSF1bQ0gyXTM=

>  <s_epik_cmdline>  (259) 
J2VwaWtfcHl0aG9uJywgJy1waHQnLCAnMi4wJywgJy1waCcsICc3LjAnLCAnLXRuJywgJzgnLCAnLW1hJywgJzIwMCcsICctaW1hZScsICc8aW5maWxlLm1hZT4nLCAnLW9tYWUnLCAnPG91dGZpbGUubWFlPic=

>  <r_epik_Ionization_Penalty>  (259) 
1.25742

>  <r_epik_Ionization_Penalty_Charging>  (259) 
0.000163331

>  <r_epik_Ionization_Penalty_Neutral>  (259) 
1.25726

>  <r_epik_State_Penalty>  (259) 
1.32136

>  <r_epik_Charging_Adjusted_Penalty>  (259) 
1.32152

>  <i_epik_Tot_Q>  (259) 
1

>  <i_epik_Tot_abs_Q>  (259) 
1

>  <s_lp_Force_Field>  (259) 
OPLS3e

>  <r_lp_Energy>  (259) 
17.9217

>  <b_lp_Chiralities_Consistent>  (259) 
1

>  <s_lp_Variant>  (259) 
66:0-3

>  <s_i_glide_gridfile>  (259) 
pfpi4k_grid

>  <i_i_glide_lignum>  (259) 
19

>  <i_i_glide_rotatable_bonds>  (259) 
2

>  <r_i_docking_score>  (259) 
-4.36072

>  <r_i_glide_ligand_efficiency>  (259) 
-0.290714

>  <r_i_glide_ligand_efficiency_sa>  (259) 
-0.716963

>  <r_i_glide_ligand_efficiency_ln>  (259) 
-1.17601

>  <r_i_glide_gscore>  (259) 
-4.36072

>  <r_i_glide_lipo>  (259) 
-1.2044

>  <r_i_glide_hbond>  (259) 
0

>  <r_i_glide_metal>  (259) 
-0

>  <r_i_glide_rewards>  (259) 
-2.35733

>  <r_i_glide_evdw>  (259) 
-19.3127

>  <r_i_glide_ecoul>  (259) 
-3.89728

>  <r_i_glide_erotb>  (259) 
0.788236

>  <r_i_glide_esite>  (259) 
-0.0369905

>  <r_i_glide_emodel>  (259) 
-26.8835

>  <r_i_glide_energy>  (259) 
-23.21

>  <r_i_glide_einternal>  (259) 
0.445683

>  <r_i_glide_intrahb_reward>  (259) 
-0

>  <i_i_glide_confnum>  (259) 
4

>  <i_i_glide_posenum>  (259) 
29

>  <r_i_glide_eff_state_penalty>  (259) 
0

>  <ligand_id>  (259) 
66

>  <original_smiles>  (259) 
c1cc(CN2CC3CNCC3C2)ccn1

>  <smiles>  (259) 
[H]c1nc([H])c([H])c(C([H])([H])N2C([H])([H])C3([H])C([H])(C2([H])[H])C([H])([H])[N+]([H])([H])C3([H])[H])c1[H]

$$$$
66:2:2
     RDKit          3D

 33 35  0  0  1  0  0  0  0  0999 V2000
   -9.7292   -7.6768  -10.3990 C   0  0  0  0  0  0  0  0  0  0  0  0
   -9.3557   -6.6662   -9.4991 C   0  0  0  0  0  0  0  0  0  0  0  0
  -10.2083   -6.3614   -8.4174 C   0  0  0  0  0  0  0  0  0  0  0  0
   -9.8539   -5.3068   -7.3840 C   0  0  0  0  0  0  0  0  0  0  0  0
   -8.4250   -5.2279   -7.1270 N   0  0  0  0  0  0  0  0  0  0  0  0
   -7.9335   -6.4283   -6.4757 C   0  0  0  0  0  0  0  0  0  0  0  0
   -6.5730   -6.0369   -5.9360 C   0  0  2  0  0  0  0  0  0  0  0  0
   -6.1977   -6.5799   -4.5748 C   0  0  0  0  0  0  0  0  0  0  0  0
   -6.5802   -5.5323   -3.6379 N   0  0  0  0  0  0  0  0  0  0  0  0
   -6.3482   -4.2667   -4.3118 C   0  0  0  0  0  0  0  0  0  0  0  0
   -6.6698   -4.5244   -5.7652 C   0  0  2  0  0  0  0  0  0  0  0  0
   -8.1111   -4.1809   -6.1785 C   0  0  0  0  0  0  0  0  0  0  0  0
  -11.4145   -7.0843   -8.3098 C   0  0  0  0  0  0  0  0  0  0  0  0
  -11.7074   -8.0674   -9.2720 C   0  0  0  0  0  0  0  0  0  0  0  0
  -10.8840   -8.3734  -10.2947 N   0  0  0  0  0  0  0  0  0  0  0  0
   -9.0832   -7.9498  -11.2176 H   0  0  0  0  0  0  0  0  0  0  0  0
   -8.4083   -6.1519   -9.6217 H   0  0  0  0  0  0  0  0  0  0  0  0
  -10.2025   -4.3487   -7.7534 H   0  0  0  0  0  0  0  0  0  0  0  0
  -10.3936   -5.4831   -6.4557 H   0  0  0  0  0  0  0  0  0  0  0  0
   -8.5866   -6.6496   -5.6374 H   0  0  0  0  0  0  0  0  0  0  0  0
   -7.8809   -7.2916   -7.1433 H   0  0  0  0  0  0  0  0  0  0  0  0
   -5.8318   -6.3830   -6.6534 H   0  0  0  0  0  0  0  0  0  0  0  0
   -6.7135   -7.5067   -4.3787 H   0  0  0  0  0  0  0  0  0  0  0  0
   -5.1197   -6.7402   -4.5151 H   0  0  0  0  0  0  0  0  0  0  0  0
   -7.5628   -5.6142   -3.4685 H   0  0  0  0  0  0  0  0  0  0  0  0
   -6.9710   -3.4991   -3.8922 H   0  0  0  0  0  0  0  0  0  0  0  0
   -5.2994   -3.9961   -4.2113 H   0  0  0  0  0  0  0  0  0  0  0  0
   -5.9434   -3.9826   -6.3728 H   0  0  0  0  0  0  0  0  0  0  0  0
   -8.1979   -3.2021   -6.6488 H   0  0  0  0  0  0  0  0  0  0  0  0
   -8.7797   -4.2189   -5.3153 H   0  0  0  0  0  0  0  0  0  0  0  0
  -12.1304   -6.8810   -7.5236 H   0  0  0  0  0  0  0  0  0  0  0  0
  -12.6329   -8.6276   -9.2119 H   0  0  0  0  0  0  0  0  0  0  0  0
   -6.0506   -5.6021   -2.7981 H   0  0  0  0  0  0  0  0  0  0  0  0
  1 15  2  0
  1  2  1  0
  1 16  1  0
  2  3  2  0
  2 17  1  0
  3  4  1  0
  3 13  1  0
  4  5  1  0
  4 18  1  0
  4 19  1  0
  5 12  1  0
  5  6  1  0
  6  7  1  0
  6 20  1  0
  6 21  1  0
  7 11  1  0
  7  8  1  0
  7 22  1  6
  8  9  1  0
  8 23  1  0
  8 24  1  0
  9 10  1  0
  9 25  1  0
  9 33  1  0
 10 11  1  0
 10 26  1  0
 10 27  1  0
 11 12  1  0
 11 28  1  6
 12 29  1  0
 12 30  1  0
 13 14  2  0
 13 31  1  0
 14 15  1  0
 14 32  1  0
M  CHG  1   9   1
M  END
>  <i_m_ct_stereo_status>  (260) 
1

>  <s_m_source_file>  (260) 
/var/tmp/pbs.5076255.sched01/tmpo609hgx5/90rinj4u0e.sdf

>  <i_m_source_file_index>  (260) 
19

>  <i_lp_mmshare_version>  (260) 
48012

>  <i_f3d_flags>  (260) 
0

>  <s_epik_input>  (260) 
W2NIXTFbY0hdbltjSF1bY0hdYzFbQ0gyXU4oW0NIMl0yKVtDSDJdW0NASF0oW0NASF0yMylbQ0gyXVtOSF1bQ0gyXTM=

>  <s_epik_cmdline>  (260) 
J2VwaWtfcHl0aG9uJywgJy1waHQnLCAnMi4wJywgJy1waCcsICc3LjAnLCAnLXRuJywgJzgnLCAnLW1hJywgJzIwMCcsICctaW1hZScsICc8aW5maWxlLm1hZT4nLCAnLW9tYWUnLCAnPG91dGZpbGUubWFlPic=

>  <r_epik_Ionization_Penalty>  (260) 
1.25742

>  <r_epik_Ionization_Penalty_Charging>  (260) 
0.000163331

>  <r_epik_Ionization_Penalty_Neutral>  (260) 
1.25726

>  <r_epik_State_Penalty>  (260) 
1.32136

>  <r_epik_Charging_Adjusted_Penalty>  (260) 
1.32152

>  <i_epik_Tot_Q>  (260) 
1

>  <i_epik_Tot_abs_Q>  (260) 
1

>  <s_lp_Force_Field>  (260) 
OPLS3e

>  <r_lp_Energy>  (260) 
17.9217

>  <b_lp_Chiralities_Consistent>  (260) 
1

>  <s_lp_Variant>  (260) 
66:0-3

>  <s_i_glide_gridfile>  (260) 
pfpi4k_grid

>  <i_i_glide_lignum>  (260) 
19

>  <i_i_glide_rotatable_bonds>  (260) 
2

>  <r_i_docking_score>  (260) 
-4.17037

>  <r_i_glide_ligand_efficiency>  (260) 
-0.278025

>  <r_i_glide_ligand_efficiency_sa>  (260) 
-0.685668

>  <r_i_glide_ligand_efficiency_ln>  (260) 
-1.12468

>  <r_i_glide_gscore>  (260) 
-4.17037

>  <r_i_glide_lipo>  (260) 
-1.99147

>  <r_i_glide_hbond>  (260) 
0

>  <r_i_glide_metal>  (260) 
-0

>  <r_i_glide_rewards>  (260) 
-2.01619

>  <r_i_glide_evdw>  (260) 
-16.1509

>  <r_i_glide_ecoul>  (260) 
-0.955963

>  <r_i_glide_erotb>  (260) 
0.788236

>  <r_i_glide_esite>  (260) 
0

>  <r_i_glide_emodel>  (260) 
-21.6918

>  <r_i_glide_energy>  (260) 
-17.1069

>  <r_i_glide_einternal>  (260) 
2.49883

>  <r_i_glide_intrahb_reward>  (260) 
-0

>  <i_i_glide_confnum>  (260) 
4

>  <i_i_glide_posenum>  (260) 
8

>  <r_i_glide_eff_state_penalty>  (260) 
0

>  <ligand_id>  (260) 
66

>  <original_smiles>  (260) 
c1cc(CN2CC3CNCC3C2)ccn1

>  <smiles>  (260) 
[H]c1nc([H])c([H])c(C([H])([H])N2C([H])([H])C3([H])C([H])(C2([H])[H])C([H])([H])[N+]([H])([H])C3([H])[H])c1[H]

$$$$
67:0:0
     RDKit          3D

 16 17  0  0  1  0  0  0  0  0999 V2000
   -0.5677   -9.0843    3.1580 C   0  0  0  0  0  0  0  0  0  0  0  0
   -1.2203   -7.9210    2.7283 C   0  0  0  0  0  0  0  0  0  0  0  0
   -0.5901   -6.9173    2.0866 N   0  0  0  0  0  0  0  0  0  0  0  0
    0.7311   -7.0266    1.8149 C   0  0  0  0  0  0  0  0  0  0  0  0
    1.3525   -6.0213    1.1578 N   0  0  0  0  0  0  0  0  0  0  0  0
    2.6748   -6.0992    0.9102 C   0  0  0  0  0  0  0  0  0  0  0  0
    3.4650   -7.1995    1.2874 C   0  0  0  0  0  0  0  0  0  0  0  0
    2.8418   -8.2670    1.9549 C   0  0  0  0  0  0  0  0  0  0  0  0
    1.4627   -8.1756    2.2267 C   0  0  0  0  0  0  0  0  0  0  0  0
    0.8033   -9.2191    2.9012 C   0  0  0  0  0  0  0  0  0  0  0  0
   -1.1134   -9.8564    3.6786 H   0  0  0  0  0  0  0  0  0  0  0  0
   -2.2797   -7.7916    2.9094 H   0  0  0  0  0  0  0  0  0  0  0  0
    3.1084   -5.2555    0.3909 H   0  0  0  0  0  0  0  0  0  0  0  0
    4.5208   -7.2275    1.0593 H   0  0  0  0  0  0  0  0  0  0  0  0
    3.4072   -9.1389    2.2547 H   0  0  0  0  0  0  0  0  0  0  0  0
    1.3353  -10.1041    3.2204 H   0  0  0  0  0  0  0  0  0  0  0  0
  1 10  2  0
  1  2  1  0
  1 11  1  0
  2  3  2  0
  2 12  1  0
  3  4  1  0
  4  9  2  0
  4  5  1  0
  5  6  2  0
  6  7  1  0
  6 13  1  0
  7  8  2  0
  7 14  1  0
  8  9  1  0
  8 15  1  0
  9 10  1  0
 10 16  1  0
M  END
>  <i_m_ct_stereo_status>  (261) 
1

>  <s_m_source_file>  (261) 
/var/tmp/pbs.5076255.sched01/tmpo609hgx5/90rinj4u0e.sdf

>  <i_m_source_file_index>  (261) 
20

>  <i_lp_mmshare_version>  (261) 
48012

>  <i_f3d_flags>  (261) 
0

>  <s_epik_input>  (261) 
bjFbY0hdW2NIXVtjSF1jKGMxMilbY0hdW2NIXVtjSF1uMg==

>  <s_epik_cmdline>  (261) 
J2VwaWtfcHl0aG9uJywgJy1waHQnLCAnMi4wJywgJy1waCcsICc3LjAnLCAnLXRuJywgJzgnLCAnLW1hJywgJzIwMCcsICctaW1hZScsICc8aW5maWxlLm1hZT4nLCAnLW9tYWUnLCAnPG91dGZpbGUubWFlPic=

>  <r_lp_tautomer_probability>  (261) 
1

>  <r_epik_Ionization_Penalty>  (261) 
7.47662e-06

>  <r_epik_Ionization_Penalty_Charging>  (261) 
0

>  <r_epik_Ionization_Penalty_Neutral>  (261) 
7.47662e-06

>  <r_epik_State_Penalty>  (261) 
-0

>  <r_epik_Charging_Adjusted_Penalty>  (261) 
0

>  <i_epik_Tot_Q>  (261) 
0

>  <i_epik_Tot_abs_Q>  (261) 
0

>  <s_lp_Force_Field>  (261) 
OPLS3e

>  <r_lp_Energy>  (261) 
20.8089

>  <b_lp_Chiralities_Consistent>  (261) 
1

>  <s_lp_Variant>  (261) 
67:0-1

>  <s_i_glide_gridfile>  (261) 
pfpi4k_grid

>  <i_i_glide_lignum>  (261) 
20

>  <i_i_glide_rotatable_bonds>  (261) 
0

>  <r_i_docking_score>  (261) 
-4.32256

>  <r_i_glide_ligand_efficiency>  (261) 
-0.432256

>  <r_i_glide_ligand_efficiency_sa>  (261) 
-0.931267

>  <r_i_glide_ligand_efficiency_ln>  (261) 
-1.30884

>  <r_i_glide_gscore>  (261) 
-4.32256

>  <r_i_glide_lipo>  (261) 
-0.0737599

>  <r_i_glide_hbond>  (261) 
-0.32

>  <r_i_glide_metal>  (261) 
-0

>  <r_i_glide_rewards>  (261) 
-2.25

>  <r_i_glide_evdw>  (261) 
-13.5001

>  <r_i_glide_ecoul>  (261) 
-6.23048

>  <r_i_glide_erotb>  (261) 
0

>  <r_i_glide_esite>  (261) 
-0.0692204

>  <r_i_glide_emodel>  (261) 
-26.4632

>  <r_i_glide_energy>  (261) 
-19.7306

>  <r_i_glide_einternal>  (261) 
0

>  <r_i_glide_intrahb_reward>  (261) 
-0

>  <i_i_glide_confnum>  (261) 
2

>  <i_i_glide_posenum>  (261) 
10

>  <r_i_glide_eff_state_penalty>  (261) 
0

>  <ligand_id>  (261) 
67

>  <original_smiles>  (261) 
c1cnc2ncccc2c1

>  <smiles>  (261) 
[H]c1nc2nc([H])c([H])c([H])c2c([H])c1[H]

$$$$
67:0:1
     RDKit          3D

 16 17  0  0  1  0  0  0  0  0999 V2000
    1.4334   -8.4738    2.0804 C   0  0  0  0  0  0  0  0  0  0  0  0
    0.5174   -7.4588    1.7570 C   0  0  0  0  0  0  0  0  0  0  0  0
    0.8830   -6.2678    1.2363 N   0  0  0  0  0  0  0  0  0  0  0  0
    2.1957   -6.0198    1.0016 C   0  0  0  0  0  0  0  0  0  0  0  0
    2.5603   -4.8294    0.4807 N   0  0  0  0  0  0  0  0  0  0  0  0
    3.8569   -4.5771    0.2211 C   0  0  0  0  0  0  0  0  0  0  0  0
    4.8883   -5.4953    0.4812 C   0  0  0  0  0  0  0  0  0  0  0  0
    4.5413   -6.7415    1.0285 C   0  0  0  0  0  0  0  0  0  0  0  0
    3.1823   -7.0055    1.2914 C   0  0  0  0  0  0  0  0  0  0  0  0
    2.7957   -8.2461    1.8349 C   0  0  0  0  0  0  0  0  0  0  0  0
    1.0946   -9.4163    2.4918 H   0  0  0  0  0  0  0  0  0  0  0  0
   -0.5407   -7.6094    1.9218 H   0  0  0  0  0  0  0  0  0  0  0  0
    4.0709   -3.6046   -0.2011 H   0  0  0  0  0  0  0  0  0  0  0  0
    5.9190   -5.2472    0.2656 H   0  0  0  0  0  0  0  0  0  0  0  0
    5.3018   -7.4778    1.2432 H   0  0  0  0  0  0  0  0  0  0  0  0
    3.5255   -9.0117    2.0565 H   0  0  0  0  0  0  0  0  0  0  0  0
  1 10  2  0
  1  2  1  0
  1 11  1  0
  2  3  2  0
  2 12  1  0
  3  4  1  0
  4  9  2  0
  4  5  1  0
  5  6  2  0
  6  7  1  0
  6 13  1  0
  7  8  2  0
  7 14  1  0
  8  9  1  0
  8 15  1  0
  9 10  1  0
 10 16  1  0
M  END
>  <i_m_ct_stereo_status>  (262) 
1

>  <s_m_source_file>  (262) 
/var/tmp/pbs.5076255.sched01/tmpo609hgx5/90rinj4u0e.sdf

>  <i_m_source_file_index>  (262) 
20

>  <i_lp_mmshare_version>  (262) 
48012

>  <i_f3d_flags>  (262) 
0

>  <s_epik_input>  (262) 
bjFbY0hdW2NIXVtjSF1jKGMxMilbY0hdW2NIXVtjSF1uMg==

>  <s_epik_cmdline>  (262) 
J2VwaWtfcHl0aG9uJywgJy1waHQnLCAnMi4wJywgJy1waCcsICc3LjAnLCAnLXRuJywgJzgnLCAnLW1hJywgJzIwMCcsICctaW1hZScsICc8aW5maWxlLm1hZT4nLCAnLW9tYWUnLCAnPG91dGZpbGUubWFlPic=

>  <r_lp_tautomer_probability>  (262) 
1

>  <r_epik_Ionization_Penalty>  (262) 
7.47662e-06

>  <r_epik_Ionization_Penalty_Charging>  (262) 
0

>  <r_epik_Ionization_Penalty_Neutral>  (262) 
7.47662e-06

>  <r_epik_State_Penalty>  (262) 
-0

>  <r_epik_Charging_Adjusted_Penalty>  (262) 
0

>  <i_epik_Tot_Q>  (262) 
0

>  <i_epik_Tot_abs_Q>  (262) 
0

>  <s_lp_Force_Field>  (262) 
OPLS3e

>  <r_lp_Energy>  (262) 
20.8089

>  <b_lp_Chiralities_Consistent>  (262) 
1

>  <s_lp_Variant>  (262) 
67:0-1

>  <s_i_glide_gridfile>  (262) 
pfpi4k_grid

>  <i_i_glide_lignum>  (262) 
20

>  <i_i_glide_rotatable_bonds>  (262) 
0

>  <r_i_docking_score>  (262) 
-3.73431

>  <r_i_glide_ligand_efficiency>  (262) 
-0.373431

>  <r_i_glide_ligand_efficiency_sa>  (262) 
-0.804532

>  <r_i_glide_ligand_efficiency_ln>  (262) 
-1.13072

>  <r_i_glide_gscore>  (262) 
-3.73431

>  <r_i_glide_lipo>  (262) 
-0.254211

>  <r_i_glide_hbond>  (262) 
-0.16

>  <r_i_glide_metal>  (262) 
-0

>  <r_i_glide_rewards>  (262) 
-2.25

>  <r_i_glide_evdw>  (262) 
-12.1093

>  <r_i_glide_ecoul>  (262) 
-2.88139

>  <r_i_glide_erotb>  (262) 
0

>  <r_i_glide_esite>  (262) 
-0.0324253

>  <r_i_glide_emodel>  (262) 
-20.807

>  <r_i_glide_energy>  (262) 
-14.9907

>  <r_i_glide_einternal>  (262) 
0

>  <r_i_glide_intrahb_reward>  (262) 
-0

>  <i_i_glide_confnum>  (262) 
2

>  <i_i_glide_posenum>  (262) 
16

>  <r_i_glide_eff_state_penalty>  (262) 
0

>  <ligand_id>  (262) 
67

>  <original_smiles>  (262) 
c1cnc2ncccc2c1

>  <smiles>  (262) 
[H]c1nc2nc([H])c([H])c([H])c2c([H])c1[H]

$$$$
67:0:2
     RDKit          3D

 16 17  0  0  1  0  0  0  0  0999 V2000
   -0.2324   -9.4469    2.8816 C   0  0  0  0  0  0  0  0  0  0  0  0
   -0.6510   -8.2289    2.3255 C   0  0  0  0  0  0  0  0  0  0  0  0
   -0.6424   -7.0587    3.0006 N   0  0  0  0  0  0  0  0  0  0  0  0
   -0.2061   -7.0350    4.2839 C   0  0  0  0  0  0  0  0  0  0  0  0
   -0.1862   -5.8679    4.9669 N   0  0  0  0  0  0  0  0  0  0  0  0
    0.2454   -5.8371    6.2435 C   0  0  0  0  0  0  0  0  0  0  0  0
    0.6880   -6.9757    6.9371 C   0  0  0  0  0  0  0  0  0  0  0  0
    0.6795   -8.2040    6.2566 C   0  0  0  0  0  0  0  0  0  0  0  0
    0.2321   -8.2318    4.9205 C   0  0  0  0  0  0  0  0  0  0  0  0
    0.2155   -9.4493    4.2125 C   0  0  0  0  0  0  0  0  0  0  0  0
   -0.2615  -10.3600    2.3012 H   0  0  0  0  0  0  0  0  0  0  0  0
   -1.0028   -8.1957    1.3020 H   0  0  0  0  0  0  0  0  0  0  0  0
    0.2404   -4.8660    6.7204 H   0  0  0  0  0  0  0  0  0  0  0  0
    1.0348   -6.9044    7.9591 H   0  0  0  0  0  0  0  0  0  0  0  0
    1.0141   -9.1086    6.7472 H   0  0  0  0  0  0  0  0  0  0  0  0
    0.5276  -10.3702    4.6833 H   0  0  0  0  0  0  0  0  0  0  0  0
  1 10  2  0
  1  2  1  0
  1 11  1  0
  2  3  2  0
  2 12  1  0
  3  4  1  0
  4  9  2  0
  4  5  1  0
  5  6  2  0
  6  7  1  0
  6 13  1  0
  7  8  2  0
  7 14  1  0
  8  9  1  0
  8 15  1  0
  9 10  1  0
 10 16  1  0
M  END
>  <i_m_ct_stereo_status>  (263) 
1

>  <s_m_source_file>  (263) 
/var/tmp/pbs.5076255.sched01/tmpo609hgx5/90rinj4u0e.sdf

>  <i_m_source_file_index>  (263) 
20

>  <i_lp_mmshare_version>  (263) 
48012

>  <i_f3d_flags>  (263) 
0

>  <s_epik_input>  (263) 
bjFbY0hdW2NIXVtjSF1jKGMxMilbY0hdW2NIXVtjSF1uMg==

>  <s_epik_cmdline>  (263) 
J2VwaWtfcHl0aG9uJywgJy1waHQnLCAnMi4wJywgJy1waCcsICc3LjAnLCAnLXRuJywgJzgnLCAnLW1hJywgJzIwMCcsICctaW1hZScsICc8aW5maWxlLm1hZT4nLCAnLW9tYWUnLCAnPG91dGZpbGUubWFlPic=

>  <r_lp_tautomer_probability>  (263) 
1

>  <r_epik_Ionization_Penalty>  (263) 
7.47662e-06

>  <r_epik_Ionization_Penalty_Charging>  (263) 
0

>  <r_epik_Ionization_Penalty_Neutral>  (263) 
7.47662e-06

>  <r_epik_State_Penalty>  (263) 
-0

>  <r_epik_Charging_Adjusted_Penalty>  (263) 
0

>  <i_epik_Tot_Q>  (263) 
0

>  <i_epik_Tot_abs_Q>  (263) 
0

>  <s_lp_Force_Field>  (263) 
OPLS3e

>  <r_lp_Energy>  (263) 
20.8089

>  <b_lp_Chiralities_Consistent>  (263) 
1

>  <s_lp_Variant>  (263) 
67:0-1

>  <s_i_glide_gridfile>  (263) 
pfpi4k_grid

>  <i_i_glide_lignum>  (263) 
20

>  <i_i_glide_rotatable_bonds>  (263) 
0

>  <r_i_docking_score>  (263) 
-3.47367

>  <r_i_glide_ligand_efficiency>  (263) 
-0.347367

>  <r_i_glide_ligand_efficiency_sa>  (263) 
-0.74838

>  <r_i_glide_ligand_efficiency_ln>  (263) 
-1.0518

>  <r_i_glide_gscore>  (263) 
-3.47367

>  <r_i_glide_lipo>  (263) 
0

>  <r_i_glide_hbond>  (263) 
-0.121185

>  <r_i_glide_metal>  (263) 
-0

>  <r_i_glide_rewards>  (263) 
-2.25

>  <r_i_glide_evdw>  (263) 
-12.695

>  <r_i_glide_ecoul>  (263) 
-2.87663

>  <r_i_glide_erotb>  (263) 
0

>  <r_i_glide_esite>  (263) 
-0.0362455

>  <r_i_glide_emodel>  (263) 
-20.9823

>  <r_i_glide_energy>  (263) 
-15.5716

>  <r_i_glide_einternal>  (263) 
0

>  <r_i_glide_intrahb_reward>  (263) 
-0

>  <i_i_glide_confnum>  (263) 
1

>  <i_i_glide_posenum>  (263) 
35

>  <r_i_glide_eff_state_penalty>  (263) 
0

>  <ligand_id>  (263) 
67

>  <original_smiles>  (263) 
c1cnc2ncccc2c1

>  <smiles>  (263) 
[H]c1nc2nc([H])c([H])c([H])c2c([H])c1[H]

$$$$
68:0:0
     RDKit          3D

 42 45  0  0  1  0  0  0  0  0999 V2000
    4.0257   -5.6210    1.8889 C   0  0  0  0  0  0  0  0  0  0  0  0
    3.9560   -4.1379    1.4687 C   0  0  2  0  0  0  0  0  0  0  0  0
    4.0554   -3.9063   -0.0224 C   0  0  0  0  0  0  0  0  0  0  0  0
    4.7641   -2.5707   -0.5921 C   0  0  2  0  0  0  0  0  0  0  0  0
    5.8219   -1.6782   -0.0671 O   0  0  0  0  0  0  0  0  0  0  0  0
    7.2104   -2.1302   -0.2562 O   0  0  0  0  0  0  0  0  0  0  0  0
    7.0953   -3.4782   -0.1690 C   0  0  1  0  0  0  0  0  0  0  0  0
    8.5126   -4.0649   -0.2715 C   0  0  0  0  0  0  0  0  0  0  0  0
    6.4900   -3.7286    1.3294 C   0  0  0  0  0  0  0  0  0  0  0  0
    5.0551   -3.2584    1.9869 C   0  0  1  0  0  0  0  0  0  0  0  0
    4.4000   -1.7750    2.0092 C   0  0  0  0  0  0  0  0  0  0  0  0
    3.3125   -1.3234    0.8794 C   0  0  1  0  0  0  0  0  0  0  0  0
    2.7673    0.0708    1.2385 C   0  0  0  0  0  0  0  0  0  0  0  0
    3.8437   -1.3961   -0.6198 C   0  0  2  0  0  0  0  0  0  0  0  0
    3.0742   -1.5417   -1.9500 C   0  0  0  0  0  0  0  0  0  0  0  0
    4.1024   -1.5454   -3.1117 C   0  0  0  0  0  0  0  0  0  0  0  0
    3.8752   -0.9102   -4.1458 O   0  0  0  0  0  0  0  0  0  0  0  0
    5.2987   -2.2549   -2.8972 O   0  0  0  0  0  0  0  0  0  0  0  0
    5.2813   -3.1590   -1.8452 C   0  0  1  0  0  0  0  0  0  0  0  0
    6.4503   -3.8520   -1.4213 O   0  0  0  0  0  0  0  0  0  0  0  0
    4.9005   -6.1429    1.5024 H   0  0  0  0  0  0  0  0  0  0  0  0
    3.1506   -6.1576    1.5240 H   0  0  0  0  0  0  0  0  0  0  0  0
    4.0365   -5.7180    2.9750 H   0  0  0  0  0  0  0  0  0  0  0  0
    2.9990   -3.7876    1.8516 H   0  0  0  0  0  0  0  0  0  0  0  0
    4.5636   -4.8054   -0.3770 H   0  0  0  0  0  0  0  0  0  0  0  0
    3.0587   -3.9999   -0.4577 H   0  0  0  0  0  0  0  0  0  0  0  0
    8.9902   -3.7464   -1.1970 H   0  0  0  0  0  0  0  0  0  0  0  0
    8.4951   -5.1554   -0.2820 H   0  0  0  0  0  0  0  0  0  0  0  0
    9.1502   -3.7583    0.5568 H   0  0  0  0  0  0  0  0  0  0  0  0
    6.5948   -4.7986    1.5216 H   0  0  0  0  0  0  0  0  0  0  0  0
    7.2266   -3.2935    1.9922 H   0  0  0  0  0  0  0  0  0  0  0  0
    5.1719   -3.4958    3.0453 H   0  0  0  0  0  0  0  0  0  0  0  0
    3.8740   -1.6941    2.9590 H   0  0  0  0  0  0  0  0  0  0  0  0
    5.1933   -1.0276    2.0951 H   0  0  0  0  0  0  0  0  0  0  0  0
    2.4407   -1.9764    0.9327 H   0  0  0  0  0  0  0  0  0  0  0  0
    3.5469    0.8321    1.2156 H   0  0  0  0  0  0  0  0  0  0  0  0
    2.3051    0.0797    2.2234 H   0  0  0  0  0  0  0  0  0  0  0  0
    1.9968    0.3720    0.5296 H   0  0  0  0  0  0  0  0  0  0  0  0
    4.3495   -0.4351   -0.7903 H   0  0  0  0  0  0  0  0  0  0  0  0
    2.4414   -2.4343   -1.9889 H   0  0  0  0  0  0  0  0  0  0  0  0
    2.4368   -0.6723   -2.1151 H   0  0  0  0  0  0  0  0  0  0  0  0
    4.6188   -3.9239   -2.2459 H   0  0  0  0  0  0  0  0  0  0  0  0
  1  2  1  0
  1 21  1  0
  1 22  1  0
  1 23  1  0
  2 10  1  0
  2  3  1  0
  2 24  1  1
  3  4  1  0
  3 25  1  0
  3 26  1  0
  4 14  1  0
  4 19  1  0
  4  5  1  1
  5  6  1  0
  6  7  1  0
  7 20  1  0
  7  8  1  1
  7  9  1  0
  8 27  1  0
  8 28  1  0
  8 29  1  0
  9 10  1  0
  9 30  1  0
  9 31  1  0
 10 11  1  0
 10 32  1  1
 11 12  1  0
 11 33  1  0
 11 34  1  0
 12 13  1  0
 12 14  1  0
 12 35  1  6
 13 36  1  0
 13 37  1  0
 13 38  1  0
 14 15  1  0
 14 39  1  6
 15 16  1  0
 15 40  1  0
 15 41  1  0
 16 17  2  0
 16 18  1  0
 18 19  1  0
 19 20  1  0
 19 42  1  6
M  END
>  <i_m_ct_stereo_status>  (264) 
1

>  <s_m_source_file>  (264) 
/var/tmp/pbs.5076255.sched01/tmpo609hgx5/90rinj4u0e.sdf

>  <i_m_source_file_index>  (264) 
21

>  <i_lp_mmshare_version>  (264) 
48012

>  <i_f3d_flags>  (264) 
0

>  <s_epik_input>  (264) 
W0NAQF0xMjNbQ0BASF00W0NASF0oW0NIM10pW0NIMl1bQ0BASF0oW0NASF0oW0NIM10pW0NIMl0xKVtDSDJdW0NAQF0oT08yKShbQ0gzXSlPW0NAQEhdM09DKD1PKVtDSDJdNA==

>  <s_epik_cmdline>  (264) 
J2VwaWtfcHl0aG9uJywgJy1waHQnLCAnMi4wJywgJy1waCcsICc3LjAnLCAnLXRuJywgJzgnLCAnLW1hJywgJzIwMCcsICctaW1hZScsICc8aW5maWxlLm1hZT4nLCAnLW9tYWUnLCAnPG91dGZpbGUubWFlPic=

>  <r_lp_tautomer_probability>  (264) 
1

>  <r_epik_Ionization_Penalty>  (264) 
4.47478e-11

>  <r_epik_Ionization_Penalty_Charging>  (264) 
0

>  <r_epik_Ionization_Penalty_Neutral>  (264) 
4.47478e-11

>  <r_epik_State_Penalty>  (264) 
-0

>  <r_epik_Charging_Adjusted_Penalty>  (264) 
0

>  <i_epik_Tot_Q>  (264) 
0

>  <i_epik_Tot_abs_Q>  (264) 
0

>  <s_epik_Chemistry_Notes>  (264) 
This compound has an ester and may undergo hydrolysis at high or low pH. This compound contains an acetal/aminal-like group ( X-CH(R)-Y where X, Y are N, S, or O) that may be acid/base labile, releasing an aldehyde.

>  <s_lp_Force_Field>  (264) 
OPLS3e

>  <r_lp_Energy>  (264) 
161.285

>  <b_lp_Chiralities_Consistent>  (264) 
1

>  <s_lp_Variant>  (264) 
68:0-1

>  <s_i_glide_gridfile>  (264) 
pfpi4k_grid

>  <i_i_glide_lignum>  (264) 
21

>  <i_i_glide_rotatable_bonds>  (264) 
0

>  <r_i_docking_score>  (264) 
-3.68385

>  <r_i_glide_ligand_efficiency>  (264) 
-0.184192

>  <r_i_glide_ligand_efficiency_sa>  (264) 
-0.499975

>  <r_i_glide_ligand_efficiency_ln>  (264) 
-0.921945

>  <r_i_glide_gscore>  (264) 
-3.68385

>  <r_i_glide_lipo>  (264) 
-0.170418

>  <r_i_glide_hbond>  (264) 
-0.112426

>  <r_i_glide_metal>  (264) 
-0

>  <r_i_glide_rewards>  (264) 
-1.91189

>  <r_i_glide_evdw>  (264) 
-19.1088

>  <r_i_glide_ecoul>  (264) 
-3.55779

>  <r_i_glide_erotb>  (264) 
0

>  <r_i_glide_esite>  (264) 
0

>  <r_i_glide_emodel>  (264) 
-28.2895

>  <r_i_glide_energy>  (264) 
-22.6666

>  <r_i_glide_einternal>  (264) 
0

>  <r_i_glide_intrahb_reward>  (264) 
-0

>  <i_i_glide_confnum>  (264) 
2

>  <i_i_glide_posenum>  (264) 
5

>  <r_i_glide_eff_state_penalty>  (264) 
0

>  <ligand_id>  (264) 
68

>  <original_smiles>  (264) 
CC1CC23OOC4(C)CC1CC(C)C2CC(=O)OC3O4

>  <smiles>  (264) 
[H]C([H])([H])C12OOC34C([H])(OC(=O)C([H])([H])C3([H])C([H])(C([H])([H])[H])C([H])([H])C([H])(C1([H])[H])C([H])(C([H])([H])[H])C4([H])[H])O2

$$$$
68:0:1
     RDKit          3D

 42 45  0  0  1  0  0  0  0  0999 V2000
    4.2058   -1.0198   -2.3983 C   0  0  0  0  0  0  0  0  0  0  0  0
    4.9679   -1.9002   -1.3898 C   0  0  2  0  0  0  0  0  0  0  0  0
    4.1691   -3.0853   -0.8758 C   0  0  0  0  0  0  0  0  0  0  0  0
    4.4077   -3.6276    0.6197 C   0  0  2  0  0  0  0  0  0  0  0  0
    4.8545   -2.9604    1.8649 O   0  0  0  0  0  0  0  0  0  0  0  0
    3.8195   -2.2532    2.6190 O   0  0  0  0  0  0  0  0  0  0  0  0
    3.0257   -1.7525    1.6323 C   0  0  1  0  0  0  0  0  0  0  0  0
    1.9574   -0.8750    2.3053 C   0  0  0  0  0  0  0  0  0  0  0  0
    4.0588   -0.8130    0.7669 C   0  0  0  0  0  0  0  0  0  0  0  0
    5.3860   -1.2357   -0.1102 C   0  0  1  0  0  0  0  0  0  0  0  0
    6.6724   -2.0940    0.3702 C   0  0  0  0  0  0  0  0  0  0  0  0
    6.7489   -3.7035    0.0900 C   0  0  1  0  0  0  0  0  0  0  0  0
    8.1221   -4.2450    0.5333 C   0  0  0  0  0  0  0  0  0  0  0  0
    5.5620   -4.5545    0.7232 C   0  0  2  0  0  0  0  0  0  0  0  0
    5.0319   -5.9253    0.3212 C   0  0  0  0  0  0  0  0  0  0  0  0
    3.8736   -6.2907    1.3150 C   0  0  0  0  0  0  0  0  0  0  0  0
    3.8018   -7.4300    1.7171 O   0  0  0  0  0  0  0  0  0  0  0  0
    3.0004   -5.2331    1.7098 O   0  0  0  0  0  0  0  0  0  0  0  0
    3.0274   -4.1237    0.8685 C   0  0  1  0  0  0  0  0  0  0  0  0
    2.2855   -2.9191    1.1485 O   0  0  0  0  0  0  0  0  0  0  0  0
    3.2377   -0.6758   -2.0311 H   0  0  0  0  0  0  0  0  0  0  0  0
    4.0077   -1.5693   -3.3212 H   0  0  0  0  0  0  0  0  0  0  0  0
    4.7827   -0.1336   -2.6655 H   0  0  0  0  0  0  0  0  0  0  0  0
    5.8440   -2.2355   -1.9419 H   0  0  0  0  0  0  0  0  0  0  0  0
    3.1333   -2.7662   -1.0299 H   0  0  0  0  0  0  0  0  0  0  0  0
    4.2779   -3.9057   -1.5837 H   0  0  0  0  0  0  0  0  0  0  0  0
    1.4059   -1.4533    3.0449 H   0  0  0  0  0  0  0  0  0  0  0  0
    1.2349   -0.5074    1.5786 H   0  0  0  0  0  0  0  0  0  0  0  0
    2.3878   -0.0102    2.8122 H   0  0  0  0  0  0  0  0  0  0  0  0
    3.4128   -0.2603    0.0967 H   0  0  0  0  0  0  0  0  0  0  0  0
    4.4133   -0.0584    1.4601 H   0  0  0  0  0  0  0  0  0  0  0  0
    5.8127   -0.2727   -0.3865 H   0  0  0  0  0  0  0  0  0  0  0  0
    7.5333   -1.6750   -0.1347 H   0  0  0  0  0  0  0  0  0  0  0  0
    6.8770   -1.8819    1.4213 H   0  0  0  0  0  0  0  0  0  0  0  0
    6.7376   -3.8647   -0.9851 H   0  0  0  0  0  0  0  0  0  0  0  0
    8.2837   -4.1149    1.6048 H   0  0  0  0  0  0  0  0  0  0  0  0
    8.9331   -3.7208    0.0185 H   0  0  0  0  0  0  0  0  0  0  0  0
    8.2316   -5.3085    0.3095 H   0  0  0  0  0  0  0  0  0  0  0  0
    5.8789   -4.7433    1.7521 H   0  0  0  0  0  0  0  0  0  0  0  0
    4.6788   -5.9702   -0.7088 H   0  0  0  0  0  0  0  0  0  0  0  0
    5.8078   -6.6784    0.4400 H   0  0  0  0  0  0  0  0  0  0  0  0
    2.5766   -4.5123   -0.0454 H   0  0  0  0  0  0  0  0  0  0  0  0
  1  2  1  0
  1 21  1  0
  1 22  1  0
  1 23  1  0
  2 10  1  0
  2  3  1  0
  2 24  1  6
  3  4  1  0
  3 25  1  0
  3 26  1  0
  4 14  1  0
  4 19  1  0
  4  5  1  1
  5  6  1  0
  6  7  1  0
  7 20  1  0
  7  8  1  1
  7  9  1  0
  8 27  1  0
  8 28  1  0
  8 29  1  0
  9 10  1  0
  9 30  1  0
  9 31  1  0
 10 11  1  0
 10 32  1  6
 11 12  1  0
 11 33  1  0
 11 34  1  0
 12 13  1  0
 12 14  1  0
 12 35  1  6
 13 36  1  0
 13 37  1  0
 13 38  1  0
 14 15  1  0
 14 39  1  1
 15 16  1  0
 15 40  1  0
 15 41  1  0
 16 17  2  0
 16 18  1  0
 18 19  1  0
 19 20  1  0
 19 42  1  6
M  END
>  <i_m_ct_stereo_status>  (265) 
1

>  <s_m_source_file>  (265) 
/var/tmp/pbs.5076255.sched01/tmpo609hgx5/90rinj4u0e.sdf

>  <i_m_source_file_index>  (265) 
21

>  <i_lp_mmshare_version>  (265) 
48012

>  <i_f3d_flags>  (265) 
0

>  <s_epik_input>  (265) 
W0NAQF0xMjNbQ0BASF00W0NASF0oW0NIM10pW0NIMl1bQ0BASF0oW0NASF0oW0NIM10pW0NIMl0xKVtDSDJdW0NAQF0oT08yKShbQ0gzXSlPW0NAQEhdM09DKD1PKVtDSDJdNA==

>  <s_epik_cmdline>  (265) 
J2VwaWtfcHl0aG9uJywgJy1waHQnLCAnMi4wJywgJy1waCcsICc3LjAnLCAnLXRuJywgJzgnLCAnLW1hJywgJzIwMCcsICctaW1hZScsICc8aW5maWxlLm1hZT4nLCAnLW9tYWUnLCAnPG91dGZpbGUubWFlPic=

>  <r_lp_tautomer_probability>  (265) 
1

>  <r_epik_Ionization_Penalty>  (265) 
4.47478e-11

>  <r_epik_Ionization_Penalty_Charging>  (265) 
0

>  <r_epik_Ionization_Penalty_Neutral>  (265) 
4.47478e-11

>  <r_epik_State_Penalty>  (265) 
-0

>  <r_epik_Charging_Adjusted_Penalty>  (265) 
0

>  <i_epik_Tot_Q>  (265) 
0

>  <i_epik_Tot_abs_Q>  (265) 
0

>  <s_epik_Chemistry_Notes>  (265) 
This compound has an ester and may undergo hydrolysis at high or low pH. This compound contains an acetal/aminal-like group ( X-CH(R)-Y where X, Y are N, S, or O) that may be acid/base labile, releasing an aldehyde.

>  <s_lp_Force_Field>  (265) 
OPLS3e

>  <r_lp_Energy>  (265) 
161.285

>  <b_lp_Chiralities_Consistent>  (265) 
1

>  <s_lp_Variant>  (265) 
68:0-1

>  <s_i_glide_gridfile>  (265) 
pfpi4k_grid

>  <i_i_glide_lignum>  (265) 
21

>  <i_i_glide_rotatable_bonds>  (265) 
0

>  <r_i_docking_score>  (265) 
-3.50248

>  <r_i_glide_ligand_efficiency>  (265) 
-0.175124

>  <r_i_glide_ligand_efficiency_sa>  (265) 
-0.47536

>  <r_i_glide_ligand_efficiency_ln>  (265) 
-0.876555

>  <r_i_glide_gscore>  (265) 
-3.50248

>  <r_i_glide_lipo>  (265) 
-0.599786

>  <r_i_glide_hbond>  (265) 
0

>  <r_i_glide_metal>  (265) 
-0

>  <r_i_glide_rewards>  (265) 
-1.56929

>  <r_i_glide_evdw>  (265) 
-24.78

>  <r_i_glide_ecoul>  (265) 
-0.398664

>  <r_i_glide_erotb>  (265) 
0

>  <r_i_glide_esite>  (265) 
-0.0346083

>  <r_i_glide_emodel>  (265) 
-30.5391

>  <r_i_glide_energy>  (265) 
-25.1786

>  <r_i_glide_einternal>  (265) 
0

>  <r_i_glide_intrahb_reward>  (265) 
-0

>  <i_i_glide_confnum>  (265) 
2

>  <i_i_glide_posenum>  (265) 
1

>  <r_i_glide_eff_state_penalty>  (265) 
0

>  <ligand_id>  (265) 
68

>  <original_smiles>  (265) 
CC1CC23OOC4(C)CC1CC(C)C2CC(=O)OC3O4

>  <smiles>  (265) 
[H]C([H])([H])C12OOC34C([H])(OC(=O)C([H])([H])C3([H])C([H])(C([H])([H])[H])C([H])([H])C([H])(C1([H])[H])C([H])(C([H])([H])[H])C4([H])[H])O2

$$$$
68:0:2
     RDKit          3D

 42 45  0  0  1  0  0  0  0  0999 V2000
    3.9133   -2.2153   -1.6163 C   0  0  0  0  0  0  0  0  0  0  0  0
    4.0390   -3.3733   -0.6060 C   0  0  2  0  0  0  0  0  0  0  0  0
    3.0342   -3.3180    0.5214 C   0  0  0  0  0  0  0  0  0  0  0  0
    3.4116   -3.8747    1.9838 C   0  0  2  0  0  0  0  0  0  0  0  0
    4.7038   -4.0212    2.6926 O   0  0  0  0  0  0  0  0  0  0  0  0
    5.1696   -2.7646    3.3654 O   0  0  0  0  0  0  0  0  0  0  0  0
    4.7355   -1.7966    2.5261 C   0  0  1  0  0  0  0  0  0  0  0  0
    5.2721   -0.4732    3.0897 C   0  0  0  0  0  0  0  0  0  0  0  0
    5.4978   -2.1580    1.1294 C   0  0  0  0  0  0  0  0  0  0  0  0
    5.3263   -3.4631    0.1488 C   0  0  1  0  0  0  0  0  0  0  0  0
    5.4371   -5.0257    0.5434 C   0  0  0  0  0  0  0  0  0  0  0  0
    4.1002   -5.9000    0.8832 C   0  0  1  0  0  0  0  0  0  0  0  0
    4.4919   -7.3778    1.0982 C   0  0  0  0  0  0  0  0  0  0  0  0
    3.2430   -5.3493    2.0995 C   0  0  2  0  0  0  0  0  0  0  0  0
    1.7753   -5.5860    2.4429 C   0  0  0  0  0  0  0  0  0  0  0  0
    1.4868   -4.8170    3.7708 C   0  0  0  0  0  0  0  0  0  0  0  0
    0.7263   -5.3800    4.5476 O   0  0  0  0  0  0  0  0  0  0  0  0
    2.0986   -3.5633    3.9541 O   0  0  0  0  0  0  0  0  0  0  0  0
    2.5581   -2.9544    2.7862 C   0  0  1  0  0  0  0  0  0  0  0  0
    3.2993   -1.7355    2.7525 O   0  0  0  0  0  0  0  0  0  0  0  0
    3.9372   -1.2274   -1.1557 H   0  0  0  0  0  0  0  0  0  0  0  0
    2.9669   -2.2806   -2.1566 H   0  0  0  0  0  0  0  0  0  0  0  0
    4.7114   -2.2572   -2.3589 H   0  0  0  0  0  0  0  0  0  0  0  0
    3.8964   -4.2675   -1.2089 H   0  0  0  0  0  0  0  0  0  0  0  0
    2.7461   -2.2666    0.5552 H   0  0  0  0  0  0  0  0  0  0  0  0
    2.1228   -3.8038    0.1779 H   0  0  0  0  0  0  0  0  0  0  0  0
    4.9482   -0.3341    4.1231 H   0  0  0  0  0  0  0  0  0  0  0  0
    4.8844    0.3724    2.5226 H   0  0  0  0  0  0  0  0  0  0  0  0
    6.3644   -0.4148    3.0843 H   0  0  0  0  0  0  0  0  0  0  0  0
    5.3572   -1.2788    0.5021 H   0  0  0  0  0  0  0  0  0  0  0  0
    6.5617   -2.1205    1.3581 H   0  0  0  0  0  0  0  0  0  0  0  0
    6.1164   -3.3337   -0.5909 H   0  0  0  0  0  0  0  0  0  0  0  0
    5.8871   -5.5249   -0.3136 H   0  0  0  0  0  0  0  0  0  0  0  0
    6.1927   -5.1592    1.3204 H   0  0  0  0  0  0  0  0  0  0  0  0
    3.4574   -5.9334    0.0075 H   0  0  0  0  0  0  0  0  0  0  0  0
    5.1722   -7.5070    1.9439 H   0  0  0  0  0  0  0  0  0  0  0  0
    4.9969   -7.7869    0.2166 H   0  0  0  0  0  0  0  0  0  0  0  0
    3.6176   -8.0104    1.2776 H   0  0  0  0  0  0  0  0  0  0  0  0
    3.7288   -5.7749    2.9863 H   0  0  0  0  0  0  0  0  0  0  0  0
    1.1152   -5.2631    1.6431 H   0  0  0  0  0  0  0  0  0  0  0  0
    1.5812   -6.6552    2.5866 H   0  0  0  0  0  0  0  0  0  0  0  0
    1.6345   -2.7321    2.2500 H   0  0  0  0  0  0  0  0  0  0  0  0
  1  2  1  0
  1 21  1  0
  1 22  1  0
  1 23  1  0
  2 10  1  0
  2  3  1  0
  2 24  1  6
  3  4  1  0
  3 25  1  0
  3 26  1  0
  4 14  1  0
  4 19  1  0
  4  5  1  1
  5  6  1  0
  6  7  1  0
  7 20  1  0
  7  8  1  1
  7  9  1  0
  8 27  1  0
  8 28  1  0
  8 29  1  0
  9 10  1  0
  9 30  1  0
  9 31  1  0
 10 11  1  0
 10 32  1  6
 11 12  1  0
 11 33  1  0
 11 34  1  0
 12 13  1  0
 12 14  1  0
 12 35  1  6
 13 36  1  0
 13 37  1  0
 13 38  1  0
 14 15  1  0
 14 39  1  1
 15 16  1  0
 15 40  1  0
 15 41  1  0
 16 17  2  0
 16 18  1  0
 18 19  1  0
 19 20  1  0
 19 42  1  6
M  END
>  <i_m_ct_stereo_status>  (266) 
1

>  <s_m_source_file>  (266) 
/var/tmp/pbs.5076255.sched01/tmpo609hgx5/90rinj4u0e.sdf

>  <i_m_source_file_index>  (266) 
21

>  <i_lp_mmshare_version>  (266) 
48012

>  <i_f3d_flags>  (266) 
0

>  <s_epik_input>  (266) 
W0NAQF0xMjNbQ0BASF00W0NASF0oW0NIM10pW0NIMl1bQ0BASF0oW0NASF0oW0NIM10pW0NIMl0xKVtDSDJdW0NAQF0oT08yKShbQ0gzXSlPW0NAQEhdM09DKD1PKVtDSDJdNA==

>  <s_epik_cmdline>  (266) 
J2VwaWtfcHl0aG9uJywgJy1waHQnLCAnMi4wJywgJy1waCcsICc3LjAnLCAnLXRuJywgJzgnLCAnLW1hJywgJzIwMCcsICctaW1hZScsICc8aW5maWxlLm1hZT4nLCAnLW9tYWUnLCAnPG91dGZpbGUubWFlPic=

>  <r_lp_tautomer_probability>  (266) 
1

>  <r_epik_Ionization_Penalty>  (266) 
4.47478e-11

>  <r_epik_Ionization_Penalty_Charging>  (266) 
0

>  <r_epik_Ionization_Penalty_Neutral>  (266) 
4.47478e-11

>  <r_epik_State_Penalty>  (266) 
-0

>  <r_epik_Charging_Adjusted_Penalty>  (266) 
0

>  <i_epik_Tot_Q>  (266) 
0

>  <i_epik_Tot_abs_Q>  (266) 
0

>  <s_epik_Chemistry_Notes>  (266) 
This compound has an ester and may undergo hydrolysis at high or low pH. This compound contains an acetal/aminal-like group ( X-CH(R)-Y where X, Y are N, S, or O) that may be acid/base labile, releasing an aldehyde.

>  <s_lp_Force_Field>  (266) 
OPLS3e

>  <r_lp_Energy>  (266) 
161.285

>  <b_lp_Chiralities_Consistent>  (266) 
1

>  <s_lp_Variant>  (266) 
68:0-1

>  <s_i_glide_gridfile>  (266) 
pfpi4k_grid

>  <i_i_glide_lignum>  (266) 
21

>  <i_i_glide_rotatable_bonds>  (266) 
0

>  <r_i_docking_score>  (266) 
-3.31783

>  <r_i_glide_ligand_efficiency>  (266) 
-0.165892

>  <r_i_glide_ligand_efficiency_sa>  (266) 
-0.450299

>  <r_i_glide_ligand_efficiency_ln>  (266) 
-0.830344

>  <r_i_glide_gscore>  (266) 
-3.31783

>  <r_i_glide_lipo>  (266) 
-0.574016

>  <r_i_glide_hbond>  (266) 
0

>  <r_i_glide_metal>  (266) 
-0

>  <r_i_glide_rewards>  (266) 
-1.55676

>  <r_i_glide_evdw>  (266) 
-19.5298

>  <r_i_glide_ecoul>  (266) 
-1.33732

>  <r_i_glide_erotb>  (266) 
0

>  <r_i_glide_esite>  (266) 
-0.00996413

>  <r_i_glide_emodel>  (266) 
-25.9302

>  <r_i_glide_energy>  (266) 
-20.8671

>  <r_i_glide_einternal>  (266) 
0

>  <r_i_glide_intrahb_reward>  (266) 
-0

>  <i_i_glide_confnum>  (266) 
1

>  <i_i_glide_posenum>  (266) 
21

>  <r_i_glide_eff_state_penalty>  (266) 
0

>  <ligand_id>  (266) 
68

>  <original_smiles>  (266) 
CC1CC23OOC4(C)CC1CC(C)C2CC(=O)OC3O4

>  <smiles>  (266) 
[H]C([H])([H])C12OOC34C([H])(OC(=O)C([H])([H])C3([H])C([H])(C([H])([H])[H])C([H])([H])C([H])(C1([H])[H])C([H])(C([H])([H])[H])C4([H])[H])O2

$$$$
70:0:0
     RDKit          3D

 53 58  0  0  1  0  0  0  0  0999 V2000
    4.8151   -7.3615    0.4817 C   0  0  0  0  0  0  0  0  0  0  0  0
    3.9883   -6.7127    1.5965 C   0  0  0  0  0  0  0  0  0  0  0  0
    3.0419   -7.8288    2.0566 C   0  0  0  0  0  0  0  0  0  0  0  0
    4.7726   -6.0068    2.7518 C   0  0  1  0  0  0  0  0  0  0  0  0
    6.2423   -5.4483    2.7546 C   0  0  0  0  0  0  0  0  0  0  0  0
    7.1996   -5.6975    1.5798 C   0  0  2  0  0  0  0  0  0  0  0  0
    8.5188   -5.1705    1.7982 O   0  0  0  0  0  0  0  0  0  0  0  0
    7.8571   -4.6630    0.6397 C   0  0  2  0  0  0  0  0  0  0  0  0
    7.7267   -3.1397    0.6567 C   0  0  0  0  0  0  0  0  0  0  0  0
    6.9128   -2.5150   -0.5170 C   0  0  0  0  0  0  0  0  0  0  0  0
    5.6052   -3.2929   -0.7589 C   0  0  1  0  0  0  0  0  0  0  0  0
    4.7538   -3.3592    0.4766 C   0  0  2  0  0  0  0  0  0  0  0  0
    3.7928   -4.4878    0.1819 C   0  0  1  0  0  0  0  0  0  0  0  0
    3.2625   -5.3481    1.3440 C   0  0  2  0  0  0  0  0  0  0  0  0
    3.6097   -5.0050    2.8067 C   0  0  0  0  0  0  0  0  0  0  0  0
    3.2854   -3.3384   -0.7296 C   0  0  1  0  0  0  0  0  0  0  0  0
    3.5222   -2.3754    0.4162 C   0  0  1  0  0  0  0  0  0  0  0  0
    2.4944   -2.2215    1.5491 C   0  0  0  0  0  0  0  0  0  0  0  0
    3.7958   -0.9870   -0.1877 C   0  0  0  0  0  0  0  0  0  0  0  0
    4.2305   -1.3544   -1.6002 C   0  0  0  0  0  0  0  0  0  0  0  0
    4.4165   -0.5681   -2.5276 O   0  0  0  0  0  0  0  0  0  0  0  0
    4.4224   -2.8647   -1.6760 C   0  0  1  0  0  0  0  0  0  0  0  0
    4.4215   -3.4557   -3.0923 C   0  0  0  0  0  0  0  0  0  0  0  0
    5.4159   -8.1929    0.8596 H   0  0  0  0  0  0  0  0  0  0  0  0
    5.4863   -6.6415    0.0189 H   0  0  0  0  0  0  0  0  0  0  0  0
    4.2083   -7.7544   -0.3350 H   0  0  0  0  0  0  0  0  0  0  0  0
    2.3980   -7.5101    2.8742 H   0  0  0  0  0  0  0  0  0  0  0  0
    3.5904   -8.7053    2.4038 H   0  0  0  0  0  0  0  0  0  0  0  0
    2.3863   -8.1565    1.2498 H   0  0  0  0  0  0  0  0  0  0  0  0
    4.6689   -6.6489    3.6273 H   0  0  0  0  0  0  0  0  0  0  0  0
    6.2348   -4.3870    2.9761 H   0  0  0  0  0  0  0  0  0  0  0  0
    6.7499   -5.8810    3.6182 H   0  0  0  0  0  0  0  0  0  0  0  0
    7.2626   -6.7414    1.2857 H   0  0  0  0  0  0  0  0  0  0  0  0
    8.2732   -5.0533   -0.2867 H   0  0  0  0  0  0  0  0  0  0  0  0
    7.2957   -2.8556    1.6154 H   0  0  0  0  0  0  0  0  0  0  0  0
    8.7327   -2.7201    0.6539 H   0  0  0  0  0  0  0  0  0  0  0  0
    6.7114   -1.4714   -0.2661 H   0  0  0  0  0  0  0  0  0  0  0  0
    7.5151   -2.5241   -1.4254 H   0  0  0  0  0  0  0  0  0  0  0  0
    5.9253   -4.2865   -1.0856 H   0  0  0  0  0  0  0  0  0  0  0  0
    5.2509   -3.3759    1.4361 H   0  0  0  0  0  0  0  0  0  0  0  0
    4.0967   -5.2039   -0.5784 H   0  0  0  0  0  0  0  0  0  0  0  0
    2.1927   -5.5137    1.2179 H   0  0  0  0  0  0  0  0  0  0  0  0
    2.8271   -5.3154    3.5003 H   0  0  0  0  0  0  0  0  0  0  0  0
    3.9153   -3.9837    3.0113 H   0  0  0  0  0  0  0  0  0  0  0  0
    2.2663   -3.3977   -1.1216 H   0  0  0  0  0  0  0  0  0  0  0  0
    1.7106   -1.5137    1.2827 H   0  0  0  0  0  0  0  0  0  0  0  0
    2.9664   -1.8384    2.4527 H   0  0  0  0  0  0  0  0  0  0  0  0
    1.9759   -3.1450    1.7965 H   0  0  0  0  0  0  0  0  0  0  0  0
    2.9013   -0.3663   -0.2065 H   0  0  0  0  0  0  0  0  0  0  0  0
    4.5892   -0.4551    0.3346 H   0  0  0  0  0  0  0  0  0  0  0  0
    4.3261   -4.5371   -3.0587 H   0  0  0  0  0  0  0  0  0  0  0  0
    5.3489   -3.2437   -3.6219 H   0  0  0  0  0  0  0  0  0  0  0  0
    3.5865   -3.0737   -3.6813 H   0  0  0  0  0  0  0  0  0  0  0  0
  1  2  1  0
  1 24  1  0
  1 25  1  0
  1 26  1  0
  2 14  1  0
  2  3  1  0
  2  4  1  0
  3 27  1  0
  3 28  1  0
  3 29  1  0
  4 15  1  0
  4  5  1  0
  4 30  1  1
  5  6  1  0
  5 31  1  0
  5 32  1  0
  6  8  1  0
  6  7  1  0
  6 33  1  6
  7  8  1  0
  8  9  1  0
  8 34  1  6
  9 10  1  0
  9 35  1  0
  9 36  1  0
 10 11  1  0
 10 37  1  0
 10 38  1  0
 11 22  1  0
 11 12  1  0
 11 39  1  6
 12 17  1  0
 12 13  1  0
 12 40  1  1
 13 14  1  0
 13 16  1  0
 13 41  1  6
 14 15  1  0
 14 42  1  1
 15 43  1  0
 15 44  1  0
 16 22  1  0
 16 17  1  0
 16 45  1  6
 17 18  1  1
 17 19  1  0
 18 46  1  0
 18 47  1  0
 18 48  1  0
 19 20  1  0
 19 49  1  0
 19 50  1  0
 20 21  2  0
 20 22  1  0
 22 23  1  6
 23 51  1  0
 23 52  1  0
 23 53  1  0
M  END
>  <i_m_ct_stereo_status>  (267) 
1

>  <s_m_source_file>  (267) 
/var/tmp/pbs.5076255.sched01/tmpo609hgx5/90rinj4u0e.sdf

>  <i_m_source_file_index>  (267) 
23

>  <i_lp_mmshare_version>  (267) 
48012

>  <i_f3d_flags>  (267) 
0

>  <s_epik_input>  (267) 
W0NIMl0xW0NIMl1bQ0BASF0oTzIpW0NAQEhdMltDSDJdW0NAQEhdKFtDSDJdMylDKFtDSDNdKShbQ0gzXSlbQ0BASF0zW0NASF00W0NAQEhdNVtDQEBdKFtDSDNdKShDKD1PKVtDSDJdNilbQ0BASF0xW0NASF00W0NAXTU2W0NIM10=

>  <s_epik_cmdline>  (267) 
J2VwaWtfcHl0aG9uJywgJy1waHQnLCAnMi4wJywgJy1waCcsICc3LjAnLCAnLXRuJywgJzgnLCAnLW1hJywgJzIwMCcsICctaW1hZScsICc8aW5maWxlLm1hZT4nLCAnLW9tYWUnLCAnPG91dGZpbGUubWFlPic=

>  <r_lp_tautomer_probability>  (267) 
1

>  <r_epik_Ionization_Penalty>  (267) 
6.10141e-11

>  <r_epik_Ionization_Penalty_Charging>  (267) 
0

>  <r_epik_Ionization_Penalty_Neutral>  (267) 
6.10141e-11

>  <r_epik_State_Penalty>  (267) 
-0

>  <r_epik_Charging_Adjusted_Penalty>  (267) 
0

>  <i_epik_Tot_Q>  (267) 
0

>  <i_epik_Tot_abs_Q>  (267) 
0

>  <s_lp_Force_Field>  (267) 
OPLS3e

>  <r_lp_Energy>  (267) 
102.789

>  <b_lp_Chiralities_Consistent>  (267) 
1

>  <s_lp_Variant>  (267) 
70:0-1

>  <s_i_glide_gridfile>  (267) 
pfpi4k_grid

>  <i_i_glide_lignum>  (267) 
23

>  <i_i_glide_rotatable_bonds>  (267) 
0

>  <r_i_docking_score>  (267) 
-3.09686

>  <r_i_glide_ligand_efficiency>  (267) 
-0.134646

>  <r_i_glide_ligand_efficiency_sa>  (267) 
-0.382915

>  <r_i_glide_ligand_efficiency_ln>  (267) 
-0.748848

>  <r_i_glide_gscore>  (267) 
-3.09686

>  <r_i_glide_lipo>  (267) 
-0.772316

>  <r_i_glide_hbond>  (267) 
0

>  <r_i_glide_metal>  (267) 
-0

>  <r_i_glide_rewards>  (267) 
-1.26503

>  <r_i_glide_evdw>  (267) 
-20.2015

>  <r_i_glide_ecoul>  (267) 
-0.00709505

>  <r_i_glide_erotb>  (267) 
0

>  <r_i_glide_esite>  (267) 
-0.0483691

>  <r_i_glide_emodel>  (267) 
-23.8688

>  <r_i_glide_energy>  (267) 
-20.2085

>  <r_i_glide_einternal>  (267) 
0

>  <r_i_glide_intrahb_reward>  (267) 
-0

>  <i_i_glide_confnum>  (267) 
2

>  <i_i_glide_posenum>  (267) 
2

>  <r_i_glide_eff_state_penalty>  (267) 
0

>  <ligand_id>  (267) 
70

>  <original_smiles>  (267) 
CC1(C)C2CC3OC3CCC3C4C(C1C2)C1C4(C)CC(=O)C31C

>  <smiles>  (267) 
[H]C([H])([H])C12C(=O)C([H])([H])C3(C([H])([H])[H])C4([H])C([H])(C5([H])C([H])([H])C([H])(C([H])([H])C6([H])OC6([H])C([H])([H])C([H])([H])C41[H])C5(C([H])([H])[H])C([H])([H])[H])C23[H]

$$$$
70:0:1
     RDKit          3D

 53 58  0  0  1  0  0  0  0  0999 V2000
    3.1256   -2.6460   -2.0680 C   0  0  0  0  0  0  0  0  0  0  0  0
    4.6298   -2.9353   -1.9403 C   0  0  0  0  0  0  0  0  0  0  0  0
    5.1218   -2.9304   -3.3940 C   0  0  0  0  0  0  0  0  0  0  0  0
    5.4778   -2.0656   -0.9585 C   0  0  1  0  0  0  0  0  0  0  0  0
    5.0111   -1.2057    0.2779 C   0  0  0  0  0  0  0  0  0  0  0  0
    3.5273   -1.0142    0.5690 C   0  0  2  0  0  0  0  0  0  0  0  0
    3.2927   -0.1370    1.6787 O   0  0  0  0  0  0  0  0  0  0  0  0
    2.7233   -1.4394    1.8105 C   0  0  2  0  0  0  0  0  0  0  0  0
    3.2144   -2.1802    3.0584 C   0  0  0  0  0  0  0  0  0  0  0  0
    2.7364   -3.6634    3.1958 C   0  0  0  0  0  0  0  0  0  0  0  0
    2.8731   -4.4289    1.8688 C   0  0  1  0  0  0  0  0  0  0  0  0
    4.2841   -4.3921    1.3489 C   0  0  2  0  0  0  0  0  0  0  0  0
    4.1404   -4.7685   -0.0992 C   0  0  1  0  0  0  0  0  0  0  0  0
    5.1194   -4.1820   -1.1356 C   0  0  2  0  0  0  0  0  0  0  0  0
    6.3199   -3.3188   -0.7031 C   0  0  0  0  0  0  0  0  0  0  0  0
    3.8915   -6.1073    0.6441 C   0  0  1  0  0  0  0  0  0  0  0  0
    5.0417   -5.7563    1.5617 C   0  0  1  0  0  0  0  0  0  0  0  0
    6.5060   -5.9990    1.1464 C   0  0  0  0  0  0  0  0  0  0  0  0
    4.8080   -6.4656    2.9095 C   0  0  0  0  0  0  0  0  0  0  0  0
    3.3154   -6.7065    2.8416 C   0  0  0  0  0  0  0  0  0  0  0  0
    2.6623   -7.4011    3.6347 O   0  0  0  0  0  0  0  0  0  0  0  0
    2.7202   -5.9624    1.6551 C   0  0  1  0  0  0  0  0  0  0  0  0
    1.3567   -6.4412    1.1430 C   0  0  0  0  0  0  0  0  0  0  0  0
    2.9432   -1.6516   -2.4807 H   0  0  0  0  0  0  0  0  0  0  0  0
    2.6100   -2.6854   -1.1173 H   0  0  0  0  0  0  0  0  0  0  0  0
    2.6175   -3.3667   -2.7108 H   0  0  0  0  0  0  0  0  0  0  0  0
    6.1903   -3.1268   -3.4643 H   0  0  0  0  0  0  0  0  0  0  0  0
    4.9391   -1.9708   -3.8735 H   0  0  0  0  0  0  0  0  0  0  0  0
    4.6259   -3.6981   -3.9881 H   0  0  0  0  0  0  0  0  0  0  0  0
    6.0837   -1.4274   -1.5849 H   0  0  0  0  0  0  0  0  0  0  0  0
    5.4958   -1.5282    1.1912 H   0  0  0  0  0  0  0  0  0  0  0  0
    5.3982   -0.1936    0.1314 H   0  0  0  0  0  0  0  0  0  0  0  0
    2.9683   -0.6849   -0.2953 H   0  0  0  0  0  0  0  0  0  0  0  0
    1.6417   -1.4448    1.6931 H   0  0  0  0  0  0  0  0  0  0  0  0
    4.2991   -2.1097    3.0842 H   0  0  0  0  0  0  0  0  0  0  0  0
    2.8764   -1.6185    3.9306 H   0  0  0  0  0  0  0  0  0  0  0  0
    3.3245   -4.1319    3.9851 H   0  0  0  0  0  0  0  0  0  0  0  0
    1.6977   -3.6870    3.5180 H   0  0  0  0  0  0  0  0  0  0  0  0
    2.1986   -3.9256    1.1782 H   0  0  0  0  0  0  0  0  0  0  0  0
    4.8846   -3.5225    1.5655 H   0  0  0  0  0  0  0  0  0  0  0  0
    3.1690   -4.6397   -0.5428 H   0  0  0  0  0  0  0  0  0  0  0  0
    5.4092   -4.9650   -1.8235 H   0  0  0  0  0  0  0  0  0  0  0  0
    7.1681   -3.4122   -1.3930 H   0  0  0  0  0  0  0  0  0  0  0  0
    6.6411   -3.4292    0.3268 H   0  0  0  0  0  0  0  0  0  0  0  0
    4.0015   -7.0249    0.0737 H   0  0  0  0  0  0  0  0  0  0  0  0
    6.8165   -7.0252    1.3536 H   0  0  0  0  0  0  0  0  0  0  0  0
    7.1850   -5.3454    1.6963 H   0  0  0  0  0  0  0  0  0  0  0  0
    6.6819   -5.8566    0.0828 H   0  0  0  0  0  0  0  0  0  0  0  0
    5.3354   -7.4204    3.0043 H   0  0  0  0  0  0  0  0  0  0  0  0
    5.0529   -5.8308    3.7624 H   0  0  0  0  0  0  0  0  0  0  0  0
    1.1552   -6.0526    0.1436 H   0  0  0  0  0  0  0  0  0  0  0  0
    0.5609   -6.1254    1.8102 H   0  0  0  0  0  0  0  0  0  0  0  0
    1.3240   -7.5266    1.0768 H   0  0  0  0  0  0  0  0  0  0  0  0
  1  2  1  0
  1 24  1  0
  1 25  1  0
  1 26  1  0
  2 14  1  0
  2  3  1  0
  2  4  1  0
  3 27  1  0
  3 28  1  0
  3 29  1  0
  4 15  1  0
  4  5  1  0
  4 30  1  6
  5  6  1  0
  5 31  1  0
  5 32  1  0
  6  8  1  0
  6  7  1  0
  6 33  1  6
  7  8  1  0
  8  9  1  0
  8 34  1  6
  9 10  1  0
  9 35  1  0
  9 36  1  0
 10 11  1  0
 10 37  1  0
 10 38  1  0
 11 22  1  0
 11 12  1  0
 11 39  1  6
 12 17  1  0
 12 13  1  0
 12 40  1  6
 13 14  1  0
 13 16  1  0
 13 41  1  6
 14 15  1  0
 14 42  1  6
 15 43  1  0
 15 44  1  0
 16 22  1  0
 16 17  1  0
 16 45  1  6
 17 18  1  6
 17 19  1  0
 18 46  1  0
 18 47  1  0
 18 48  1  0
 19 20  1  0
 19 49  1  0
 19 50  1  0
 20 21  2  0
 20 22  1  0
 22 23  1  6
 23 51  1  0
 23 52  1  0
 23 53  1  0
M  END
>  <i_m_ct_stereo_status>  (268) 
1

>  <s_m_source_file>  (268) 
/var/tmp/pbs.5076255.sched01/tmpo609hgx5/90rinj4u0e.sdf

>  <i_m_source_file_index>  (268) 
23

>  <i_lp_mmshare_version>  (268) 
48012

>  <i_f3d_flags>  (268) 
0

>  <s_epik_input>  (268) 
W0NIMl0xW0NIMl1bQ0BASF0oTzIpW0NAQEhdMltDSDJdW0NAQEhdKFtDSDJdMylDKFtDSDNdKShbQ0gzXSlbQ0BASF0zW0NASF00W0NAQEhdNVtDQEBdKFtDSDNdKShDKD1PKVtDSDJdNilbQ0BASF0xW0NASF00W0NAXTU2W0NIM10=

>  <s_epik_cmdline>  (268) 
J2VwaWtfcHl0aG9uJywgJy1waHQnLCAnMi4wJywgJy1waCcsICc3LjAnLCAnLXRuJywgJzgnLCAnLW1hJywgJzIwMCcsICctaW1hZScsICc8aW5maWxlLm1hZT4nLCAnLW9tYWUnLCAnPG91dGZpbGUubWFlPic=

>  <r_lp_tautomer_probability>  (268) 
1

>  <r_epik_Ionization_Penalty>  (268) 
6.10141e-11

>  <r_epik_Ionization_Penalty_Charging>  (268) 
0

>  <r_epik_Ionization_Penalty_Neutral>  (268) 
6.10141e-11

>  <r_epik_State_Penalty>  (268) 
-0

>  <r_epik_Charging_Adjusted_Penalty>  (268) 
0

>  <i_epik_Tot_Q>  (268) 
0

>  <i_epik_Tot_abs_Q>  (268) 
0

>  <s_lp_Force_Field>  (268) 
OPLS3e

>  <r_lp_Energy>  (268) 
102.789

>  <b_lp_Chiralities_Consistent>  (268) 
1

>  <s_lp_Variant>  (268) 
70:0-1

>  <s_i_glide_gridfile>  (268) 
pfpi4k_grid

>  <i_i_glide_lignum>  (268) 
23

>  <i_i_glide_rotatable_bonds>  (268) 
0

>  <r_i_docking_score>  (268) 
-2.8928

>  <r_i_glide_ligand_efficiency>  (268) 
-0.125774

>  <r_i_glide_ligand_efficiency_sa>  (268) 
-0.357684

>  <r_i_glide_ligand_efficiency_ln>  (268) 
-0.699505

>  <r_i_glide_gscore>  (268) 
-2.8928

>  <r_i_glide_lipo>  (268) 
-0.541899

>  <r_i_glide_hbond>  (268) 
0

>  <r_i_glide_metal>  (268) 
-0

>  <r_i_glide_rewards>  (268) 
-1.26503

>  <r_i_glide_evdw>  (268) 
-20.717

>  <r_i_glide_ecoul>  (268) 
-0.333433

>  <r_i_glide_erotb>  (268) 
0

>  <r_i_glide_esite>  (268) 
0

>  <r_i_glide_emodel>  (268) 
-24.4261

>  <r_i_glide_energy>  (268) 
-21.0505

>  <r_i_glide_einternal>  (268) 
0

>  <r_i_glide_intrahb_reward>  (268) 
-0

>  <i_i_glide_confnum>  (268) 
1

>  <i_i_glide_posenum>  (268) 
6

>  <r_i_glide_eff_state_penalty>  (268) 
0

>  <ligand_id>  (268) 
70

>  <original_smiles>  (268) 
CC1(C)C2CC3OC3CCC3C4C(C1C2)C1C4(C)CC(=O)C31C

>  <smiles>  (268) 
[H]C([H])([H])C12C(=O)C([H])([H])C3(C([H])([H])[H])C4([H])C([H])(C5([H])C([H])([H])C([H])(C([H])([H])C6([H])OC6([H])C([H])([H])C([H])([H])C41[H])C5(C([H])([H])[H])C([H])([H])[H])C23[H]

$$$$
70:0:2
     RDKit          3D

 53 58  0  0  1  0  0  0  0  0999 V2000
    3.4777   -1.1435   -1.7348 C   0  0  0  0  0  0  0  0  0  0  0  0
    3.2737   -2.6268   -1.4260 C   0  0  0  0  0  0  0  0  0  0  0  0
    2.6114   -3.1448   -2.7072 C   0  0  0  0  0  0  0  0  0  0  0  0
    4.4908   -3.4527   -0.9041 C   0  0  1  0  0  0  0  0  0  0  0  0
    5.7967   -2.9419   -0.2009 C   0  0  0  0  0  0  0  0  0  0  0  0
    6.0584   -1.4550   -0.0977 C   0  0  2  0  0  0  0  0  0  0  0  0
    7.3223   -1.1630    0.4970 O   0  0  0  0  0  0  0  0  0  0  0  0
    6.1871   -0.6003    1.1591 C   0  0  2  0  0  0  0  0  0  0  0  0
    6.0991   -0.9980    2.6349 C   0  0  0  0  0  0  0  0  0  0  0  0
    4.8491   -0.4973    3.4249 C   0  0  0  0  0  0  0  0  0  0  0  0
    3.5855   -0.6904    2.5909 C   0  0  1  0  0  0  0  0  0  0  0  0
    3.4172   -2.1324    2.1708 C   0  0  2  0  0  0  0  0  0  0  0  0
    2.4470   -2.0522    1.0339 C   0  0  1  0  0  0  0  0  0  0  0  0
    2.5240   -3.0717   -0.1282 C   0  0  2  0  0  0  0  0  0  0  0  0
    3.4971   -4.2599   -0.0723 C   0  0  0  0  0  0  0  0  0  0  0  0
    1.5725   -1.7461    2.2830 C   0  0  1  0  0  0  0  0  0  0  0  0
    2.2932   -2.8702    2.9908 C   0  0  1  0  0  0  0  0  0  0  0  0
    1.9054   -4.3483    2.7863 C   0  0  0  0  0  0  0  0  0  0  0  0
    2.2440   -2.5789    4.5026 C   0  0  0  0  0  0  0  0  0  0  0  0
    1.9797   -1.0900    4.4951 C   0  0  0  0  0  0  0  0  0  0  0  0
    1.6709   -0.4125    5.4908 O   0  0  0  0  0  0  0  0  0  0  0  0
    2.1236   -0.5367    3.0806 C   0  0  1  0  0  0  0  0  0  0  0  0
    1.4426    0.8029    2.7705 C   0  0  0  0  0  0  0  0  0  0  0  0
    4.1943   -0.9917   -2.5443 H   0  0  0  0  0  0  0  0  0  0  0  0
    3.8149   -0.5841   -0.8712 H   0  0  0  0  0  0  0  0  0  0  0  0
    2.5651   -0.6626   -2.0652 H   0  0  0  0  0  0  0  0  0  0  0  0
    2.3325   -4.1865   -2.6269 H   0  0  0  0  0  0  0  0  0  0  0  0
    3.2599   -3.0258   -3.5747 H   0  0  0  0  0  0  0  0  0  0  0  0
    1.6738   -2.6332   -2.9178 H   0  0  0  0  0  0  0  0  0  0  0  0
    4.7841   -4.0996   -1.7235 H   0  0  0  0  0  0  0  0  0  0  0  0
    5.9153   -3.3668    0.7881 H   0  0  0  0  0  0  0  0  0  0  0  0
    6.6459   -3.3357   -0.7610 H   0  0  0  0  0  0  0  0  0  0  0  0
    5.9472   -0.9113   -1.0236 H   0  0  0  0  0  0  0  0  0  0  0  0
    6.0486    0.4605    0.9781 H   0  0  0  0  0  0  0  0  0  0  0  0
    6.1965   -2.0796    2.7059 H   0  0  0  0  0  0  0  0  0  0  0  0
    6.9755   -0.5661    3.1080 H   0  0  0  0  0  0  0  0  0  0  0  0
    4.7912   -1.0558    4.3600 H   0  0  0  0  0  0  0  0  0  0  0  0
    4.9596    0.5513    3.6894 H   0  0  0  0  0  0  0  0  0  0  0  0
    3.7109   -0.0317    1.7299 H   0  0  0  0  0  0  0  0  0  0  0  0
    4.3013   -2.7355    2.0029 H   0  0  0  0  0  0  0  0  0  0  0  0
    2.3878   -1.0997    0.5472 H   0  0  0  0  0  0  0  0  0  0  0  0
    1.5368   -3.3910   -0.4297 H   0  0  0  0  0  0  0  0  0  0  0  0
    3.1044   -5.1226   -0.6182 H   0  0  0  0  0  0  0  0  0  0  0  0
    3.8512   -4.5396    0.9105 H   0  0  0  0  0  0  0  0  0  0  0  0
    0.5067   -1.8501    2.1922 H   0  0  0  0  0  0  0  0  0  0  0  0
    1.0739   -4.6405    3.4312 H   0  0  0  0  0  0  0  0  0  0  0  0
    2.7428   -5.0066    3.0203 H   0  0  0  0  0  0  0  0  0  0  0  0
    1.5839   -4.5769    1.7738 H   0  0  0  0  0  0  0  0  0  0  0  0
    1.4330   -3.1004    5.0245 H   0  0  0  0  0  0  0  0  0  0  0  0
    3.1941   -2.7986    4.9930 H   0  0  0  0  0  0  0  0  0  0  0  0
    1.3452    0.9638    1.6944 H   0  0  0  0  0  0  0  0  0  0  0  0
    2.0018    1.6376    3.1797 H   0  0  0  0  0  0  0  0  0  0  0  0
    0.4379    0.8383    3.1843 H   0  0  0  0  0  0  0  0  0  0  0  0
  1  2  1  0
  1 24  1  0
  1 25  1  0
  1 26  1  0
  2 14  1  0
  2  3  1  0
  2  4  1  0
  3 27  1  0
  3 28  1  0
  3 29  1  0
  4 15  1  0
  4  5  1  0
  4 30  1  6
  5  6  1  0
  5 31  1  0
  5 32  1  0
  6  8  1  0
  6  7  1  0
  6 33  1  6
  7  8  1  0
  8  9  1  0
  8 34  1  6
  9 10  1  0
  9 35  1  0
  9 36  1  0
 10 11  1  0
 10 37  1  0
 10 38  1  0
 11 22  1  0
 11 12  1  0
 11 39  1  6
 12 17  1  0
 12 13  1  0
 12 40  1  6
 13 14  1  0
 13 16  1  0
 13 41  1  6
 14 15  1  0
 14 42  1  6
 15 43  1  0
 15 44  1  0
 16 22  1  0
 16 17  1  0
 16 45  1  6
 17 18  1  1
 17 19  1  0
 18 46  1  0
 18 47  1  0
 18 48  1  0
 19 20  1  0
 19 49  1  0
 19 50  1  0
 20 21  2  0
 20 22  1  0
 22 23  1  1
 23 51  1  0
 23 52  1  0
 23 53  1  0
M  END
>  <i_m_ct_stereo_status>  (269) 
1

>  <s_m_source_file>  (269) 
/var/tmp/pbs.5076255.sched01/tmpo609hgx5/90rinj4u0e.sdf

>  <i_m_source_file_index>  (269) 
23

>  <i_lp_mmshare_version>  (269) 
48012

>  <i_f3d_flags>  (269) 
0

>  <s_epik_input>  (269) 
W0NIMl0xW0NIMl1bQ0BASF0oTzIpW0NAQEhdMltDSDJdW0NAQEhdKFtDSDJdMylDKFtDSDNdKShbQ0gzXSlbQ0BASF0zW0NASF00W0NAQEhdNVtDQEBdKFtDSDNdKShDKD1PKVtDSDJdNilbQ0BASF0xW0NASF00W0NAXTU2W0NIM10=

>  <s_epik_cmdline>  (269) 
J2VwaWtfcHl0aG9uJywgJy1waHQnLCAnMi4wJywgJy1waCcsICc3LjAnLCAnLXRuJywgJzgnLCAnLW1hJywgJzIwMCcsICctaW1hZScsICc8aW5maWxlLm1hZT4nLCAnLW9tYWUnLCAnPG91dGZpbGUubWFlPic=

>  <r_lp_tautomer_probability>  (269) 
1

>  <r_epik_Ionization_Penalty>  (269) 
6.10141e-11

>  <r_epik_Ionization_Penalty_Charging>  (269) 
0

>  <r_epik_Ionization_Penalty_Neutral>  (269) 
6.10141e-11

>  <r_epik_State_Penalty>  (269) 
-0

>  <r_epik_Charging_Adjusted_Penalty>  (269) 
0

>  <i_epik_Tot_Q>  (269) 
0

>  <i_epik_Tot_abs_Q>  (269) 
0

>  <s_lp_Force_Field>  (269) 
OPLS3e

>  <r_lp_Energy>  (269) 
102.789

>  <b_lp_Chiralities_Consistent>  (269) 
1

>  <s_lp_Variant>  (269) 
70:0-1

>  <s_i_glide_gridfile>  (269) 
pfpi4k_grid

>  <i_i_glide_lignum>  (269) 
23

>  <i_i_glide_rotatable_bonds>  (269) 
0

>  <r_i_docking_score>  (269) 
-2.37372

>  <r_i_glide_ligand_efficiency>  (269) 
-0.103205

>  <r_i_glide_ligand_efficiency_sa>  (269) 
-0.293502

>  <r_i_glide_ligand_efficiency_ln>  (269) 
-0.573987

>  <r_i_glide_gscore>  (269) 
-2.37372

>  <r_i_glide_lipo>  (269) 
-0.340976

>  <r_i_glide_hbond>  (269) 
-0.0260518

>  <r_i_glide_metal>  (269) 
-0

>  <r_i_glide_rewards>  (269) 
-1.26503

>  <r_i_glide_evdw>  (269) 
-12.8559

>  <r_i_glide_ecoul>  (269) 
-0.658894

>  <r_i_glide_erotb>  (269) 
0

>  <r_i_glide_esite>  (269) 
-3.08107e-05

>  <r_i_glide_emodel>  (269) 
-16.0542

>  <r_i_glide_energy>  (269) 
-13.5148

>  <r_i_glide_einternal>  (269) 
0

>  <r_i_glide_intrahb_reward>  (269) 
-0

>  <i_i_glide_confnum>  (269) 
1

>  <i_i_glide_posenum>  (269) 
20

>  <r_i_glide_eff_state_penalty>  (269) 
0

>  <ligand_id>  (269) 
70

>  <original_smiles>  (269) 
CC1(C)C2CC3OC3CCC3C4C(C1C2)C1C4(C)CC(=O)C31C

>  <smiles>  (269) 
[H]C([H])([H])C12C(=O)C([H])([H])C3(C([H])([H])[H])C4([H])C([H])(C5([H])C([H])([H])C([H])(C([H])([H])C6([H])OC6([H])C([H])([H])C([H])([H])C41[H])C5(C([H])([H])[H])C([H])([H])[H])C23[H]

$$$$
71:0:0
     RDKit          3D

 69 74  0  0  1  0  0  0  0  0999 V2000
    5.9978   -1.7133    7.0413 C   0  0  0  0  0  0  0  0  0  0  0  0
    4.6561   -1.8281    6.3144 C   0  0  0  0  0  0  0  0  0  0  0  0
    4.3436   -3.2042    6.1574 O   0  0  0  0  0  0  0  0  0  0  0  0
    3.0816   -3.4678    5.5541 C   0  0  2  0  0  0  0  0  0  0  0  0
    2.0383   -3.5123    6.7068 C   0  0  0  0  0  0  0  0  0  0  0  0
    0.5346   -3.8507    6.4230 C   0  0  2  0  0  0  0  0  0  0  0  0
   -0.1828   -2.7052    5.6718 C   0  0  0  0  0  0  0  0  0  0  0  0
   -0.1056   -4.0105    7.8120 C   0  0  0  0  0  0  0  0  0  0  0  0
   -0.5613   -3.0820    8.4817 O   0  0  0  0  0  0  0  0  0  0  0  0
   -0.1519   -5.4634    8.2611 C   0  0  0  0  0  0  0  0  0  0  0  0
    0.3700   -6.2396    7.0480 C   0  0  0  0  0  0  0  0  0  0  0  0
    0.2021   -5.2778    5.8588 C   0  0  2  0  0  0  0  0  0  0  0  0
    0.7965   -5.8061    4.5181 C   0  0  0  0  0  0  0  0  0  0  0  0
    1.9072   -4.9523    3.9017 C   0  0  2  0  0  0  0  0  0  0  0  0
    2.2807   -5.3578    2.5729 O   0  0  0  0  0  0  0  0  0  0  0  0
    3.2124   -4.4467    2.0464 C   0  0  2  0  0  0  0  0  0  0  0  0
    3.2136   -4.2731    0.6881 O   0  0  0  0  0  0  0  0  0  0  0  0
    4.2964   -3.4467    0.2655 C   0  0  2  0  0  0  0  0  0  0  0  0
    3.7289   -2.4253   -0.7377 C   0  0  0  0  0  0  0  0  0  0  0  0
    5.2866   -4.4042   -0.4108 C   0  0  0  0  0  0  0  0  0  0  0  0
    5.4715   -5.6974    0.3911 C   0  0  0  0  0  0  0  0  0  0  0  0
    5.7671   -5.4266    1.8684 C   0  0  2  0  0  0  0  0  0  0  0  0
    6.3609   -6.6531    2.6438 C   0  0  1  0  0  0  0  0  0  0  0  0
    7.5789   -7.3262    1.9689 C   0  0  0  0  0  0  0  0  0  0  0  0
    6.7395   -6.2903    4.1048 C   0  0  0  0  0  0  0  0  0  0  0  0
    5.7441   -5.3607    4.8334 C   0  0  0  0  0  0  0  0  0  0  0  0
    4.4254   -5.2431    4.0569 C   0  0  1  0  0  0  0  0  0  0  0  0
    3.1420   -4.8308    4.8330 C   0  0  1  0  0  0  0  0  0  0  0  0
    4.6352   -4.6293    2.6507 C   0  0  2  0  0  0  0  0  0  0  0  0
    5.1085   -3.2993    2.6774 O   0  0  0  0  0  0  0  0  0  0  0  0
    4.9342   -2.6282    1.2900 O   0  0  0  0  0  0  0  0  0  0  0  0
    6.2695   -0.6684    7.1891 H   0  0  0  0  0  0  0  0  0  0  0  0
    6.7965   -2.1931    6.4770 H   0  0  0  0  0  0  0  0  0  0  0  0
    5.9504   -2.1884    8.0210 H   0  0  0  0  0  0  0  0  0  0  0  0
    3.8871   -1.3148    6.8919 H   0  0  0  0  0  0  0  0  0  0  0  0
    4.7129   -1.3431    5.3384 H   0  0  0  0  0  0  0  0  0  0  0  0
    2.8502   -2.6773    4.8354 H   0  0  0  0  0  0  0  0  0  0  0  0
    2.4294   -4.2015    7.4585 H   0  0  0  0  0  0  0  0  0  0  0  0
    2.0551   -2.5410    7.1998 H   0  0  0  0  0  0  0  0  0  0  0  0
    0.1220   -2.6050    4.6351 H   0  0  0  0  0  0  0  0  0  0  0  0
    0.0119   -1.7436    6.1445 H   0  0  0  0  0  0  0  0  0  0  0  0
   -1.2630   -2.8440    5.6743 H   0  0  0  0  0  0  0  0  0  0  0  0
    0.4508   -5.6293    9.1555 H   0  0  0  0  0  0  0  0  0  0  0  0
   -1.1864   -5.7256    8.4816 H   0  0  0  0  0  0  0  0  0  0  0  0
    1.4212   -6.4937    7.1974 H   0  0  0  0  0  0  0  0  0  0  0  0
   -0.1773   -7.1730    6.8999 H   0  0  0  0  0  0  0  0  0  0  0  0
   -0.8749   -5.2718    5.6749 H   0  0  0  0  0  0  0  0  0  0  0  0
    1.1343   -6.8379    4.6334 H   0  0  0  0  0  0  0  0  0  0  0  0
   -0.0137   -5.8586    3.7906 H   0  0  0  0  0  0  0  0  0  0  0  0
    1.4458   -3.9797    3.7630 H   0  0  0  0  0  0  0  0  0  0  0  0
    2.8540   -3.4579    2.3428 H   0  0  0  0  0  0  0  0  0  0  0  0
    3.0165   -1.7597   -0.2464 H   0  0  0  0  0  0  0  0  0  0  0  0
    3.2012   -2.9109   -1.5614 H   0  0  0  0  0  0  0  0  0  0  0  0
    4.5163   -1.8028   -1.1669 H   0  0  0  0  0  0  0  0  0  0  0  0
    4.9169   -4.6784   -1.4012 H   0  0  0  0  0  0  0  0  0  0  0  0
    6.2392   -3.9007   -0.5742 H   0  0  0  0  0  0  0  0  0  0  0  0
    4.6004   -6.3467    0.2934 H   0  0  0  0  0  0  0  0  0  0  0  0
    6.2976   -6.2330   -0.0594 H   0  0  0  0  0  0  0  0  0  0  0  0
    6.6219   -4.7506    1.8421 H   0  0  0  0  0  0  0  0  0  0  0  0
    5.5888   -7.4227    2.6827 H   0  0  0  0  0  0  0  0  0  0  0  0
    8.3801   -6.6114    1.7737 H   0  0  0  0  0  0  0  0  0  0  0  0
    7.3196   -7.8148    1.0300 H   0  0  0  0  0  0  0  0  0  0  0  0
    7.9945   -8.1061    2.6093 H   0  0  0  0  0  0  0  0  0  0  0  0
    6.8311   -7.2181    4.6722 H   0  0  0  0  0  0  0  0  0  0  0  0
    7.7336   -5.8359    4.1325 H   0  0  0  0  0  0  0  0  0  0  0  0
    5.5630   -5.7337    5.8400 H   0  0  0  0  0  0  0  0  0  0  0  0
    6.1998   -4.3773    4.9397 H   0  0  0  0  0  0  0  0  0  0  0  0
    4.1590   -6.2837    3.8578 H   0  0  0  0  0  0  0  0  0  0  0  0
    3.0631   -5.5923    5.6110 H   0  0  0  0  0  0  0  0  0  0  0  0
  1  2  1  0
  1 32  1  0
  1 33  1  0
  1 34  1  0
  2  3  1  0
  2 35  1  0
  2 36  1  0
  3  4  1  0
  4 28  1  0
  4  5  1  0
  4 37  1  6
  5  6  1  0
  5 38  1  0
  5 39  1  0
  6 12  1  0
  6  7  1  6
  6  8  1  0
  7 40  1  0
  7 41  1  0
  7 42  1  0
  8  9  2  0
  8 10  1  0
 10 11  1  0
 10 43  1  0
 10 44  1  0
 11 12  1  0
 11 45  1  0
 11 46  1  0
 12 13  1  0
 12 47  1  6
 13 14  1  0
 13 48  1  0
 13 49  1  0
 14 28  1  0
 14 15  1  0
 14 50  1  6
 15 16  1  0
 16 29  1  0
 16 17  1  0
 16 51  1  1
 17 18  1  0
 18 31  1  0
 18 19  1  6
 18 20  1  0
 19 52  1  0
 19 53  1  0
 19 54  1  0
 20 21  1  0
 20 55  1  0
 20 56  1  0
 21 22  1  0
 21 57  1  0
 21 58  1  0
 22 29  1  0
 22 23  1  0
 22 59  1  6
 23 24  1  0
 23 25  1  0
 23 60  1  1
 24 61  1  0
 24 62  1  0
 24 63  1  0
 25 26  1  0
 25 64  1  0
 25 65  1  0
 26 27  1  0
 26 66  1  0
 26 67  1  0
 27 28  1  0
 27 29  1  0
 27 68  1  6
 28 69  1  1
 29 30  1  1
 30 31  1  0
M  END
>  <i_m_ct_stereo_status>  (270) 
1

>  <s_m_source_file>  (270) 
/var/tmp/pbs.5076255.sched01/tmpo609hgx5/90rinj4u0e.sdf

>  <i_m_source_file_index>  (270) 
24

>  <i_lp_mmshare_version>  (270) 
48012

>  <i_f3d_flags>  (270) 
0

>  <s_epik_input>  (270) 
Tz1DMVtDSDJdW0NIMl1bQ0BIXShbQ0gyXTIpW0NAXTEoW0NIM10pW0NIMl1bQ0BASF0oT1tDSDJdW0NIM10pW0NAQEhdKFtDQEhdMk9bQ0BIXTNbQ0BdNDU2KVtDQEBIXTVbQ0gyXVtDSDJdW0NASF0oW0NIM10pW0NASF00W0NIMl1bQ0gyXVtDQF0oTzMpKFtDSDNdKU9PNg==

>  <s_epik_cmdline>  (270) 
J2VwaWtfcHl0aG9uJywgJy1waHQnLCAnMi4wJywgJy1waCcsICc3LjAnLCAnLXRuJywgJzgnLCAnLW1hJywgJzIwMCcsICctaW1hZScsICc8aW5maWxlLm1hZT4nLCAnLW9tYWUnLCAnPG91dGZpbGUubWFlPic=

>  <r_lp_tautomer_probability>  (270) 
1

>  <r_epik_Ionization_Penalty>  (270) 
1.4187e-11

>  <r_epik_Ionization_Penalty_Charging>  (270) 
0

>  <r_epik_Ionization_Penalty_Neutral>  (270) 
1.4187e-11

>  <r_epik_State_Penalty>  (270) 
-0

>  <r_epik_Charging_Adjusted_Penalty>  (270) 
0

>  <i_epik_Tot_Q>  (270) 
0

>  <i_epik_Tot_abs_Q>  (270) 
0

>  <s_epik_Chemistry_Notes>  (270) 
This compound contains an acetal/aminal-like group ( X-CH(R)-Y where X, Y are N, S, or O) that may be acid/base labile, releasing an aldehyde.

>  <s_lp_Force_Field>  (270) 
OPLS3e

>  <r_lp_Energy>  (270) 
89.3297

>  <b_lp_Chiralities_Consistent>  (270) 
1

>  <s_lp_Variant>  (270) 
71:0-1

>  <s_i_glide_gridfile>  (270) 
pfpi4k_grid

>  <i_i_glide_lignum>  (270) 
24

>  <i_i_glide_rotatable_bonds>  (270) 
2

>  <r_i_docking_score>  (270) 
-2.09186

>  <r_i_glide_ligand_efficiency>  (270) 
-0.0674795

>  <r_i_glide_ligand_efficiency_sa>  (270) 
-0.211979

>  <r_i_glide_ligand_efficiency_ln>  (270) 
-0.471779

>  <r_i_glide_gscore>  (270) 
-2.09186

>  <r_i_glide_lipo>  (270) 
-0.268335

>  <r_i_glide_hbond>  (270) 
-0.147536

>  <r_i_glide_metal>  (270) 
-0

>  <r_i_glide_rewards>  (270) 
-0.48236

>  <r_i_glide_evdw>  (270) 
-16.5795

>  <r_i_glide_ecoul>  (270) 
-2.99992

>  <r_i_glide_erotb>  (270) 
0.105465

>  <r_i_glide_esite>  (270) 
-0.0201364

>  <r_i_glide_emodel>  (270) 
-22.4242

>  <r_i_glide_energy>  (270) 
-19.5794

>  <r_i_glide_einternal>  (270) 
0.0270534

>  <r_i_glide_intrahb_reward>  (270) 
-0

>  <i_i_glide_confnum>  (270) 
3

>  <i_i_glide_posenum>  (270) 
37

>  <r_i_glide_eff_state_penalty>  (270) 
0

>  <ligand_id>  (270) 
71

>  <original_smiles>  (270) 
CCOC1CC2(C)C(=O)CCC2CC2OC3OC4(C)CCC5C(C)CCC(C12)C35OO4

>  <smiles>  (270) 
[H]C([H])([H])C([H])([H])OC1([H])C([H])([H])C2(C([H])([H])[H])C(=O)C([H])([H])C([H])([H])C2([H])C([H])([H])C2([H])OC3([H])OC4(C([H])([H])[H])OOC35C([H])(C([H])([H])C4([H])[H])C([H])(C([H])([H])[H])C([H])([H])C([H])([H])C5([H])C21[H]

$$$$
71:0:1
     RDKit          3D

 69 74  0  0  1  0  0  0  0  0999 V2000
    3.4051   -5.8291    7.5584 C   0  0  0  0  0  0  0  0  0  0  0  0
    4.2773   -5.1618    6.4852 C   0  0  0  0  0  0  0  0  0  0  0  0
    4.3250   -5.8811    5.2510 O   0  0  0  0  0  0  0  0  0  0  0  0
    3.1352   -5.9013    4.4704 C   0  0  2  0  0  0  0  0  0  0  0  0
    2.2793   -7.1247    4.9285 C   0  0  0  0  0  0  0  0  0  0  0  0
    0.8869   -7.4082    4.3007 C   0  0  2  0  0  0  0  0  0  0  0  0
   -0.1613   -6.3179    4.6362 C   0  0  0  0  0  0  0  0  0  0  0  0
    0.4378   -8.7288    4.9510 C   0  0  0  0  0  0  0  0  0  0  0  0
   -0.1229   -8.7907    6.0438 O   0  0  0  0  0  0  0  0  0  0  0  0
    0.8444   -9.9378    4.1314 C   0  0  0  0  0  0  0  0  0  0  0  0
    1.4272   -9.3110    2.8602 C   0  0  0  0  0  0  0  0  0  0  0  0
    0.8736   -7.8721    2.8108 C   0  0  2  0  0  0  0  0  0  0  0  0
    1.4682   -6.9805    1.6817 C   0  0  0  0  0  0  0  0  0  0  0  0
    2.2523   -5.7353    2.1199 C   0  0  2  0  0  0  0  0  0  0  0  0
    2.5881   -4.8350    1.0456 O   0  0  0  0  0  0  0  0  0  0  0  0
    3.1827   -3.6809    1.5593 C   0  0  2  0  0  0  0  0  0  0  0  0
    3.0113   -2.5094    0.8577 O   0  0  0  0  0  0  0  0  0  0  0  0
    3.7821   -1.4517    1.3854 C   0  0  2  0  0  0  0  0  0  0  0  0
    2.8663   -0.2051    1.4730 C   0  0  0  0  0  0  0  0  0  0  0  0
    4.9209   -1.2335    0.3736 C   0  0  0  0  0  0  0  0  0  0  0  0
    5.5284   -2.5716   -0.0982 C   0  0  0  0  0  0  0  0  0  0  0  0
    5.8878   -3.4918    1.0699 C   0  0  2  0  0  0  0  0  0  0  0  0
    6.8573   -4.6708    0.6936 C   0  0  1  0  0  0  0  0  0  0  0  0
    8.1398   -4.2388   -0.0589 C   0  0  0  0  0  0  0  0  0  0  0  0
    7.2716   -5.5030    1.9388 C   0  0  0  0  0  0  0  0  0  0  0  0
    6.1460   -5.7733    2.9563 C   0  0  0  0  0  0  0  0  0  0  0  0
    4.7647   -5.4112    2.3806 C   0  0  1  0  0  0  0  0  0  0  0  0
    3.4993   -6.0859    2.9827 C   0  0  1  0  0  0  0  0  0  0  0  0
    4.6681   -3.9098    2.0073 C   0  0  2  0  0  0  0  0  0  0  0  0
    4.7691   -3.0474    3.1110 O   0  0  0  0  0  0  0  0  0  0  0  0
    4.2915   -1.6098    2.7471 O   0  0  0  0  0  0  0  0  0  0  0  0
    3.5065   -5.3728    8.5404 H   0  0  0  0  0  0  0  0  0  0  0  0
    3.6638   -6.8882    7.6371 H   0  0  0  0  0  0  0  0  0  0  0  0
    2.3501   -5.7365    7.2955 H   0  0  0  0  0  0  0  0  0  0  0  0
    3.9443   -4.1415    6.3122 H   0  0  0  0  0  0  0  0  0  0  0  0
    5.2983   -5.0860    6.8597 H   0  0  0  0  0  0  0  0  0  0  0  0
    2.6298   -4.9474    4.5897 H   0  0  0  0  0  0  0  0  0  0  0  0
    2.9262   -8.0027    4.8861 H   0  0  0  0  0  0  0  0  0  0  0  0
    2.0120   -7.0409    5.9767 H   0  0  0  0  0  0  0  0  0  0  0  0
    0.0092   -5.3705    4.1296 H   0  0  0  0  0  0  0  0  0  0  0  0
   -0.1762   -6.0872    5.7073 H   0  0  0  0  0  0  0  0  0  0  0  0
   -1.1759   -6.6403    4.3853 H   0  0  0  0  0  0  0  0  0  0  0  0
    1.5599  -10.5660    4.6692 H   0  0  0  0  0  0  0  0  0  0  0  0
   -0.0531  -10.5183    3.9214 H   0  0  0  0  0  0  0  0  0  0  0  0
    2.5185   -9.3083    2.9179 H   0  0  0  0  0  0  0  0  0  0  0  0
    1.1377   -9.8722    1.9726 H   0  0  0  0  0  0  0  0  0  0  0  0
   -0.1861   -7.9836    2.5480 H   0  0  0  0  0  0  0  0  0  0  0  0
    2.0776   -7.5874    1.0054 H   0  0  0  0  0  0  0  0  0  0  0  0
    0.6290   -6.6341    1.0733 H   0  0  0  0  0  0  0  0  0  0  0  0
    1.5401   -5.1800    2.7207 H   0  0  0  0  0  0  0  0  0  0  0  0
    2.6046   -3.4173    2.4525 H   0  0  0  0  0  0  0  0  0  0  0  0
    2.0547   -0.3776    2.1822 H   0  0  0  0  0  0  0  0  0  0  0  0
    2.3999    0.0273    0.5163 H   0  0  0  0  0  0  0  0  0  0  0  0
    3.4009    0.6805    1.8069 H   0  0  0  0  0  0  0  0  0  0  0  0
    4.5378   -0.7200   -0.5088 H   0  0  0  0  0  0  0  0  0  0  0  0
    5.6861   -0.5879    0.7987 H   0  0  0  0  0  0  0  0  0  0  0  0
    4.8530   -3.0871   -0.7828 H   0  0  0  0  0  0  0  0  0  0  0  0
    6.4129   -2.3192   -0.6838 H   0  0  0  0  0  0  0  0  0  0  0  0
    6.5313   -2.8778    1.7054 H   0  0  0  0  0  0  0  0  0  0  0  0
    6.3214   -5.3308    0.0125 H   0  0  0  0  0  0  0  0  0  0  0  0
    8.7020   -3.4806    0.4820 H   0  0  0  0  0  0  0  0  0  0  0  0
    7.9257   -3.8439   -1.0513 H   0  0  0  0  0  0  0  0  0  0  0  0
    8.8067   -5.0897   -0.2108 H   0  0  0  0  0  0  0  0  0  0  0  0
    7.6532   -6.4642    1.5993 H   0  0  0  0  0  0  0  0  0  0  0  0
    8.1142   -5.0544    2.4607 H   0  0  0  0  0  0  0  0  0  0  0  0
    6.1623   -6.8169    3.2759 H   0  0  0  0  0  0  0  0  0  0  0  0
    6.3286   -5.1773    3.8485 H   0  0  0  0  0  0  0  0  0  0  0  0
    4.7755   -5.9224    1.4155 H   0  0  0  0  0  0  0  0  0  0  0  0
    3.7141   -7.1444    2.8495 H   0  0  0  0  0  0  0  0  0  0  0  0
  1  2  1  0
  1 32  1  0
  1 33  1  0
  1 34  1  0
  2  3  1  0
  2 35  1  0
  2 36  1  0
  3  4  1  0
  4 28  1  0
  4  5  1  0
  4 37  1  6
  5  6  1  0
  5 38  1  0
  5 39  1  0
  6 12  1  0
  6  7  1  6
  6  8  1  0
  7 40  1  0
  7 41  1  0
  7 42  1  0
  8  9  2  0
  8 10  1  0
 10 11  1  0
 10 43  1  0
 10 44  1  0
 11 12  1  0
 11 45  1  0
 11 46  1  0
 12 13  1  0
 12 47  1  6
 13 14  1  0
 13 48  1  0
 13 49  1  0
 14 28  1  0
 14 15  1  0
 14 50  1  1
 15 16  1  0
 16 29  1  0
 16 17  1  0
 16 51  1  1
 17 18  1  0
 18 31  1  0
 18 19  1  1
 18 20  1  0
 19 52  1  0
 19 53  1  0
 19 54  1  0
 20 21  1  0
 20 55  1  0
 20 56  1  0
 21 22  1  0
 21 57  1  0
 21 58  1  0
 22 29  1  0
 22 23  1  0
 22 59  1  1
 23 24  1  0
 23 25  1  0
 23 60  1  6
 24 61  1  0
 24 62  1  0
 24 63  1  0
 25 26  1  0
 25 64  1  0
 25 65  1  0
 26 27  1  0
 26 66  1  0
 26 67  1  0
 27 28  1  0
 27 29  1  0
 27 68  1  6
 28 69  1  1
 29 30  1  1
 30 31  1  0
M  END
>  <i_m_ct_stereo_status>  (271) 
1

>  <s_m_source_file>  (271) 
/var/tmp/pbs.5076255.sched01/tmpo609hgx5/90rinj4u0e.sdf

>  <i_m_source_file_index>  (271) 
24

>  <i_lp_mmshare_version>  (271) 
48012

>  <i_f3d_flags>  (271) 
0

>  <s_epik_input>  (271) 
Tz1DMVtDSDJdW0NIMl1bQ0BIXShbQ0gyXTIpW0NAXTEoW0NIM10pW0NIMl1bQ0BASF0oT1tDSDJdW0NIM10pW0NAQEhdKFtDQEhdMk9bQ0BIXTNbQ0BdNDU2KVtDQEBIXTVbQ0gyXVtDSDJdW0NASF0oW0NIM10pW0NASF00W0NIMl1bQ0gyXVtDQF0oTzMpKFtDSDNdKU9PNg==

>  <s_epik_cmdline>  (271) 
J2VwaWtfcHl0aG9uJywgJy1waHQnLCAnMi4wJywgJy1waCcsICc3LjAnLCAnLXRuJywgJzgnLCAnLW1hJywgJzIwMCcsICctaW1hZScsICc8aW5maWxlLm1hZT4nLCAnLW9tYWUnLCAnPG91dGZpbGUubWFlPic=

>  <r_lp_tautomer_probability>  (271) 
1

>  <r_epik_Ionization_Penalty>  (271) 
1.4187e-11

>  <r_epik_Ionization_Penalty_Charging>  (271) 
0

>  <r_epik_Ionization_Penalty_Neutral>  (271) 
1.4187e-11

>  <r_epik_State_Penalty>  (271) 
-0

>  <r_epik_Charging_Adjusted_Penalty>  (271) 
0

>  <i_epik_Tot_Q>  (271) 
0

>  <i_epik_Tot_abs_Q>  (271) 
0

>  <s_epik_Chemistry_Notes>  (271) 
This compound contains an acetal/aminal-like group ( X-CH(R)-Y where X, Y are N, S, or O) that may be acid/base labile, releasing an aldehyde.

>  <s_lp_Force_Field>  (271) 
OPLS3e

>  <r_lp_Energy>  (271) 
89.3297

>  <b_lp_Chiralities_Consistent>  (271) 
1

>  <s_lp_Variant>  (271) 
71:0-1

>  <s_i_glide_gridfile>  (271) 
pfpi4k_grid

>  <i_i_glide_lignum>  (271) 
24

>  <i_i_glide_rotatable_bonds>  (271) 
2

>  <r_i_docking_score>  (271) 
-1.98498

>  <r_i_glide_ligand_efficiency>  (271) 
-0.0640315

>  <r_i_glide_ligand_efficiency_sa>  (271) 
-0.201147

>  <r_i_glide_ligand_efficiency_ln>  (271) 
-0.447673

>  <r_i_glide_gscore>  (271) 
-1.98498

>  <r_i_glide_lipo>  (271) 
-0.482971

>  <r_i_glide_hbond>  (271) 
0

>  <r_i_glide_metal>  (271) 
-0

>  <r_i_glide_rewards>  (271) 
-0.448287

>  <r_i_glide_evdw>  (271) 
-22.0563

>  <r_i_glide_ecoul>  (271) 
-0.0075984

>  <r_i_glide_erotb>  (271) 
0.105465

>  <r_i_glide_esite>  (271) 
-0.0552267

>  <r_i_glide_emodel>  (271) 
-23.4369

>  <r_i_glide_energy>  (271) 
-22.0639

>  <r_i_glide_einternal>  (271) 
0.704112

>  <r_i_glide_intrahb_reward>  (271) 
-0

>  <i_i_glide_confnum>  (271) 
3

>  <i_i_glide_posenum>  (271) 
21

>  <r_i_glide_eff_state_penalty>  (271) 
0

>  <ligand_id>  (271) 
71

>  <original_smiles>  (271) 
CCOC1CC2(C)C(=O)CCC2CC2OC3OC4(C)CCC5C(C)CCC(C12)C35OO4

>  <smiles>  (271) 
[H]C([H])([H])C([H])([H])OC1([H])C([H])([H])C2(C([H])([H])[H])C(=O)C([H])([H])C([H])([H])C2([H])C([H])([H])C2([H])OC3([H])OC4(C([H])([H])[H])OOC35C([H])(C([H])([H])C4([H])[H])C([H])(C([H])([H])[H])C([H])([H])C([H])([H])C5([H])C21[H]

$$$$
71:0:2
     RDKit          3D

 69 74  0  0  1  0  0  0  0  0999 V2000
    5.4962   -5.2203    7.3539 C   0  0  0  0  0  0  0  0  0  0  0  0
    4.2188   -5.2801    6.5150 C   0  0  0  0  0  0  0  0  0  0  0  0
    4.4217   -6.1960    5.4494 O   0  0  0  0  0  0  0  0  0  0  0  0
    3.3157   -6.3463    4.5654 C   0  0  2  0  0  0  0  0  0  0  0  0
    2.3849   -7.4322    5.1778 C   0  0  0  0  0  0  0  0  0  0  0  0
    1.0906   -7.9025    4.4293 C   0  0  2  0  0  0  0  0  0  0  0  0
   -0.0032   -6.8082    4.4262 C   0  0  0  0  0  0  0  0  0  0  0  0
    0.5889   -9.1083    5.2421 C   0  0  0  0  0  0  0  0  0  0  0  0
   -0.1051   -9.0177    6.2551 O   0  0  0  0  0  0  0  0  0  0  0  0
    1.0657  -10.4328    4.6612 C   0  0  0  0  0  0  0  0  0  0  0  0
    1.7948  -10.0257    3.3741 C   0  0  0  0  0  0  0  0  0  0  0  0
    1.2673   -8.6172    3.0432 C   0  0  2  0  0  0  0  0  0  0  0  0
    1.9765   -7.9330    1.8348 C   0  0  0  0  0  0  0  0  0  0  0  0
    2.7003   -6.6198    2.1438 C   0  0  2  0  0  0  0  0  0  0  0  0
    3.1600   -5.9212    0.9734 O   0  0  0  0  0  0  0  0  0  0  0  0
    3.6978   -4.6765    1.3476 C   0  0  2  0  0  0  0  0  0  0  0  0
    3.6022   -3.6583    0.4372 O   0  0  0  0  0  0  0  0  0  0  0  0
    4.3114   -2.4977    0.8684 C   0  0  2  0  0  0  0  0  0  0  0  0
    3.3951   -1.2843    0.6295 C   0  0  0  0  0  0  0  0  0  0  0  0
    5.5559   -2.4371   -0.0265 C   0  0  0  0  0  0  0  0  0  0  0  0
    6.2083   -3.8128   -0.2012 C   0  0  0  0  0  0  0  0  0  0  0  0
    6.4247   -4.5172    1.1437 C   0  0  2  0  0  0  0  0  0  0  0  0
    7.4294   -5.7162    1.0950 C   0  0  1  0  0  0  0  0  0  0  0  0
    8.7815   -5.3899    0.4331 C   0  0  0  0  0  0  0  0  0  0  0  0
    7.6967   -6.3210    2.4990 C   0  0  0  0  0  0  0  0  0  0  0  0
    6.4567   -6.4359    3.4122 C   0  0  0  0  0  0  0  0  0  0  0  0
    5.1624   -6.2162    2.6179 C   0  0  1  0  0  0  0  0  0  0  0  0
    3.8357   -6.8027    3.1850 C   0  0  1  0  0  0  0  0  0  0  0  0
    5.1069   -4.8015    1.9904 C   0  0  2  0  0  0  0  0  0  0  0  0
    5.0806   -3.7592    2.9435 O   0  0  0  0  0  0  0  0  0  0  0  0
    4.6445   -2.4257    2.2859 O   0  0  0  0  0  0  0  0  0  0  0  0
    5.3774   -4.5310    8.1894 H   0  0  0  0  0  0  0  0  0  0  0  0
    6.3423   -4.8829    6.7556 H   0  0  0  0  0  0  0  0  0  0  0  0
    5.7408   -6.2010    7.7619 H   0  0  0  0  0  0  0  0  0  0  0  0
    3.3852   -5.5913    7.1444 H   0  0  0  0  0  0  0  0  0  0  0  0
    3.9854   -4.2893    6.1214 H   0  0  0  0  0  0  0  0  0  0  0  0
    2.7988   -5.3875    4.4693 H   0  0  0  0  0  0  0  0  0  0  0  0
    3.0112   -8.3002    5.3963 H   0  0  0  0  0  0  0  0  0  0  0  0
    2.0669   -7.0787    6.1584 H   0  0  0  0  0  0  0  0  0  0  0  0
    0.2237   -5.9649    3.7832 H   0  0  0  0  0  0  0  0  0  0  0  0
   -0.1533   -6.4010    5.4247 H   0  0  0  0  0  0  0  0  0  0  0  0
   -0.9635   -7.2074    4.1025 H   0  0  0  0  0  0  0  0  0  0  0  0
    1.7103  -10.9678    5.3607 H   0  0  0  0  0  0  0  0  0  0  0  0
    0.2027  -11.0634    4.4479 H   0  0  0  0  0  0  0  0  0  0  0  0
    2.8725  -10.0064    3.5523 H   0  0  0  0  0  0  0  0  0  0  0  0
    1.6063  -10.7318    2.5617 H   0  0  0  0  0  0  0  0  0  0  0  0
    0.2516   -8.7903    2.6762 H   0  0  0  0  0  0  0  0  0  0  0  0
    2.6580   -8.6351    1.3501 H   0  0  0  0  0  0  0  0  0  0  0  0
    1.2172   -7.7184    1.0811 H   0  0  0  0  0  0  0  0  0  0  0  0
    1.9235   -5.9785    2.5487 H   0  0  0  0  0  0  0  0  0  0  0  0
    3.0222   -4.2854    2.1120 H   0  0  0  0  0  0  0  0  0  0  0  0
    2.5050   -1.3470    1.2573 H   0  0  0  0  0  0  0  0  0  0  0  0
    3.0535   -1.2278   -0.4068 H   0  0  0  0  0  0  0  0  0  0  0  0
    3.8997   -0.3452    0.8661 H   0  0  0  0  0  0  0  0  0  0  0  0
    5.2758   -2.0749   -1.0167 H   0  0  0  0  0  0  0  0  0  0  0  0
    6.2631   -1.7110    0.3735 H   0  0  0  0  0  0  0  0  0  0  0  0
    5.6138   -4.4472   -0.8596 H   0  0  0  0  0  0  0  0  0  0  0  0
    7.1494   -3.6470   -0.7183 H   0  0  0  0  0  0  0  0  0  0  0  0
    6.9829   -3.7846    1.7254 H   0  0  0  0  0  0  0  0  0  0  0  0
    6.9804   -6.4986    0.4855 H   0  0  0  0  0  0  0  0  0  0  0  0
    9.2716   -4.5491    0.9233 H   0  0  0  0  0  0  0  0  0  0  0  0
    8.6998   -5.1661   -0.6283 H   0  0  0  0  0  0  0  0  0  0  0  0
    9.4373   -6.2515    0.5083 H   0  0  0  0  0  0  0  0  0  0  0  0
    8.1282   -7.3150    2.3614 H   0  0  0  0  0  0  0  0  0  0  0  0
    8.4659   -5.7415    3.0186 H   0  0  0  0  0  0  0  0  0  0  0  0
    6.4458   -7.4120    3.8951 H   0  0  0  0  0  0  0  0  0  0  0  0
    6.5379   -5.6914    4.2037 H   0  0  0  0  0  0  0  0  0  0  0  0
    5.2719   -6.8855    1.7613 H   0  0  0  0  0  0  0  0  0  0  0  0
    4.0505   -7.8691    3.2771 H   0  0  0  0  0  0  0  0  0  0  0  0
  1  2  1  0
  1 32  1  0
  1 33  1  0
  1 34  1  0
  2  3  1  0
  2 35  1  0
  2 36  1  0
  3  4  1  0
  4 28  1  0
  4  5  1  0
  4 37  1  6
  5  6  1  0
  5 38  1  0
  5 39  1  0
  6 12  1  0
  6  7  1  6
  6  8  1  0
  7 40  1  0
  7 41  1  0
  7 42  1  0
  8  9  2  0
  8 10  1  0
 10 11  1  0
 10 43  1  0
 10 44  1  0
 11 12  1  0
 11 45  1  0
 11 46  1  0
 12 13  1  0
 12 47  1  6
 13 14  1  0
 13 48  1  0
 13 49  1  0
 14 28  1  0
 14 15  1  0
 14 50  1  1
 15 16  1  0
 16 29  1  0
 16 17  1  0
 16 51  1  1
 17 18  1  0
 18 31  1  0
 18 19  1  6
 18 20  1  0
 19 52  1  0
 19 53  1  0
 19 54  1  0
 20 21  1  0
 20 55  1  0
 20 56  1  0
 21 22  1  0
 21 57  1  0
 21 58  1  0
 22 29  1  0
 22 23  1  0
 22 59  1  1
 23 24  1  0
 23 25  1  0
 23 60  1  6
 24 61  1  0
 24 62  1  0
 24 63  1  0
 25 26  1  0
 25 64  1  0
 25 65  1  0
 26 27  1  0
 26 66  1  0
 26 67  1  0
 27 28  1  0
 27 29  1  0
 27 68  1  6
 28 69  1  1
 29 30  1  1
 30 31  1  0
M  END
>  <i_m_ct_stereo_status>  (272) 
1

>  <s_m_source_file>  (272) 
/var/tmp/pbs.5076255.sched01/tmpo609hgx5/90rinj4u0e.sdf

>  <i_m_source_file_index>  (272) 
24

>  <i_lp_mmshare_version>  (272) 
48012

>  <i_f3d_flags>  (272) 
0

>  <s_epik_input>  (272) 
Tz1DMVtDSDJdW0NIMl1bQ0BIXShbQ0gyXTIpW0NAXTEoW0NIM10pW0NIMl1bQ0BASF0oT1tDSDJdW0NIM10pW0NAQEhdKFtDQEhdMk9bQ0BIXTNbQ0BdNDU2KVtDQEBIXTVbQ0gyXVtDSDJdW0NASF0oW0NIM10pW0NASF00W0NIMl1bQ0gyXVtDQF0oTzMpKFtDSDNdKU9PNg==

>  <s_epik_cmdline>  (272) 
J2VwaWtfcHl0aG9uJywgJy1waHQnLCAnMi4wJywgJy1waCcsICc3LjAnLCAnLXRuJywgJzgnLCAnLW1hJywgJzIwMCcsICctaW1hZScsICc8aW5maWxlLm1hZT4nLCAnLW9tYWUnLCAnPG91dGZpbGUubWFlPic=

>  <r_lp_tautomer_probability>  (272) 
1

>  <r_epik_Ionization_Penalty>  (272) 
1.4187e-11

>  <r_epik_Ionization_Penalty_Charging>  (272) 
0

>  <r_epik_Ionization_Penalty_Neutral>  (272) 
1.4187e-11

>  <r_epik_State_Penalty>  (272) 
-0

>  <r_epik_Charging_Adjusted_Penalty>  (272) 
0

>  <i_epik_Tot_Q>  (272) 
0

>  <i_epik_Tot_abs_Q>  (272) 
0

>  <s_epik_Chemistry_Notes>  (272) 
This compound contains an acetal/aminal-like group ( X-CH(R)-Y where X, Y are N, S, or O) that may be acid/base labile, releasing an aldehyde.

>  <s_lp_Force_Field>  (272) 
OPLS3e

>  <r_lp_Energy>  (272) 
89.3297

>  <b_lp_Chiralities_Consistent>  (272) 
1

>  <s_lp_Variant>  (272) 
71:0-1

>  <s_i_glide_gridfile>  (272) 
pfpi4k_grid

>  <i_i_glide_lignum>  (272) 
24

>  <i_i_glide_rotatable_bonds>  (272) 
2

>  <r_i_docking_score>  (272) 
-1.86103

>  <r_i_glide_ligand_efficiency>  (272) 
-0.0600333

>  <r_i_glide_ligand_efficiency_sa>  (272) 
-0.188587

>  <r_i_glide_ligand_efficiency_ln>  (272) 
-0.41972

>  <r_i_glide_gscore>  (272) 
-1.86103

>  <r_i_glide_lipo>  (272) 
-0.307

>  <r_i_glide_hbond>  (272) 
0

>  <r_i_glide_metal>  (272) 
-0

>  <r_i_glide_rewards>  (272) 
-0.461792

>  <r_i_glide_evdw>  (272) 
-21.9123

>  <r_i_glide_ecoul>  (272) 
-0.358525

>  <r_i_glide_erotb>  (272) 
0.105465

>  <r_i_glide_esite>  (272) 
-0.0483112

>  <r_i_glide_emodel>  (272) 
-24.7874

>  <r_i_glide_energy>  (272) 
-22.2708

>  <r_i_glide_einternal>  (272) 
0.0016967

>  <r_i_glide_intrahb_reward>  (272) 
-0

>  <i_i_glide_confnum>  (272) 
3

>  <i_i_glide_posenum>  (272) 
31

>  <r_i_glide_eff_state_penalty>  (272) 
0

>  <ligand_id>  (272) 
71

>  <original_smiles>  (272) 
CCOC1CC2(C)C(=O)CCC2CC2OC3OC4(C)CCC5C(C)CCC(C12)C35OO4

>  <smiles>  (272) 
[H]C([H])([H])C([H])([H])OC1([H])C([H])([H])C2(C([H])([H])[H])C(=O)C([H])([H])C([H])([H])C2([H])C([H])([H])C2([H])OC3([H])OC4(C([H])([H])[H])OOC35C([H])(C([H])([H])C4([H])[H])C([H])(C([H])([H])[H])C([H])([H])C([H])([H])C5([H])C21[H]

$$$$
72:0:0
     RDKit          3D

 26 28  0  0  1  0  0  0  0  0999 V2000
    1.0327   -3.0024    3.8121 C   0  0  0  0  0  0  0  0  0  0  0  0
    1.8192   -2.2377    2.8573 N   0  0  0  0  0  0  0  0  0  0  0  0
    1.7383   -0.8878    2.9026 N   0  0  0  0  0  0  0  0  0  0  0  0
    2.5479   -0.4572    1.9507 C   0  0  0  0  0  0  0  0  0  0  0  0
    3.1858   -1.5243    1.2633 C   0  0  0  0  0  0  0  0  0  0  0  0
    2.6988   -2.6522    1.8612 C   0  0  0  0  0  0  0  0  0  0  0  0
    3.0253   -4.0411    1.5397 C   0  0  0  0  0  0  0  0  0  0  0  0
    4.1217   -4.4690    0.8219 C   0  0  0  0  0  0  0  0  0  0  0  0
    4.1819   -6.2000    0.6483 S   0  0  0  0  0  0  0  0  0  0  0  0
    2.6820   -6.3009    1.5446 C   0  0  0  0  0  0  0  0  0  0  0  0
    2.0914   -7.5365    1.7817 N   0  0  0  0  0  0  0  0  0  0  0  0
    0.8180   -7.7869    2.2760 C   0  0  0  0  0  0  0  0  0  0  0  0
   -0.1852   -6.9029    2.3546 N   0  0  0  0  0  0  0  0  0  0  0  0
   -1.3317   -7.4742    2.9057 C   0  0  0  0  0  0  0  0  0  0  0  0
   -1.1884   -8.7926    3.2453 C   0  0  0  0  0  0  0  0  0  0  0  0
    0.4068   -9.3821    2.8780 S   0  0  0  0  0  0  0  0  0  0  0  0
    2.2159   -5.1123    1.9410 N   0  0  0  0  0  0  0  0  0  0  0  0
    0.3663   -3.6865    3.2914 H   0  0  0  0  0  0  0  0  0  0  0  0
    0.4216   -2.3417    4.4270 H   0  0  0  0  0  0  0  0  0  0  0  0
    1.6901   -3.5759    4.4650 H   0  0  0  0  0  0  0  0  0  0  0  0
    2.6373    0.6073    1.7924 H   0  0  0  0  0  0  0  0  0  0  0  0
    3.8799   -1.4777    0.4371 H   0  0  0  0  0  0  0  0  0  0  0  0
    4.9065   -3.8645    0.3881 H   0  0  0  0  0  0  0  0  0  0  0  0
   -2.2110   -6.8699    3.0317 H   0  0  0  0  0  0  0  0  0  0  0  0
   -1.9156   -9.4558    3.6844 H   0  0  0  0  0  0  0  0  0  0  0  0
    2.6639   -8.3514    1.6096 H   0  0  0  0  0  0  0  0  0  0  0  0
  1  2  1  0
  1 18  1  0
  1 19  1  0
  1 20  1  0
  2  6  1  0
  2  3  1  0
  3  4  2  0
  4  5  1  0
  4 21  1  0
  5  6  2  0
  5 22  1  0
  6  7  1  0
  7 17  1  0
  7  8  2  0
  8  9  1  0
  8 23  1  0
  9 10  1  0
 10 11  1  0
 10 17  2  0
 11 12  1  0
 11 26  1  0
 12 16  1  0
 12 13  2  0
 13 14  1  0
 14 15  2  0
 14 24  1  0
 15 16  1  0
 15 25  1  0
M  END
>  <i_m_ct_stereo_status>  (273) 
1

>  <s_m_source_file>  (273) 
/var/tmp/pbs.5076255.sched01/tmpo609hgx5/90rinj4u0e.sdf

>  <i_m_source_file_index>  (273) 
25

>  <i_lp_mmshare_version>  (273) 
48012

>  <i_f3d_flags>  (273) 
0

>  <s_epik_input>  (273) 
W0NIM11uMW5bY0hdW2NIXWMxLWMyW2NIXXNjKG4yKS9OPWMzXFtuSF1bY0hdW2NIXXMz

>  <s_epik_cmdline>  (273) 
J2VwaWtfcHl0aG9uJywgJy1waHQnLCAnMi4wJywgJy1waCcsICc3LjAnLCAnLXRuJywgJzgnLCAnLW1hJywgJzIwMCcsICctaW1hZScsICc8aW5maWxlLm1hZT4nLCAnLW9tYWUnLCAnPG91dGZpbGUubWFlPic=

>  <r_lp_tautomer_probability>  (273) 
1

>  <r_epik_Ionization_Penalty>  (273) 
0.000884991

>  <r_epik_Ionization_Penalty_Charging>  (273) 
0

>  <r_epik_Ionization_Penalty_Neutral>  (273) 
0.000884991

>  <r_epik_State_Penalty>  (273) 
1.5297e-06

>  <r_epik_Charging_Adjusted_Penalty>  (273) 
1.5297e-06

>  <i_epik_Tot_Q>  (273) 
0

>  <i_epik_Tot_abs_Q>  (273) 
0

>  <s_lp_Force_Field>  (273) 
OPLS3e

>  <r_lp_Energy>  (273) 
11.9246

>  <b_lp_Chiralities_Consistent>  (273) 
1

>  <s_lp_Variant>  (273) 
72:0-1

>  <s_i_glide_gridfile>  (273) 
pfpi4k_grid

>  <i_i_glide_lignum>  (273) 
25

>  <i_i_glide_rotatable_bonds>  (273) 
3

>  <r_i_docking_score>  (273) 
-2.66154

>  <r_i_glide_ligand_efficiency>  (273) 
-0.156561

>  <r_i_glide_ligand_efficiency_sa>  (273) 
-0.402563

>  <r_i_glide_ligand_efficiency_ln>  (273) 
-0.694337

>  <r_i_glide_gscore>  (273) 
-2.66154

>  <r_i_glide_lipo>  (273) 
-0.180266

>  <r_i_glide_hbond>  (273) 
-0.116171

>  <r_i_glide_metal>  (273) 
-0

>  <r_i_glide_rewards>  (273) 
-1.61356

>  <r_i_glide_evdw>  (273) 
-23.7076

>  <r_i_glide_ecoul>  (273) 
-2.08578

>  <r_i_glide_erotb>  (273) 
0.76815

>  <r_i_glide_esite>  (273) 
-0.0214454

>  <r_i_glide_emodel>  (273) 
-29.8204

>  <r_i_glide_energy>  (273) 
-25.7934

>  <r_i_glide_einternal>  (273) 
1.36071

>  <r_i_glide_intrahb_reward>  (273) 
-0

>  <i_i_glide_confnum>  (273) 
2

>  <i_i_glide_posenum>  (273) 
26

>  <r_i_glide_eff_state_penalty>  (273) 
0

>  <ligand_id>  (273) 
72

>  <original_smiles>  (273) 
Cn1nccc1-c1csc(N=c2[nH]ccs2)n1

>  <smiles>  (273) 
[H]c1nc(N([H])c2nc(-c3c([H])c([H])nn3C([H])([H])[H])c([H])s2)sc1[H]

$$$$
72:0:1
     RDKit          3D

 26 28  0  0  1  0  0  0  0  0999 V2000
    4.2250   -1.3392    0.4147 C   0  0  0  0  0  0  0  0  0  0  0  0
    3.2056   -1.4953    1.4381 N   0  0  0  0  0  0  0  0  0  0  0  0
    2.6890   -0.3776    1.9922 N   0  0  0  0  0  0  0  0  0  0  0  0
    1.7776   -0.8068    2.8458 C   0  0  0  0  0  0  0  0  0  0  0  0
    1.7058   -2.2293    2.8881 C   0  0  0  0  0  0  0  0  0  0  0  0
    2.6335   -2.6431    1.9685 C   0  0  0  0  0  0  0  0  0  0  0  0
    3.0233   -4.0063    1.5704 C   0  0  0  0  0  0  0  0  0  0  0  0
    4.1401   -4.4475    0.8829 C   0  0  0  0  0  0  0  0  0  0  0  0
    4.1621   -6.1728    0.6601 S   0  0  0  0  0  0  0  0  0  0  0  0
    2.6321   -6.2661    1.5000 C   0  0  0  0  0  0  0  0  0  0  0  0
    2.0255   -7.5022    1.6843 N   0  0  0  0  0  0  0  0  0  0  0  0
    0.7805   -7.7623    2.2387 C   0  0  0  0  0  0  0  0  0  0  0  0
   -0.2084   -6.8744    2.4128 N   0  0  0  0  0  0  0  0  0  0  0  0
   -1.3272   -7.4630    3.0033 C   0  0  0  0  0  0  0  0  0  0  0  0
   -1.1822   -8.7997    3.2572 C   0  0  0  0  0  0  0  0  0  0  0  0
    0.3980   -9.3715    2.8204 S   0  0  0  0  0  0  0  0  0  0  0  0
    2.1820   -5.0771    1.9195 N   0  0  0  0  0  0  0  0  0  0  0  0
    5.1520   -1.8088    0.7386 H   0  0  0  0  0  0  0  0  0  0  0  0
    4.4451   -0.2877    0.2316 H   0  0  0  0  0  0  0  0  0  0  0  0
    3.8836   -1.7943   -0.5170 H   0  0  0  0  0  0  0  0  0  0  0  0
    1.2217   -0.0623    3.4024 H   0  0  0  0  0  0  0  0  0  0  0  0
    1.0709   -2.8553    3.4991 H   0  0  0  0  0  0  0  0  0  0  0  0
    4.9794   -3.8958    0.4859 H   0  0  0  0  0  0  0  0  0  0  0  0
   -2.1963   -6.8627    3.2138 H   0  0  0  0  0  0  0  0  0  0  0  0
   -1.8996   -9.4740    3.6882 H   0  0  0  0  0  0  0  0  0  0  0  0
    2.5817   -8.3047    1.4251 H   0  0  0  0  0  0  0  0  0  0  0  0
  1  2  1  0
  1 18  1  0
  1 19  1  0
  1 20  1  0
  2  6  1  0
  2  3  1  0
  3  4  2  0
  4  5  1  0
  4 21  1  0
  5  6  2  0
  5 22  1  0
  6  7  1  0
  7 17  1  0
  7  8  2  0
  8  9  1  0
  8 23  1  0
  9 10  1  0
 10 11  1  0
 10 17  2  0
 11 12  1  0
 11 26  1  0
 12 16  1  0
 12 13  2  0
 13 14  1  0
 14 15  2  0
 14 24  1  0
 15 16  1  0
 15 25  1  0
M  END
>  <i_m_ct_stereo_status>  (274) 
1

>  <s_m_source_file>  (274) 
/var/tmp/pbs.5076255.sched01/tmpo609hgx5/90rinj4u0e.sdf

>  <i_m_source_file_index>  (274) 
25

>  <i_lp_mmshare_version>  (274) 
48012

>  <i_f3d_flags>  (274) 
0

>  <s_epik_input>  (274) 
W0NIM11uMW5bY0hdW2NIXWMxLWMyW2NIXXNjKG4yKS9OPWMzXFtuSF1bY0hdW2NIXXMz

>  <s_epik_cmdline>  (274) 
J2VwaWtfcHl0aG9uJywgJy1waHQnLCAnMi4wJywgJy1waCcsICc3LjAnLCAnLXRuJywgJzgnLCAnLW1hJywgJzIwMCcsICctaW1hZScsICc8aW5maWxlLm1hZT4nLCAnLW9tYWUnLCAnPG91dGZpbGUubWFlPic=

>  <r_lp_tautomer_probability>  (274) 
1

>  <r_epik_Ionization_Penalty>  (274) 
0.000884991

>  <r_epik_Ionization_Penalty_Charging>  (274) 
0

>  <r_epik_Ionization_Penalty_Neutral>  (274) 
0.000884991

>  <r_epik_State_Penalty>  (274) 
1.5297e-06

>  <r_epik_Charging_Adjusted_Penalty>  (274) 
1.5297e-06

>  <i_epik_Tot_Q>  (274) 
0

>  <i_epik_Tot_abs_Q>  (274) 
0

>  <s_lp_Force_Field>  (274) 
OPLS3e

>  <r_lp_Energy>  (274) 
11.9246

>  <b_lp_Chiralities_Consistent>  (274) 
1

>  <s_lp_Variant>  (274) 
72:0-1

>  <s_i_glide_gridfile>  (274) 
pfpi4k_grid

>  <i_i_glide_lignum>  (274) 
25

>  <i_i_glide_rotatable_bonds>  (274) 
3

>  <r_i_docking_score>  (274) 
-2.64933

>  <r_i_glide_ligand_efficiency>  (274) 
-0.155843

>  <r_i_glide_ligand_efficiency_sa>  (274) 
-0.400717

>  <r_i_glide_ligand_efficiency_ln>  (274) 
-0.691152

>  <r_i_glide_gscore>  (274) 
-2.64933

>  <r_i_glide_lipo>  (274) 
-0.135091

>  <r_i_glide_hbond>  (274) 
-0.130996

>  <r_i_glide_metal>  (274) 
-0

>  <r_i_glide_rewards>  (274) 
-1.61356

>  <r_i_glide_evdw>  (274) 
-23.7253

>  <r_i_glide_ecoul>  (274) 
-2.01856

>  <r_i_glide_erotb>  (274) 
0.76815

>  <r_i_glide_esite>  (274) 
-0.0487814

>  <r_i_glide_emodel>  (274) 
-29.5753

>  <r_i_glide_energy>  (274) 
-25.7439

>  <r_i_glide_einternal>  (274) 
1.54997

>  <r_i_glide_intrahb_reward>  (274) 
-0

>  <i_i_glide_confnum>  (274) 
2

>  <i_i_glide_posenum>  (274) 
2

>  <r_i_glide_eff_state_penalty>  (274) 
0

>  <ligand_id>  (274) 
72

>  <original_smiles>  (274) 
Cn1nccc1-c1csc(N=c2[nH]ccs2)n1

>  <smiles>  (274) 
[H]c1nc(N([H])c2nc(-c3c([H])c([H])nn3C([H])([H])[H])c([H])s2)sc1[H]

$$$$
72:0:2
     RDKit          3D

 26 28  0  0  1  0  0  0  0  0999 V2000
    5.4634   -3.7249   -1.2223 C   0  0  0  0  0  0  0  0  0  0  0  0
    4.4381   -3.3222   -0.2780 N   0  0  0  0  0  0  0  0  0  0  0  0
    4.1148   -2.0136   -0.2113 N   0  0  0  0  0  0  0  0  0  0  0  0
    3.1500   -1.9404    0.6891 C   0  0  0  0  0  0  0  0  0  0  0  0
    2.8430   -3.2129    1.2501 C   0  0  0  0  0  0  0  0  0  0  0  0
    3.6836   -4.0796    0.6041 C   0  0  0  0  0  0  0  0  0  0  0  0
    3.8394   -5.5279    0.7724 C   0  0  0  0  0  0  0  0  0  0  0  0
    4.9220   -6.3373    0.4841 C   0  0  0  0  0  0  0  0  0  0  0  0
    4.6413   -8.0083    0.8866 S   0  0  0  0  0  0  0  0  0  0  0  0
    3.0575   -7.5623    1.4608 C   0  0  0  0  0  0  0  0  0  0  0  0
    2.2181   -8.5464    1.9540 N   0  0  0  0  0  0  0  0  0  0  0  0
    0.9066   -8.4114    2.3845 C   0  0  0  0  0  0  0  0  0  0  0  0
    0.1836   -7.2812    2.4230 N   0  0  0  0  0  0  0  0  0  0  0  0
   -1.0941   -7.5000    2.9389 C   0  0  0  0  0  0  0  0  0  0  0  0
   -1.3311   -8.8092    3.2714 C   0  0  0  0  0  0  0  0  0  0  0  0
    0.0454   -9.8243    2.9513 S   0  0  0  0  0  0  0  0  0  0  0  0
    2.7838   -6.2587    1.3362 N   0  0  0  0  0  0  0  0  0  0  0  0
    6.3003   -4.1752   -0.6948 H   0  0  0  0  0  0  0  0  0  0  0  0
    5.8539   -2.8685   -1.7693 H   0  0  0  0  0  0  0  0  0  0  0  0
    5.0486   -4.4405   -1.9335 H   0  0  0  0  0  0  0  0  0  0  0  0
    2.7143   -0.9691    0.8928 H   0  0  0  0  0  0  0  0  0  0  0  0
    2.1150   -3.4553    2.0102 H   0  0  0  0  0  0  0  0  0  0  0  0
    5.8905   -6.0816    0.0768 H   0  0  0  0  0  0  0  0  0  0  0  0
   -1.7779   -6.6675    3.0461 H   0  0  0  0  0  0  0  0  0  0  0  0
   -2.2251   -9.2457    3.6891 H   0  0  0  0  0  0  0  0  0  0  0  0
    2.6010   -9.4848    1.9566 H   0  0  0  0  0  0  0  0  0  0  0  0
  1  2  1  0
  1 18  1  0
  1 19  1  0
  1 20  1  0
  2  6  1  0
  2  3  1  0
  3  4  2  0
  4  5  1  0
  4 21  1  0
  5  6  2  0
  5 22  1  0
  6  7  1  0
  7 17  1  0
  7  8  2  0
  8  9  1  0
  8 23  1  0
  9 10  1  0
 10 11  1  0
 10 17  2  0
 11 12  1  0
 11 26  1  0
 12 16  1  0
 12 13  2  0
 13 14  1  0
 14 15  2  0
 14 24  1  0
 15 16  1  0
 15 25  1  0
M  END
>  <i_m_ct_stereo_status>  (275) 
1

>  <s_m_source_file>  (275) 
/var/tmp/pbs.5076255.sched01/tmpo609hgx5/90rinj4u0e.sdf

>  <i_m_source_file_index>  (275) 
25

>  <i_lp_mmshare_version>  (275) 
48012

>  <i_f3d_flags>  (275) 
0

>  <s_epik_input>  (275) 
W0NIM11uMW5bY0hdW2NIXWMxLWMyW2NIXXNjKG4yKS9OPWMzXFtuSF1bY0hdW2NIXXMz

>  <s_epik_cmdline>  (275) 
J2VwaWtfcHl0aG9uJywgJy1waHQnLCAnMi4wJywgJy1waCcsICc3LjAnLCAnLXRuJywgJzgnLCAnLW1hJywgJzIwMCcsICctaW1hZScsICc8aW5maWxlLm1hZT4nLCAnLW9tYWUnLCAnPG91dGZpbGUubWFlPic=

>  <r_lp_tautomer_probability>  (275) 
1

>  <r_epik_Ionization_Penalty>  (275) 
0.000884991

>  <r_epik_Ionization_Penalty_Charging>  (275) 
0

>  <r_epik_Ionization_Penalty_Neutral>  (275) 
0.000884991

>  <r_epik_State_Penalty>  (275) 
1.5297e-06

>  <r_epik_Charging_Adjusted_Penalty>  (275) 
1.5297e-06

>  <i_epik_Tot_Q>  (275) 
0

>  <i_epik_Tot_abs_Q>  (275) 
0

>  <s_lp_Force_Field>  (275) 
OPLS3e

>  <r_lp_Energy>  (275) 
11.9246

>  <b_lp_Chiralities_Consistent>  (275) 
1

>  <s_lp_Variant>  (275) 
72:0-1

>  <s_i_glide_gridfile>  (275) 
pfpi4k_grid

>  <i_i_glide_lignum>  (275) 
25

>  <i_i_glide_rotatable_bonds>  (275) 
3

>  <r_i_docking_score>  (275) 
-2.62951

>  <r_i_glide_ligand_efficiency>  (275) 
-0.154677

>  <r_i_glide_ligand_efficiency_sa>  (275) 
-0.397718

>  <r_i_glide_ligand_efficiency_ln>  (275) 
-0.68598

>  <r_i_glide_gscore>  (275) 
-2.62951

>  <r_i_glide_lipo>  (275) 
-0.281618

>  <r_i_glide_hbond>  (275) 
0

>  <r_i_glide_metal>  (275) 
-0

>  <r_i_glide_rewards>  (275) 
-1.66647

>  <r_i_glide_evdw>  (275) 
-25.5499

>  <r_i_glide_ecoul>  (275) 
-1.07922

>  <r_i_glide_erotb>  (275) 
0.76815

>  <r_i_glide_esite>  (275) 
-0.0101929

>  <r_i_glide_emodel>  (275) 
-30.6716

>  <r_i_glide_energy>  (275) 
-26.6291

>  <r_i_glide_einternal>  (275) 
1.14143

>  <r_i_glide_intrahb_reward>  (275) 
-0

>  <i_i_glide_confnum>  (275) 
2

>  <i_i_glide_posenum>  (275) 
18

>  <r_i_glide_eff_state_penalty>  (275) 
0

>  <ligand_id>  (275) 
72

>  <original_smiles>  (275) 
Cn1nccc1-c1csc(N=c2[nH]ccs2)n1

>  <smiles>  (275) 
[H]c1nc(N([H])c2nc(-c3c([H])c([H])nn3C([H])([H])[H])c([H])s2)sc1[H]

$$$$
73:0:0
     RDKit          3D

 50 55  0  0  1  0  0  0  0  0999 V2000
    4.0038   -0.4732    1.8859 C   0  0  0  0  0  0  0  0  0  0  0  0
    3.1450   -0.9544    2.9124 O   0  0  0  0  0  0  0  0  0  0  0  0
    2.5189    0.0279    3.7430 C   0  0  1  0  0  0  0  0  0  0  0  0
    3.5089    0.5070    4.8191 C   0  0  0  0  0  0  0  0  0  0  0  0
    2.7596    1.7455    5.1923 C   0  0  1  0  0  0  0  0  0  0  0  0
    2.8233    1.9777    3.7832 O   0  0  0  0  0  0  0  0  0  0  0  0
    1.8876    1.2909    2.8857 C   0  0  1  0  0  0  0  0  0  0  0  0
    0.3465    0.8113    2.7772 C   0  0  0  0  0  0  0  0  0  0  0  0
   -0.4652    0.5528    4.0988 C   0  0  2  0  0  0  0  0  0  0  0  0
   -1.6084    1.4901    4.5833 C   0  0  1  0  0  0  0  0  0  0  0  0
   -1.7339    1.8517    6.0994 C   0  0  0  0  0  0  0  0  0  0  0  0
   -0.7987    2.0778    7.0700 C   0  0  0  0  0  0  0  0  0  0  0  0
    0.6901    2.1003    6.8845 C   0  0  0  0  0  0  0  0  0  0  0  0
    1.4828    2.3314    7.7943 O   0  0  0  0  0  0  0  0  0  0  0  0
    1.1993    1.8113    5.4752 C   0  0  2  0  0  0  0  0  0  0  0  0
    0.5579    0.3788    5.1521 C   0  0  2  0  0  0  0  0  0  0  0  0
    1.5233   -0.7165    4.6766 C   0  0  1  0  0  0  0  0  0  0  0  0
    0.9243   -2.0551    4.1638 C   0  0  0  0  0  0  0  0  0  0  0  0
    0.8963    3.1188    4.5730 C   0  0  2  0  0  0  0  0  0  0  0  0
   -0.2807    4.1573    4.7679 C   0  0  1  0  0  0  0  0  0  0  0  0
    0.1630    5.4778    4.4969 O   0  0  0  0  0  0  0  0  0  0  0  0
   -1.6217    3.8628    4.0183 C   0  0  1  0  0  0  0  0  0  0  0  0
   -1.7818    4.6950    2.8835 O   0  0  0  0  0  0  0  0  0  0  0  0
   -1.7625    2.5384    3.6444 O   0  0  0  0  0  0  0  0  0  0  0  0
    1.3673    2.8160    3.1115 C   0  0  1  0  0  0  0  0  0  0  0  0
    2.1220    3.8652    2.4862 O   0  0  0  0  0  0  0  0  0  0  0  0
    4.4464   -1.3263    1.3706 H   0  0  0  0  0  0  0  0  0  0  0  0
    4.8212    0.1294    2.2803 H   0  0  0  0  0  0  0  0  0  0  0  0
    3.4664    0.1104    1.1374 H   0  0  0  0  0  0  0  0  0  0  0  0
    3.7342   -0.1423    5.6653 H   0  0  0  0  0  0  0  0  0  0  0  0
    4.4925    0.7484    4.4039 H   0  0  0  0  0  0  0  0  0  0  0  0
    3.3644    2.4598    5.7507 H   0  0  0  0  0  0  0  0  0  0  0  0
   -0.2752    1.3234    2.0410 H   0  0  0  0  0  0  0  0  0  0  0  0
    0.4103   -0.1309    2.2407 H   0  0  0  0  0  0  0  0  0  0  0  0
   -0.9772   -0.3959    3.9510 H   0  0  0  0  0  0  0  0  0  0  0  0
   -2.5116    0.9009    4.4372 H   0  0  0  0  0  0  0  0  0  0  0  0
   -2.7652    1.9233    6.4248 H   0  0  0  0  0  0  0  0  0  0  0  0
   -1.1544    2.3107    8.0634 H   0  0  0  0  0  0  0  0  0  0  0  0
    0.0812   -0.0860    6.0190 H   0  0  0  0  0  0  0  0  0  0  0  0
    1.9959   -1.0955    5.5837 H   0  0  0  0  0  0  0  0  0  0  0  0
    0.4593   -2.0049    3.1820 H   0  0  0  0  0  0  0  0  0  0  0  0
    0.1771   -2.4291    4.8652 H   0  0  0  0  0  0  0  0  0  0  0  0
    1.7018   -2.8179    4.0969 H   0  0  0  0  0  0  0  0  0  0  0  0
    1.6763    3.7844    4.9525 H   0  0  0  0  0  0  0  0  0  0  0  0
   -0.5328    4.2461    5.8209 H   0  0  0  0  0  0  0  0  0  0  0  0
    0.4613    5.5186    3.5971 H   0  0  0  0  0  0  0  0  0  0  0  0
   -2.4656    4.0977    4.6676 H   0  0  0  0  0  0  0  0  0  0  0  0
   -1.0912    4.4882    2.2547 H   0  0  0  0  0  0  0  0  0  0  0  0
    0.5027    3.0557    2.5043 H   0  0  0  0  0  0  0  0  0  0  0  0
    1.6158    4.1508    1.7279 H   0  0  0  0  0  0  0  0  0  0  0  0
  1  2  1  0
  1 27  1  0
  1 28  1  0
  1 29  1  0
  3  2  1  6
  3  7  1  0
  3 17  1  0
  3  4  1  0
  4  5  1  0
  4 30  1  0
  4 31  1  0
  5 15  1  0
  5  6  1  0
  5 32  1  1
  6  7  1  0
  7 25  1  0
  7  8  1  6
  8  9  1  0
  8 33  1  0
  8 34  1  0
  9 16  1  0
  9 10  1  0
  9 35  1  6
 10 24  1  0
 10 11  1  0
 10 36  1  6
 11 12  2  0
 11 37  1  0
 12 13  1  0
 12 38  1  0
 13 14  2  0
 15 13  1  1
 15 16  1  0
 15 19  1  0
 16 17  1  0
 16 39  1  1
 17 18  1  0
 17 40  1  1
 18 41  1  0
 18 42  1  0
 18 43  1  0
 19 20  1  0
 19 25  1  0
 19 44  1  1
 20 21  1  0
 20 22  1  0
 20 45  1  1
 21 46  1  0
 22 23  1  0
 22 24  1  0
 22 47  1  1
 23 48  1  0
 25 26  1  0
 25 49  1  6
 26 50  1  0
M  END
>  <i_m_ct_stereo_status>  (276) 
1

>  <s_m_source_file>  (276) 
/var/tmp/pbs.5076255.sched01/tmpo609hgx5/90rinj4u0e.sdf

>  <i_m_source_file_index>  (276) 
26

>  <i_lp_mmshare_version>  (276) 
48012

>  <i_f3d_flags>  (276) 
0

>  <s_epik_input>  (276) 
W0NIM11PW0NAXTEoQzIzNClbQ0gyXVtDQEBIXShPMilbQ0BAXTU2W0NASF0oW0NASF0xW0NIM10pW0NASF0oW0NIMl0zKVtDQEBIXShbQ0hdPVtDSF1DNT1PKU9bQ0BIXShbT0hdKVtDQEhdKFtPSF0pW0NAQEhdNltDQEhdNFtPSF0=

>  <s_epik_cmdline>  (276) 
J2VwaWtfcHl0aG9uJywgJy1waHQnLCAnMi4wJywgJy1waCcsICc3LjAnLCAnLXRuJywgJzgnLCAnLW1hJywgJzIwMCcsICctaW1hZScsICc8aW5maWxlLm1hZT4nLCAnLW9tYWUnLCAnPG91dGZpbGUubWFlPic=

>  <r_lp_tautomer_probability>  (276) 
1

>  <r_epik_Ionization_Penalty>  (276) 
2.43721e-06

>  <r_epik_Ionization_Penalty_Charging>  (276) 
0

>  <r_epik_Ionization_Penalty_Neutral>  (276) 
2.43721e-06

>  <r_epik_State_Penalty>  (276) 
-0

>  <r_epik_Charging_Adjusted_Penalty>  (276) 
0

>  <i_epik_Tot_Q>  (276) 
0

>  <i_epik_Tot_abs_Q>  (276) 
0

>  <s_epik_Chemistry_Notes>  (276) 
This compound contains an acetal/aminal-like group ( X-CH(R)-Y where X, Y are N, S, or O) that may be acid/base labile, releasing an aldehyde.

>  <s_lp_Force_Field>  (276) 
OPLS3e

>  <r_lp_Energy>  (276) 
247.835

>  <b_lp_Chiralities_Consistent>  (276) 
1

>  <s_lp_Variant>  (276) 
73:0-1

>  <s_i_glide_gridfile>  (276) 
pfpi4k_grid

>  <i_i_glide_lignum>  (276) 
26

>  <i_i_glide_rotatable_bonds>  (276) 
4

>  <r_i_docking_score>  (276) 
-3.22754

>  <r_i_glide_ligand_efficiency>  (276) 
-0.124136

>  <r_i_glide_ligand_efficiency_sa>  (276) 
-0.367753

>  <r_i_glide_ligand_efficiency_ln>  (276) 
-0.757977

>  <r_i_glide_gscore>  (276) 
-3.22754

>  <r_i_glide_lipo>  (276) 
-0.0733964

>  <r_i_glide_hbond>  (276) 
0

>  <r_i_glide_metal>  (276) 
-0

>  <r_i_glide_rewards>  (276) 
-0.924616

>  <r_i_glide_evdw>  (276) 
-18.0324

>  <r_i_glide_ecoul>  (276) 
-8.38074

>  <r_i_glide_erotb>  (276) 
0

>  <r_i_glide_esite>  (276) 
-0.0707964

>  <r_i_glide_emodel>  (276) 
-32.2994

>  <r_i_glide_energy>  (276) 
-26.4131

>  <r_i_glide_einternal>  (276) 
1.34709

>  <r_i_glide_intrahb_reward>  (276) 
-0

>  <i_i_glide_confnum>  (276) 
1

>  <i_i_glide_posenum>  (276) 
11

>  <r_i_glide_eff_state_penalty>  (276) 
0

>  <ligand_id>  (276) 
73

>  <original_smiles>  (276) 
COC12CC3OC14CC1C5C=CC(=O)C3(C1C2C)C(C(O)C(O)O5)C4O

>  <smiles>  (276) 
[H]OC1([H])OC2([H])C([H])=C([H])C(=O)C34C5([H])OC6(C([H])([H])C2([H])C3([H])C([H])(C([H])([H])[H])C6(OC([H])([H])[H])C5([H])[H])C([H])(O[H])C4([H])C1([H])O[H]

$$$$
73:0:1
     RDKit          3D

 50 55  0  0  1  0  0  0  0  0999 V2000
    5.3637   -0.8147    2.5168 C   0  0  0  0  0  0  0  0  0  0  0  0
    4.3722    0.1436    2.1132 O   0  0  0  0  0  0  0  0  0  0  0  0
    3.3926    0.5626    3.0826 C   0  0  1  0  0  0  0  0  0  0  0  0
    4.0407    0.7686    4.4655 C   0  0  0  0  0  0  0  0  0  0  0  0
    2.9905    1.6492    5.0419 C   0  0  1  0  0  0  0  0  0  0  0  0
    3.2296    2.4147    3.8634 O   0  0  0  0  0  0  0  0  0  0  0  0
    2.6646    1.9716    2.5855 C   0  0  1  0  0  0  0  0  0  0  0  0
    1.3028    1.3804    1.9464 C   0  0  0  0  0  0  0  0  0  0  0  0
    0.3561    0.5333    2.8669 C   0  0  2  0  0  0  0  0  0  0  0  0
   -1.0288    1.0357    3.3551 C   0  0  1  0  0  0  0  0  0  0  0  0
   -1.4806    0.7475    4.8247 C   0  0  0  0  0  0  0  0  0  0  0  0
   -0.7972    0.7140    6.0110 C   0  0  0  0  0  0  0  0  0  0  0  0
    0.6549    1.0127    6.2039 C   0  0  0  0  0  0  0  0  0  0  0  0
    1.2205    0.9804    7.2955 O   0  0  0  0  0  0  0  0  0  0  0  0
    1.4425    1.3652    4.9431 C   0  0  2  0  0  0  0  0  0  0  0  0
    1.1914    0.0974    4.0011 C   0  0  2  0  0  0  0  0  0  0  0  0
    2.4252   -0.6059    3.4201 C   0  0  1  0  0  0  0  0  0  0  0  0
    2.1856   -1.6924    2.3210 C   0  0  0  0  0  0  0  0  0  0  0  0
    1.0073    2.8573    4.5081 C   0  0  2  0  0  0  0  0  0  0  0  0
   -0.3742    3.5696    4.7878 C   0  0  1  0  0  0  0  0  0  0  0  0
   -0.1744    4.9407    5.0961 O   0  0  0  0  0  0  0  0  0  0  0  0
   -1.4847    3.4117    3.6921 C   0  0  1  0  0  0  0  0  0  0  0  0
   -1.6019    4.5875    2.9180 O   0  0  0  0  0  0  0  0  0  0  0  0
   -1.2630    2.3307    2.8517 O   0  0  0  0  0  0  0  0  0  0  0  0
    1.7757    3.2101    3.1883 C   0  0  1  0  0  0  0  0  0  0  0  0
    2.3425    4.5272    3.1942 O   0  0  0  0  0  0  0  0  0  0  0  0
    5.9160   -1.1507    1.6406 H   0  0  0  0  0  0  0  0  0  0  0  0
    4.9495   -1.6975    2.9994 H   0  0  0  0  0  0  0  0  0  0  0  0
    6.0864   -0.3839    3.2072 H   0  0  0  0  0  0  0  0  0  0  0  0
    4.2617   -0.1067    5.0764 H   0  0  0  0  0  0  0  0  0  0  0  0
    4.9926    1.3097    4.3823 H   0  0  0  0  0  0  0  0  0  0  0  0
    3.3187    2.1716    5.9392 H   0  0  0  0  0  0  0  0  0  0  0  0
    0.7106    2.0474    1.3172 H   0  0  0  0  0  0  0  0  0  0  0  0
    1.6452    0.7425    1.1392 H   0  0  0  0  0  0  0  0  0  0  0  0
    0.0932   -0.3348    2.2688 H   0  0  0  0  0  0  0  0  0  0  0  0
   -1.7419    0.4396    2.7889 H   0  0  0  0  0  0  0  0  0  0  0  0
   -2.5375    0.5271    4.8776 H   0  0  0  0  0  0  0  0  0  0  0  0
   -1.3578    0.4915    6.9064 H   0  0  0  0  0  0  0  0  0  0  0  0
    0.6817   -0.7222    4.5102 H   0  0  0  0  0  0  0  0  0  0  0  0
    2.8162   -1.2297    4.2260 H   0  0  0  0  0  0  0  0  0  0  0  0
    1.8961   -1.3066    1.3481 H   0  0  0  0  0  0  0  0  0  0  0  0
    1.4106   -2.3829    2.6489 H   0  0  0  0  0  0  0  0  0  0  0  0
    3.0583   -2.3108    2.1298 H   0  0  0  0  0  0  0  0  0  0  0  0
    1.5483    3.4329    5.2655 H   0  0  0  0  0  0  0  0  0  0  0  0
   -0.8134    3.2081    5.7169 H   0  0  0  0  0  0  0  0  0  0  0  0
    0.2610    5.3354    4.3531 H   0  0  0  0  0  0  0  0  0  0  0  0
   -2.4571    3.2639    4.1606 H   0  0  0  0  0  0  0  0  0  0  0  0
   -0.9171    4.5493    2.2312 H   0  0  0  0  0  0  0  0  0  0  0  0
    0.9998    3.5483    2.5144 H   0  0  0  0  0  0  0  0  0  0  0  0
    2.3801    4.8274    2.2966 H   0  0  0  0  0  0  0  0  0  0  0  0
  1  2  1  0
  1 27  1  0
  1 28  1  0
  1 29  1  0
  3  2  1  6
  3  7  1  0
  3 17  1  0
  3  4  1  0
  4  5  1  0
  4 30  1  0
  4 31  1  0
  5 15  1  0
  5  6  1  0
  5 32  1  1
  6  7  1  0
  7 25  1  0
  7  8  1  6
  8  9  1  0
  8 33  1  0
  8 34  1  0
  9 16  1  0
  9 10  1  0
  9 35  1  6
 10 24  1  0
 10 11  1  0
 10 36  1  6
 11 12  2  0
 11 37  1  0
 12 13  1  0
 12 38  1  0
 13 14  2  0
 15 13  1  1
 15 16  1  0
 15 19  1  0
 16 17  1  0
 16 39  1  1
 17 18  1  0
 17 40  1  1
 18 41  1  0
 18 42  1  0
 18 43  1  0
 19 20  1  0
 19 25  1  0
 19 44  1  1
 20 21  1  0
 20 22  1  0
 20 45  1  1
 21 46  1  0
 22 23  1  0
 22 24  1  0
 22 47  1  1
 23 48  1  0
 25 26  1  0
 25 49  1  6
 26 50  1  0
M  END
>  <i_m_ct_stereo_status>  (277) 
1

>  <s_m_source_file>  (277) 
/var/tmp/pbs.5076255.sched01/tmpo609hgx5/90rinj4u0e.sdf

>  <i_m_source_file_index>  (277) 
26

>  <i_lp_mmshare_version>  (277) 
48012

>  <i_f3d_flags>  (277) 
0

>  <s_epik_input>  (277) 
W0NIM11PW0NAXTEoQzIzNClbQ0gyXVtDQEBIXShPMilbQ0BAXTU2W0NASF0oW0NASF0xW0NIM10pW0NASF0oW0NIMl0zKVtDQEBIXShbQ0hdPVtDSF1DNT1PKU9bQ0BIXShbT0hdKVtDQEhdKFtPSF0pW0NAQEhdNltDQEhdNFtPSF0=

>  <s_epik_cmdline>  (277) 
J2VwaWtfcHl0aG9uJywgJy1waHQnLCAnMi4wJywgJy1waCcsICc3LjAnLCAnLXRuJywgJzgnLCAnLW1hJywgJzIwMCcsICctaW1hZScsICc8aW5maWxlLm1hZT4nLCAnLW9tYWUnLCAnPG91dGZpbGUubWFlPic=

>  <r_lp_tautomer_probability>  (277) 
1

>  <r_epik_Ionization_Penalty>  (277) 
2.43721e-06

>  <r_epik_Ionization_Penalty_Charging>  (277) 
0

>  <r_epik_Ionization_Penalty_Neutral>  (277) 
2.43721e-06

>  <r_epik_State_Penalty>  (277) 
-0

>  <r_epik_Charging_Adjusted_Penalty>  (277) 
0

>  <i_epik_Tot_Q>  (277) 
0

>  <i_epik_Tot_abs_Q>  (277) 
0

>  <s_epik_Chemistry_Notes>  (277) 
This compound contains an acetal/aminal-like group ( X-CH(R)-Y where X, Y are N, S, or O) that may be acid/base labile, releasing an aldehyde.

>  <s_lp_Force_Field>  (277) 
OPLS3e

>  <r_lp_Energy>  (277) 
247.835

>  <b_lp_Chiralities_Consistent>  (277) 
1

>  <s_lp_Variant>  (277) 
73:0-1

>  <s_i_glide_gridfile>  (277) 
pfpi4k_grid

>  <i_i_glide_lignum>  (277) 
26

>  <i_i_glide_rotatable_bonds>  (277) 
4

>  <r_i_docking_score>  (277) 
-3.15597

>  <r_i_glide_ligand_efficiency>  (277) 
-0.121383

>  <r_i_glide_ligand_efficiency_sa>  (277) 
-0.359598

>  <r_i_glide_ligand_efficiency_ln>  (277) 
-0.741169

>  <r_i_glide_gscore>  (277) 
-3.15597

>  <r_i_glide_lipo>  (277) 
-0.114195

>  <r_i_glide_hbond>  (277) 
-0.0312388

>  <r_i_glide_metal>  (277) 
-0

>  <r_i_glide_rewards>  (277) 
-0.924616

>  <r_i_glide_evdw>  (277) 
-19.7761

>  <r_i_glide_ecoul>  (277) 
-6.86618

>  <r_i_glide_erotb>  (277) 
0

>  <r_i_glide_esite>  (277) 
-0.0671897

>  <r_i_glide_emodel>  (277) 
-30.8818

>  <r_i_glide_energy>  (277) 
-26.6422

>  <r_i_glide_einternal>  (277) 
3.80766

>  <r_i_glide_intrahb_reward>  (277) 
-0

>  <i_i_glide_confnum>  (277) 
1

>  <i_i_glide_posenum>  (277) 
17

>  <r_i_glide_eff_state_penalty>  (277) 
0

>  <ligand_id>  (277) 
73

>  <original_smiles>  (277) 
COC12CC3OC14CC1C5C=CC(=O)C3(C1C2C)C(C(O)C(O)O5)C4O

>  <smiles>  (277) 
[H]OC1([H])OC2([H])C([H])=C([H])C(=O)C34C5([H])OC6(C([H])([H])C2([H])C3([H])C([H])(C([H])([H])[H])C6(OC([H])([H])[H])C5([H])[H])C([H])(O[H])C4([H])C1([H])O[H]

$$$$
73:0:2
     RDKit          3D

 50 55  0  0  1  0  0  0  0  0999 V2000
    4.2627   -0.3263    1.8089 C   0  0  0  0  0  0  0  0  0  0  0  0
    3.1875   -0.8220    2.5975 O   0  0  0  0  0  0  0  0  0  0  0  0
    2.5570    0.0987    3.4938 C   0  0  1  0  0  0  0  0  0  0  0  0
    3.4559    0.3400    4.7188 C   0  0  0  0  0  0  0  0  0  0  0  0
    2.7736    1.5868    5.1764 C   0  0  1  0  0  0  0  0  0  0  0  0
    3.0054    1.9935    3.8253 O   0  0  0  0  0  0  0  0  0  0  0  0
    2.1206    1.5153    2.7592 C   0  0  1  0  0  0  0  0  0  0  0  0
    0.5665    1.1999    2.4398 C   0  0  0  0  0  0  0  0  0  0  0  0
   -0.3979    0.8534    3.6333 C   0  0  2  0  0  0  0  0  0  0  0  0
   -1.5085    1.8200    4.1370 C   0  0  1  0  0  0  0  0  0  0  0  0
   -1.7631    1.9997    5.6686 C   0  0  0  0  0  0  0  0  0  0  0  0
   -0.9189    2.0032    6.7469 C   0  0  0  0  0  0  0  0  0  0  0  0
    0.5747    1.9062    6.7007 C   0  0  0  0  0  0  0  0  0  0  0  0
    1.2881    1.9420    7.7009 O   0  0  0  0  0  0  0  0  0  0  0  0
    1.2047    1.7574    5.3182 C   0  0  2  0  0  0  0  0  0  0  0  0
    0.4892    0.4471    4.7418 C   0  0  2  0  0  0  0  0  0  0  0  0
    1.4118   -0.6612    4.2191 C   0  0  1  0  0  0  0  0  0  0  0  0
    0.7701   -1.8616    3.4774 C   0  0  0  0  0  0  0  0  0  0  0  0
    1.0995    3.1898    4.5794 C   0  0  2  0  0  0  0  0  0  0  0  0
    0.0010    4.2979    4.8079 C   0  0  1  0  0  0  0  0  0  0  0  0
    0.5816    5.5911    4.7685 O   0  0  0  0  0  0  0  0  0  0  0  0
   -1.2758    4.2314    3.9070 C   0  0  1  0  0  0  0  0  0  0  0  0
   -1.2563    5.2044    2.8854 O   0  0  0  0  0  0  0  0  0  0  0  0
   -1.4885    2.9887    3.3429 O   0  0  0  0  0  0  0  0  0  0  0  0
    1.6962    3.0421    3.1416 C   0  0  1  0  0  0  0  0  0  0  0  0
    2.5988    4.0967    2.7821 O   0  0  0  0  0  0  0  0  0  0  0  0
    4.6653   -1.1444    1.2126 H   0  0  0  0  0  0  0  0  0  0  0  0
    5.0835    0.0528    2.4154 H   0  0  0  0  0  0  0  0  0  0  0  0
    3.9460    0.4566    1.1187 H   0  0  0  0  0  0  0  0  0  0  0  0
    3.5345   -0.4318    5.4849 H   0  0  0  0  0  0  0  0  0  0  0  0
    4.4948    0.5457    4.4504 H   0  0  0  0  0  0  0  0  0  0  0  0
    3.3749    2.1624    5.8808 H   0  0  0  0  0  0  0  0  0  0  0  0
    0.0659    1.8613    1.7310 H   0  0  0  0  0  0  0  0  0  0  0  0
    0.6059    0.3340    1.7820 H   0  0  0  0  0  0  0  0  0  0  0  0
   -0.9684   -0.0098    3.3070 H   0  0  0  0  0  0  0  0  0  0  0  0
   -2.4380    1.3513    3.8247 H   0  0  0  0  0  0  0  0  0  0  0  0
   -2.8048    2.1516    5.8984 H   0  0  0  0  0  0  0  0  0  0  0  0
   -1.3620    2.1486    7.7253 H   0  0  0  0  0  0  0  0  0  0  0  0
   -0.1143   -0.0771    5.4866 H   0  0  0  0  0  0  0  0  0  0  0  0
    1.7501   -1.1974    5.1055 H   0  0  0  0  0  0  0  0  0  0  0  0
    0.4407   -1.6299    2.4702 H   0  0  0  0  0  0  0  0  0  0  0  0
   -0.0853   -2.2488    4.0336 H   0  0  0  0  0  0  0  0  0  0  0  0
    1.4799   -2.6833    3.3796 H   0  0  0  0  0  0  0  0  0  0  0  0
    1.8901    3.7211    5.1149 H   0  0  0  0  0  0  0  0  0  0  0  0
   -0.3487    4.2783    5.8372 H   0  0  0  0  0  0  0  0  0  0  0  0
    1.0119    5.6946    3.9295 H   0  0  0  0  0  0  0  0  0  0  0  0
   -2.1548    4.4620    4.5112 H   0  0  0  0  0  0  0  0  0  0  0  0
   -0.6505    4.9116    2.1974 H   0  0  0  0  0  0  0  0  0  0  0  0
    0.9311    3.4362    2.4846 H   0  0  0  0  0  0  0  0  0  0  0  0
    2.7602    4.0354    1.8532 H   0  0  0  0  0  0  0  0  0  0  0  0
  1  2  1  0
  1 27  1  0
  1 28  1  0
  1 29  1  0
  3  2  1  6
  3  7  1  0
  3 17  1  0
  3  4  1  0
  4  5  1  0
  4 30  1  0
  4 31  1  0
  5 15  1  0
  5  6  1  0
  5 32  1  1
  6  7  1  0
  7 25  1  0
  7  8  1  6
  8  9  1  0
  8 33  1  0
  8 34  1  0
  9 16  1  0
  9 10  1  0
  9 35  1  6
 10 24  1  0
 10 11  1  0
 10 36  1  6
 11 12  2  0
 11 37  1  0
 12 13  1  0
 12 38  1  0
 13 14  2  0
 15 13  1  1
 15 16  1  0
 15 19  1  0
 16 17  1  0
 16 39  1  1
 17 18  1  0
 17 40  1  1
 18 41  1  0
 18 42  1  0
 18 43  1  0
 19 20  1  0
 19 25  1  0
 19 44  1  1
 20 21  1  0
 20 22  1  0
 20 45  1  1
 21 46  1  0
 22 23  1  0
 22 24  1  0
 22 47  1  1
 23 48  1  0
 25 26  1  0
 25 49  1  6
 26 50  1  0
M  END
>  <i_m_ct_stereo_status>  (278) 
1

>  <s_m_source_file>  (278) 
/var/tmp/pbs.5076255.sched01/tmpo609hgx5/90rinj4u0e.sdf

>  <i_m_source_file_index>  (278) 
26

>  <i_lp_mmshare_version>  (278) 
48012

>  <i_f3d_flags>  (278) 
0

>  <s_epik_input>  (278) 
W0NIM11PW0NAXTEoQzIzNClbQ0gyXVtDQEBIXShPMilbQ0BAXTU2W0NASF0oW0NASF0xW0NIM10pW0NASF0oW0NIMl0zKVtDQEBIXShbQ0hdPVtDSF1DNT1PKU9bQ0BIXShbT0hdKVtDQEhdKFtPSF0pW0NAQEhdNltDQEhdNFtPSF0=

>  <s_epik_cmdline>  (278) 
J2VwaWtfcHl0aG9uJywgJy1waHQnLCAnMi4wJywgJy1waCcsICc3LjAnLCAnLXRuJywgJzgnLCAnLW1hJywgJzIwMCcsICctaW1hZScsICc8aW5maWxlLm1hZT4nLCAnLW9tYWUnLCAnPG91dGZpbGUubWFlPic=

>  <r_lp_tautomer_probability>  (278) 
1

>  <r_epik_Ionization_Penalty>  (278) 
2.43721e-06

>  <r_epik_Ionization_Penalty_Charging>  (278) 
0

>  <r_epik_Ionization_Penalty_Neutral>  (278) 
2.43721e-06

>  <r_epik_State_Penalty>  (278) 
-0

>  <r_epik_Charging_Adjusted_Penalty>  (278) 
0

>  <i_epik_Tot_Q>  (278) 
0

>  <i_epik_Tot_abs_Q>  (278) 
0

>  <s_epik_Chemistry_Notes>  (278) 
This compound contains an acetal/aminal-like group ( X-CH(R)-Y where X, Y are N, S, or O) that may be acid/base labile, releasing an aldehyde.

>  <s_lp_Force_Field>  (278) 
OPLS3e

>  <r_lp_Energy>  (278) 
247.835

>  <b_lp_Chiralities_Consistent>  (278) 
1

>  <s_lp_Variant>  (278) 
73:0-1

>  <s_i_glide_gridfile>  (278) 
pfpi4k_grid

>  <i_i_glide_lignum>  (278) 
26

>  <i_i_glide_rotatable_bonds>  (278) 
4

>  <r_i_docking_score>  (278) 
-3.06768

>  <r_i_glide_ligand_efficiency>  (278) 
-0.117988

>  <r_i_glide_ligand_efficiency_sa>  (278) 
-0.349538

>  <r_i_glide_ligand_efficiency_ln>  (278) 
-0.720434

>  <r_i_glide_gscore>  (278) 
-3.06768

>  <r_i_glide_lipo>  (278) 
-0.146666

>  <r_i_glide_hbond>  (278) 
0

>  <r_i_glide_metal>  (278) 
-0

>  <r_i_glide_rewards>  (278) 
-0.924616

>  <r_i_glide_evdw>  (278) 
-17.5962

>  <r_i_glide_ecoul>  (278) 
-6.79616

>  <r_i_glide_erotb>  (278) 
0

>  <r_i_glide_esite>  (278) 
-0.0971625

>  <r_i_glide_emodel>  (278) 
-30.2274

>  <r_i_glide_energy>  (278) 
-24.3924

>  <r_i_glide_einternal>  (278) 
0.824594

>  <r_i_glide_intrahb_reward>  (278) 
-0

>  <i_i_glide_confnum>  (278) 
2

>  <i_i_glide_posenum>  (278) 
1

>  <r_i_glide_eff_state_penalty>  (278) 
0

>  <ligand_id>  (278) 
73

>  <original_smiles>  (278) 
COC12CC3OC14CC1C5C=CC(=O)C3(C1C2C)C(C(O)C(O)O5)C4O

>  <smiles>  (278) 
[H]OC1([H])OC2([H])C([H])=C([H])C(=O)C34C5([H])OC6(C([H])([H])C2([H])C3([H])C([H])(C([H])([H])[H])C6(OC([H])([H])[H])C5([H])[H])C([H])(O[H])C4([H])C1([H])O[H]

$$$$
74:0:0
     RDKit          3D

 89 94  0  0  1  0  0  0  0  0999 V2000
    3.5237   -2.4591   -0.1567 C   0  0  0  0  0  0  0  0  0  0  0  0
    3.3674   -2.5088    1.3773 C   0  0  2  0  0  0  0  0  0  0  0  0
    2.6203   -1.2592    1.8904 C   0  0  0  0  0  0  0  0  0  0  0  0
    2.4774   -1.2616    3.4270 C   0  0  0  0  0  0  0  0  0  0  0  0
    3.8387   -1.3548    4.1777 C   0  0  1  0  0  0  0  0  0  0  0  0
    4.6347   -0.0472    3.9324 C   0  0  0  0  0  0  0  0  0  0  0  0
    5.8408   -0.1090    3.6090 O   0  0  0  0  0  0  0  0  0  0  0  0
    4.0300    1.0232    4.1626 O   0  0  0  0  0  0  0  0  0  0  0  0
    3.6376   -1.3685    5.7149 C   0  0  0  0  0  0  0  0  0  0  0  0
    3.0292   -2.6547    6.2742 C   0  0  0  0  0  0  0  0  0  0  0  0
    3.8015   -3.9270    5.8535 C   0  0  2  0  0  0  0  0  0  0  0  0
    5.2271   -3.8896    6.4815 C   0  0  0  0  0  0  0  0  0  0  0  0
    3.9715   -3.9358    4.3191 C   0  0  0  0  0  0  0  0  0  0  0  0
    3.5831   -5.0127    3.6107 C   0  0  0  0  0  0  0  0  0  0  0  0
    2.9481   -6.2456    4.2111 C   0  0  0  0  0  0  0  0  0  0  0  0
    2.0729   -5.9537    5.4626 C   0  0  2  0  0  0  0  0  0  0  0  0
    0.9368   -4.9700    5.0318 C   0  0  0  0  0  0  0  0  0  0  0  0
    3.0113   -5.1634    6.4157 C   0  0  0  0  0  0  0  0  0  0  0  0
    3.2399   -5.5680    7.6811 C   0  0  0  0  0  0  0  0  0  0  0  0
    2.6647   -6.7954    8.3290 C   0  0  0  0  0  0  0  0  0  0  0  0
    2.2695   -7.8847    7.3232 C   0  0  2  0  0  0  0  0  0  0  0  0
    1.5653   -8.8063    8.1532 O   0  0  0  0  0  0  0  0  0  0  0  0
    3.4623   -8.6810    6.7523 C   0  0  1  0  0  0  0  0  0  0  0  0
    4.2829   -9.2373    7.7594 O   0  0  0  0  0  0  0  0  0  0  0  0
    2.9912   -9.8348    5.8504 C   0  0  0  0  0  0  0  0  0  0  0  0
    2.0510   -9.3823    4.7029 C   0  0  1  0  0  0  0  0  0  0  0  0
    1.6818  -10.5263    3.6960 C   0  0  0  0  0  0  0  0  0  0  0  0
    2.9705  -11.1570    3.1162 C   0  0  0  0  0  0  0  0  0  0  0  0
    0.8767  -11.6887    4.3221 C   0  0  0  0  0  0  0  0  0  0  0  0
    0.8995   -9.9023    2.5193 C   0  0  0  0  0  0  0  0  0  0  0  0
   -0.3511   -9.1506    2.9571 C   0  0  0  0  0  0  0  0  0  0  0  0
   -0.0411   -8.0316    3.9575 C   0  0  1  0  0  0  0  0  0  0  0  0
   -1.3098   -7.5215    4.3383 O   0  0  0  0  0  0  0  0  0  0  0  0
    0.8617   -8.4573    5.1787 C   0  0  1  0  0  0  0  0  0  0  0  0
   -0.0076   -9.2772    5.9618 O   0  0  0  0  0  0  0  0  0  0  0  0
    1.3999   -7.2793    6.1423 C   0  0  2  0  0  0  0  0  0  0  0  0
    0.2564   -6.8292    6.8495 O   0  0  0  0  0  0  0  0  0  0  0  0
    4.5771   -2.6466    3.6769 C   0  0  1  0  0  0  0  0  0  0  0  0
    4.7274   -2.6247    2.1089 C   0  0  1  0  0  0  0  0  0  0  0  0
    5.7300   -3.6489    1.5272 C   0  0  0  0  0  0  0  0  0  0  0  0
    4.1471   -1.6216   -0.4736 H   0  0  0  0  0  0  0  0  0  0  0  0
    2.5576   -2.3422   -0.6363 H   0  0  0  0  0  0  0  0  0  0  0  0
    3.9540   -3.3824   -0.5423 H   0  0  0  0  0  0  0  0  0  0  0  0
    2.7394   -3.3683    1.6029 H   0  0  0  0  0  0  0  0  0  0  0  0
    3.1281   -0.3442    1.5670 H   0  0  0  0  0  0  0  0  0  0  0  0
    1.6273   -1.2194    1.4462 H   0  0  0  0  0  0  0  0  0  0  0  0
    1.9280   -0.3705    3.7399 H   0  0  0  0  0  0  0  0  0  0  0  0
    1.8504   -2.1039    3.7041 H   0  0  0  0  0  0  0  0  0  0  0  0
    4.5958   -1.1816    6.2095 H   0  0  0  0  0  0  0  0  0  0  0  0
    3.0038   -0.5300    6.0127 H   0  0  0  0  0  0  0  0  0  0  0  0
    2.9891   -2.5828    7.3611 H   0  0  0  0  0  0  0  0  0  0  0  0
    1.9873   -2.7026    5.9565 H   0  0  0  0  0  0  0  0  0  0  0  0
    5.7472   -4.8307    6.3084 H   0  0  0  0  0  0  0  0  0  0  0  0
    5.2265   -3.6913    7.5508 H   0  0  0  0  0  0  0  0  0  0  0  0
    5.8578   -3.1047    6.0679 H   0  0  0  0  0  0  0  0  0  0  0  0
    3.6989   -5.0722    2.5494 H   0  0  0  0  0  0  0  0  0  0  0  0
    2.3863   -6.6846    3.3941 H   0  0  0  0  0  0  0  0  0  0  0  0
    3.7714   -6.9164    4.4341 H   0  0  0  0  0  0  0  0  0  0  0  0
    0.1306   -5.4369    4.4810 H   0  0  0  0  0  0  0  0  0  0  0  0
    1.2873   -4.1638    4.3947 H   0  0  0  0  0  0  0  0  0  0  0  0
    0.4804   -4.4892    5.9012 H   0  0  0  0  0  0  0  0  0  0  0  0
    3.8543   -5.0058    8.3596 H   0  0  0  0  0  0  0  0  0  0  0  0
    3.3983   -7.1786    9.0390 H   0  0  0  0  0  0  0  0  0  0  0  0
    1.8044   -6.4736    8.9233 H   0  0  0  0  0  0  0  0  0  0  0  0
    1.4492   -9.6220    7.6822 H   0  0  0  0  0  0  0  0  0  0  0  0
    4.0989   -8.0066    6.1965 H   0  0  0  0  0  0  0  0  0  0  0  0
    3.8131   -9.9514    8.1685 H   0  0  0  0  0  0  0  0  0  0  0  0
    3.8925  -10.2814    5.4292 H   0  0  0  0  0  0  0  0  0  0  0  0
    2.5161  -10.6163    6.4463 H   0  0  0  0  0  0  0  0  0  0  0  0
    2.6939   -8.7584    4.0902 H   0  0  0  0  0  0  0  0  0  0  0  0
    2.7290  -11.8407    2.3015 H   0  0  0  0  0  0  0  0  0  0  0  0
    3.5133  -11.7647    3.8474 H   0  0  0  0  0  0  0  0  0  0  0  0
    3.6607  -10.4135    2.7122 H   0  0  0  0  0  0  0  0  0  0  0  0
    0.7785  -12.5169    3.6213 H   0  0  0  0  0  0  0  0  0  0  0  0
   -0.1292  -11.4113    4.5871 H   0  0  0  0  0  0  0  0  0  0  0  0
    1.3676  -12.0888    5.2123 H   0  0  0  0  0  0  0  0  0  0  0  0
    1.5507   -9.2127    1.9777 H   0  0  0  0  0  0  0  0  0  0  0  0
    0.5954  -10.6640    1.8082 H   0  0  0  0  0  0  0  0  0  0  0  0
   -0.8201   -8.7164    2.0773 H   0  0  0  0  0  0  0  0  0  0  0  0
   -1.0852   -9.8454    3.3547 H   0  0  0  0  0  0  0  0  0  0  0  0
    0.4479   -7.2553    3.3789 H   0  0  0  0  0  0  0  0  0  0  0  0
   -1.7403   -8.2017    4.8393 H   0  0  0  0  0  0  0  0  0  0  0  0
   -0.3437   -9.9793    5.4174 H   0  0  0  0  0  0  0  0  0  0  0  0
   -0.0694   -7.6151    7.2633 H   0  0  0  0  0  0  0  0  0  0  0  0
    5.5965   -2.5981    4.0518 H   0  0  0  0  0  0  0  0  0  0  0  0
    5.2264   -1.6975    1.8431 H   0  0  0  0  0  0  0  0  0  0  0  0
    5.3264   -4.6477    1.3781 H   0  0  0  0  0  0  0  0  0  0  0  0
    6.6081   -3.7224    2.1663 H   0  0  0  0  0  0  0  0  0  0  0  0
    6.0925   -3.3012    0.5570 H   0  0  0  0  0  0  0  0  0  0  0  0
  1  2  1  0
  1 41  1  0
  1 42  1  0
  1 43  1  0
  2 39  1  0
  2  3  1  0
  2 44  1  6
  3  4  1  0
  3 45  1  0
  3 46  1  0
  4  5  1  0
  4 47  1  0
  4 48  1  0
  5 38  1  0
  5  6  1  1
  5  9  1  0
  6  7  2  0
  6  8  1  0
  9 10  1  0
  9 49  1  0
  9 50  1  0
 10 11  1  0
 10 51  1  0
 10 52  1  0
 11 18  1  0
 11 12  1  1
 11 13  1  0
 12 53  1  0
 12 54  1  0
 12 55  1  0
 13 14  2  0
 13 38  1  0
 14 15  1  0
 14 56  1  0
 15 16  1  0
 15 57  1  0
 15 58  1  0
 16 36  1  0
 16 17  1  6
 16 18  1  0
 17 59  1  0
 17 60  1  0
 17 61  1  0
 18 19  2  0
 19 20  1  0
 19 62  1  0
 20 21  1  0
 20 63  1  0
 20 64  1  0
 21 36  1  0
 21 22  1  1
 21 23  1  0
 22 65  1  0
 23 24  1  0
 23 25  1  0
 23 66  1  6
 24 67  1  0
 25 26  1  0
 25 68  1  0
 25 69  1  0
 26 34  1  0
 26 27  1  0
 26 70  1  6
 27 28  1  0
 27 29  1  0
 27 30  1  0
 28 71  1  0
 28 72  1  0
 28 73  1  0
 29 74  1  0
 29 75  1  0
 29 76  1  0
 30 31  1  0
 30 77  1  0
 30 78  1  0
 31 32  1  0
 31 79  1  0
 31 80  1  0
 32 33  1  0
 32 34  1  0
 32 81  1  6
 33 82  1  0
 34 35  1  1
 34 36  1  0
 35 83  1  0
 36 37  1  1
 37 84  1  0
 38 39  1  0
 38 85  1  1
 39 40  1  0
 39 86  1  1
 40 87  1  0
 40 88  1  0
 40 89  1  0
M  CHG  1   8  -1
M  END
>  <i_m_ct_stereo_status>  (279) 
1

>  <s_m_source_file>  (279) 
/var/tmp/pbs.5076255.sched01/tmpo609hgx5/90rinj4u0e.sdf

>  <i_m_source_file_index>  (279) 
27

>  <i_lp_mmshare_version>  (279) 
48012

>  <i_f3d_flags>  (279) 
0

>  <s_epik_input>  (279) 
W0NIMl0xW0NIMl1bQ0BASF0oW0NIM10pW0NASF0oW0NIM10pW0NAQEhdKFtDQEBdMTJDKD1PKVtPSF0pQz0zW0NAQF0oW0NIM10pKFtDSDJdW0NIMl0yKUM9NFtDQEBdKFtDSDNdKShbQ0gyXVtDSF0zKVtDQF01KFtPSF0pW0NAXShbT0hdKShbQ0gyXVtDSF00KVtDQEBIXShbT0hdKVtDSDJdW0NAQEhdNltDQF01KFtPSF0pW0NASF0oW09IXSlbQ0gyXVtDSDJdQzYoW0NIM10pW0NIM10=

>  <s_epik_cmdline>  (279) 
J2VwaWtfcHl0aG9uJywgJy1waHQnLCAnMi4wJywgJy1waCcsICc3LjAnLCAnLXRuJywgJzgnLCAnLW1hJywgJzIwMCcsICctaW1hZScsICc8aW5maWxlLm1hZT4nLCAnLW9tYWUnLCAnPG91dGZpbGUubWFlPic=

>  <r_epik_Ionization_Penalty>  (279) 
0.00595265

>  <r_epik_Ionization_Penalty_Charging>  (279) 
0.00595154

>  <r_epik_Ionization_Penalty_Neutral>  (279) 
1.11771e-06

>  <r_epik_State_Penalty>  (279) 
0.00437848

>  <r_epik_Charging_Adjusted_Penalty>  (279) 
0.01033

>  <i_epik_Tot_Q>  (279) 
-1

>  <i_epik_Tot_abs_Q>  (279) 
1

>  <s_lp_Force_Field>  (279) 
OPLS3e

>  <r_lp_Energy>  (279) 
111.354

>  <b_lp_Chiralities_Consistent>  (279) 
1

>  <s_lp_Variant>  (279) 
74:0-1

>  <s_i_glide_gridfile>  (279) 
pfpi4k_grid

>  <i_i_glide_lignum>  (279) 
27

>  <i_i_glide_rotatable_bonds>  (279) 
6

>  <r_i_docking_score>  (279) 
-2.48284

>  <r_i_glide_ligand_efficiency>  (279) 
-0.062071

>  <r_i_glide_ligand_efficiency_sa>  (279) 
-0.21228

>  <r_i_glide_ligand_efficiency_ln>  (279) 
-0.529517

>  <r_i_glide_gscore>  (279) 
-2.48284

>  <r_i_glide_lipo>  (279) 
-0.298676

>  <r_i_glide_hbond>  (279) 
0

>  <r_i_glide_metal>  (279) 
-0

>  <r_i_glide_rewards>  (279) 
-0.0728806

>  <r_i_glide_evdw>  (279) 
-29.0183

>  <r_i_glide_ecoul>  (279) 
-4.40246

>  <r_i_glide_erotb>  (279) 
0

>  <r_i_glide_esite>  (279) 
0

>  <r_i_glide_emodel>  (279) 
-38.0578

>  <r_i_glide_energy>  (279) 
-33.4208

>  <r_i_glide_einternal>  (279) 
1.80287

>  <r_i_glide_intrahb_reward>  (279) 
-0

>  <i_i_glide_confnum>  (279) 
2

>  <i_i_glide_posenum>  (279) 
12

>  <r_i_glide_eff_state_penalty>  (279) 
0

>  <ligand_id>  (279) 
74

>  <original_smiles>  (279) 
CC1CCC2(C(=O)O)CCC3(C)C(=CCC4(C)C3=CCC3(O)C(O)CC5C(C)(C)CCC(O)C5(O)C43O)C2C1C

>  <smiles>  (279) 
[H]OC1([H])C([H])([H])C2([H])C(O[H])(C([H])(O[H])C([H])([H])C([H])([H])C2(C([H])([H])[H])C([H])([H])[H])C2(O[H])C1(O[H])C([H])([H])C([H])=C1C3(C([H])([H])[H])C(=C([H])C([H])([H])C12C([H])([H])[H])C1([H])C([H])(C([H])([H])[H])C([H])(C([H])([H])[H])C([H])([H])C([H])([H])C1(C(=O)[O-])C([H])([H])C3([H])[H]

$$$$
74:0:1
     RDKit          3D

 89 94  0  0  1  0  0  0  0  0999 V2000
    2.9211   -0.1324    1.3060 C   0  0  0  0  0  0  0  0  0  0  0  0
    3.0938   -0.6137    2.7557 C   0  0  2  0  0  0  0  0  0  0  0  0
    2.5271    0.4270    3.7401 C   0  0  0  0  0  0  0  0  0  0  0  0
    2.6986   -0.0130    5.2108 C   0  0  0  0  0  0  0  0  0  0  0  0
    4.1801   -0.3051    5.5938 C   0  0  1  0  0  0  0  0  0  0  0  0
    5.0176    1.0033    5.5223 C   0  0  0  0  0  0  0  0  0  0  0  0
    6.2436    0.9045    5.2914 O   0  0  0  0  0  0  0  0  0  0  0  0
    4.4405    2.0862    5.7626 O   0  0  0  0  0  0  0  0  0  0  0  0
    4.3120   -0.7414    7.0754 C   0  0  0  0  0  0  0  0  0  0  0  0
    3.7562   -2.1402    7.3747 C   0  0  0  0  0  0  0  0  0  0  0  0
    4.3493   -3.2426    6.4686 C   0  0  2  0  0  0  0  0  0  0  0  0
    5.8743   -3.3840    6.7570 C   0  0  0  0  0  0  0  0  0  0  0  0
    4.1901   -2.8196    4.9873 C   0  0  0  0  0  0  0  0  0  0  0  0
    3.6140   -3.6571    4.1091 C   0  0  0  0  0  0  0  0  0  0  0  0
    3.0448   -5.0078    4.4666 C   0  0  0  0  0  0  0  0  0  0  0  0
    2.4632   -5.0817    5.9051 C   0  0  2  0  0  0  0  0  0  0  0  0
    1.3265   -4.0096    6.0175 C   0  0  0  0  0  0  0  0  0  0  0  0
    3.6305   -4.5897    6.8176 C   0  0  0  0  0  0  0  0  0  0  0  0
    4.0738   -5.3305    7.8494 C   0  0  0  0  0  0  0  0  0  0  0  0
    3.5803   -6.6890    8.2387 C   0  0  0  0  0  0  0  0  0  0  0  0
    2.9191   -7.4493    7.0786 C   0  0  2  0  0  0  0  0  0  0  0  0
    2.3689   -8.5436    7.8041 O   0  0  0  0  0  0  0  0  0  0  0  0
    3.9238   -8.0602    6.0706 C   0  0  1  0  0  0  0  0  0  0  0  0
    4.8984   -8.8715    6.6941 O   0  0  0  0  0  0  0  0  0  0  0  0
    3.2138   -8.9200    5.0079 C   0  0  0  0  0  0  0  0  0  0  0  0
    2.0933   -8.1665    4.2477 C   0  0  1  0  0  0  0  0  0  0  0  0
    1.4506   -8.9900    3.0702 C   0  0  0  0  0  0  0  0  0  0  0  0
    2.5376   -9.4238    2.0603 C   0  0  0  0  0  0  0  0  0  0  0  0
    0.7164  -10.2849    3.5115 C   0  0  0  0  0  0  0  0  0  0  0  0
    0.4801   -8.0520    2.3202 C   0  0  0  0  0  0  0  0  0  0  0  0
   -0.6081   -7.4572    3.2109 C   0  0  0  0  0  0  0  0  0  0  0  0
   -0.0033   -6.6583    4.3759 C   0  0  1  0  0  0  0  0  0  0  0  0
   -1.0741   -6.2500    5.1985 O   0  0  0  0  0  0  0  0  0  0  0  0
    1.0835   -7.4226    5.2052 C   0  0  1  0  0  0  0  0  0  0  0  0
    0.3099   -8.4163    5.8670 O   0  0  0  0  0  0  0  0  0  0  0  0
    1.8568   -6.5461    6.3245 C   0  0  2  0  0  0  0  0  0  0  0  0
    0.8801   -6.2655    7.3253 O   0  0  0  0  0  0  0  0  0  0  0  0
    4.7304   -1.4045    4.6169 C   0  0  1  0  0  0  0  0  0  0  0  0
    4.5696   -0.9237    3.1284 C   0  0  1  0  0  0  0  0  0  0  0  0
    5.3689   -1.7361    2.0883 C   0  0  0  0  0  0  0  0  0  0  0  0
    3.5193    0.7571    1.0982 H   0  0  0  0  0  0  0  0  0  0  0  0
    1.8777    0.1160    1.1107 H   0  0  0  0  0  0  0  0  0  0  0  0
    3.1949   -0.9108    0.5926 H   0  0  0  0  0  0  0  0  0  0  0  0
    2.4881   -1.5101    2.8610 H   0  0  0  0  0  0  0  0  0  0  0  0
    3.0082    1.3952    3.5763 H   0  0  0  0  0  0  0  0  0  0  0  0
    1.4681    0.5813    3.5392 H   0  0  0  0  0  0  0  0  0  0  0  0
    2.2740    0.7498    5.8665 H   0  0  0  0  0  0  0  0  0  0  0  0
    2.1000   -0.9078    5.3696 H   0  0  0  0  0  0  0  0  0  0  0  0
    5.3608   -0.7058    7.3809 H   0  0  0  0  0  0  0  0  0  0  0  0
    3.8045   -0.0194    7.7196 H   0  0  0  0  0  0  0  0  0  0  0  0
    3.9477   -2.3828    8.4214 H   0  0  0  0  0  0  0  0  0  0  0  0
    2.6708   -2.1033    7.2876 H   0  0  0  0  0  0  0  0  0  0  0  0
    6.2920   -4.2391    6.2223 H   0  0  0  0  0  0  0  0  0  0  0  0
    6.1049   -3.4975    7.8150 H   0  0  0  0  0  0  0  0  0  0  0  0
    6.4499   -2.5149    6.4532 H   0  0  0  0  0  0  0  0  0  0  0  0
    3.4998   -3.4106    3.0732 H   0  0  0  0  0  0  0  0  0  0  0  0
    2.3043   -5.1984    3.7021 H   0  0  0  0  0  0  0  0  0  0  0  0
    3.8538   -5.7137    4.3164 H   0  0  0  0  0  0  0  0  0  0  0  0
    0.3984   -4.2963    5.5324 H   0  0  0  0  0  0  0  0  0  0  0  0
    1.5913   -3.0595    5.5657 H   0  0  0  0  0  0  0  0  0  0  0  0
    1.0846   -3.7899    7.0605 H   0  0  0  0  0  0  0  0  0  0  0  0
    4.8601   -4.9855    8.5047 H   0  0  0  0  0  0  0  0  0  0  0  0
    4.4242   -7.2575    8.6343 H   0  0  0  0  0  0  0  0  0  0  0  0
    2.8862   -6.5578    9.0718 H   0  0  0  0  0  0  0  0  0  0  0  0
    2.0949   -9.2268    7.2094 H   0  0  0  0  0  0  0  0  0  0  0  0
    4.4741   -7.2573    5.5901 H   0  0  0  0  0  0  0  0  0  0  0  0
    4.4519   -9.5996    7.1080 H   0  0  0  0  0  0  0  0  0  0  0  0
    3.9788   -9.2218    4.2941 H   0  0  0  0  0  0  0  0  0  0  0  0
    2.8280   -9.8400    5.4544 H   0  0  0  0  0  0  0  0  0  0  0  0
    2.6275   -7.3934    3.7117 H   0  0  0  0  0  0  0  0  0  0  0  0
    2.0862   -9.8290    1.1552 H   0  0  0  0  0  0  0  0  0  0  0  0
    3.1782  -10.2089    2.4631 H   0  0  0  0  0  0  0  0  0  0  0  0
    3.1723   -8.5891    1.7628 H   0  0  0  0  0  0  0  0  0  0  0  0
    0.4296  -10.8855    2.6398 H   0  0  0  0  0  0  0  0  0  0  0  0
   -0.1994  -10.0781    4.0649 H   0  0  0  0  0  0  0  0  0  0  0  0
    1.3440  -10.9126    4.1506 H   0  0  0  0  0  0  0  0  0  0  0  0
    1.0401   -7.2404    1.8572 H   0  0  0  0  0  0  0  0  0  0  0  0
   -0.0054   -8.5882    1.5122 H   0  0  0  0  0  0  0  0  0  0  0  0
   -1.2341   -6.7984    2.6119 H   0  0  0  0  0  0  0  0  0  0  0  0
   -1.2779   -8.2384    3.5722 H   0  0  0  0  0  0  0  0  0  0  0  0
    0.3991   -5.7530    3.9405 H   0  0  0  0  0  0  0  0  0  0  0  0
   -0.6936   -5.9641    6.0262 H   0  0  0  0  0  0  0  0  0  0  0  0
    0.8489   -9.1801    5.9994 H   0  0  0  0  0  0  0  0  0  0  0  0
    1.3476   -5.9633    8.0913 H   0  0  0  0  0  0  0  0  0  0  0  0
    5.8027   -1.4638    4.7708 H   0  0  0  0  0  0  0  0  0  0  0  0
    5.0753    0.0410    3.0721 H   0  0  0  0  0  0  0  0  0  0  0  0
    4.8803   -2.6524    1.7654 H   0  0  0  0  0  0  0  0  0  0  0  0
    6.3525   -1.9942    2.4784 H   0  0  0  0  0  0  0  0  0  0  0  0
    5.5397   -1.1352    1.1923 H   0  0  0  0  0  0  0  0  0  0  0  0
  1  2  1  0
  1 41  1  0
  1 42  1  0
  1 43  1  0
  2 39  1  0
  2  3  1  0
  2 44  1  6
  3  4  1  0
  3 45  1  0
  3 46  1  0
  4  5  1  0
  4 47  1  0
  4 48  1  0
  5 38  1  0
  5  6  1  1
  5  9  1  0
  6  7  2  0
  6  8  1  0
  9 10  1  0
  9 49  1  0
  9 50  1  0
 10 11  1  0
 10 51  1  0
 10 52  1  0
 11 18  1  0
 11 12  1  1
 11 13  1  0
 12 53  1  0
 12 54  1  0
 12 55  1  0
 13 14  2  0
 13 38  1  0
 14 15  1  0
 14 56  1  0
 15 16  1  0
 15 57  1  0
 15 58  1  0
 16 36  1  0
 16 17  1  6
 16 18  1  0
 17 59  1  0
 17 60  1  0
 17 61  1  0
 18 19  2  0
 19 20  1  0
 19 62  1  0
 20 21  1  0
 20 63  1  0
 20 64  1  0
 21 36  1  0
 21 22  1  1
 21 23  1  0
 22 65  1  0
 23 24  1  0
 23 25  1  0
 23 66  1  6
 24 67  1  0
 25 26  1  0
 25 68  1  0
 25 69  1  0
 26 34  1  0
 26 27  1  0
 26 70  1  6
 27 28  1  0
 27 29  1  0
 27 30  1  0
 28 71  1  0
 28 72  1  0
 28 73  1  0
 29 74  1  0
 29 75  1  0
 29 76  1  0
 30 31  1  0
 30 77  1  0
 30 78  1  0
 31 32  1  0
 31 79  1  0
 31 80  1  0
 32 33  1  0
 32 34  1  0
 32 81  1  6
 33 82  1  0
 34 35  1  1
 34 36  1  0
 35 83  1  0
 36 37  1  1
 37 84  1  0
 38 39  1  0
 38 85  1  1
 39 40  1  0
 39 86  1  1
 40 87  1  0
 40 88  1  0
 40 89  1  0
M  CHG  1   8  -1
M  END
>  <i_m_ct_stereo_status>  (280) 
1

>  <s_m_source_file>  (280) 
/var/tmp/pbs.5076255.sched01/tmpo609hgx5/90rinj4u0e.sdf

>  <i_m_source_file_index>  (280) 
27

>  <i_lp_mmshare_version>  (280) 
48012

>  <i_f3d_flags>  (280) 
0

>  <s_epik_input>  (280) 
W0NIMl0xW0NIMl1bQ0BASF0oW0NIM10pW0NASF0oW0NIM10pW0NAQEhdKFtDQEBdMTJDKD1PKVtPSF0pQz0zW0NAQF0oW0NIM10pKFtDSDJdW0NIMl0yKUM9NFtDQEBdKFtDSDNdKShbQ0gyXVtDSF0zKVtDQF01KFtPSF0pW0NAXShbT0hdKShbQ0gyXVtDSF00KVtDQEBIXShbT0hdKVtDSDJdW0NAQEhdNltDQF01KFtPSF0pW0NASF0oW09IXSlbQ0gyXVtDSDJdQzYoW0NIM10pW0NIM10=

>  <s_epik_cmdline>  (280) 
J2VwaWtfcHl0aG9uJywgJy1waHQnLCAnMi4wJywgJy1waCcsICc3LjAnLCAnLXRuJywgJzgnLCAnLW1hJywgJzIwMCcsICctaW1hZScsICc8aW5maWxlLm1hZT4nLCAnLW9tYWUnLCAnPG91dGZpbGUubWFlPic=

>  <r_epik_Ionization_Penalty>  (280) 
0.00595265

>  <r_epik_Ionization_Penalty_Charging>  (280) 
0.00595154

>  <r_epik_Ionization_Penalty_Neutral>  (280) 
1.11771e-06

>  <r_epik_State_Penalty>  (280) 
0.00437848

>  <r_epik_Charging_Adjusted_Penalty>  (280) 
0.01033

>  <i_epik_Tot_Q>  (280) 
-1

>  <i_epik_Tot_abs_Q>  (280) 
1

>  <s_lp_Force_Field>  (280) 
OPLS3e

>  <r_lp_Energy>  (280) 
111.354

>  <b_lp_Chiralities_Consistent>  (280) 
1

>  <s_lp_Variant>  (280) 
74:0-1

>  <s_i_glide_gridfile>  (280) 
pfpi4k_grid

>  <i_i_glide_lignum>  (280) 
27

>  <i_i_glide_rotatable_bonds>  (280) 
6

>  <r_i_docking_score>  (280) 
-2.40887

>  <r_i_glide_ligand_efficiency>  (280) 
-0.0602219

>  <r_i_glide_ligand_efficiency_sa>  (280) 
-0.205956

>  <r_i_glide_ligand_efficiency_ln>  (280) 
-0.513742

>  <r_i_glide_gscore>  (280) 
-2.40887

>  <r_i_glide_lipo>  (280) 
-0.206143

>  <r_i_glide_hbond>  (280) 
0

>  <r_i_glide_metal>  (280) 
-0

>  <r_i_glide_rewards>  (280) 
-0.534314

>  <r_i_glide_evdw>  (280) 
-26.895

>  <r_i_glide_ecoul>  (280) 
-2.15778

>  <r_i_glide_erotb>  (280) 
0

>  <r_i_glide_esite>  (280) 
0

>  <r_i_glide_emodel>  (280) 
-39.1365

>  <r_i_glide_energy>  (280) 
-29.0528

>  <r_i_glide_einternal>  (280) 
0.720257

>  <r_i_glide_intrahb_reward>  (280) 
-0.5

>  <i_i_glide_confnum>  (280) 
2

>  <i_i_glide_posenum>  (280) 
1

>  <r_i_glide_eff_state_penalty>  (280) 
0

>  <ligand_id>  (280) 
74

>  <original_smiles>  (280) 
CC1CCC2(C(=O)O)CCC3(C)C(=CCC4(C)C3=CCC3(O)C(O)CC5C(C)(C)CCC(O)C5(O)C43O)C2C1C

>  <smiles>  (280) 
[H]OC1([H])C([H])([H])C2([H])C(O[H])(C([H])(O[H])C([H])([H])C([H])([H])C2(C([H])([H])[H])C([H])([H])[H])C2(O[H])C1(O[H])C([H])([H])C([H])=C1C3(C([H])([H])[H])C(=C([H])C([H])([H])C12C([H])([H])[H])C1([H])C([H])(C([H])([H])[H])C([H])(C([H])([H])[H])C([H])([H])C([H])([H])C1(C(=O)[O-])C([H])([H])C3([H])[H]

$$$$
74:0:2
     RDKit          3D

 89 94  0  0  1  0  0  0  0  0999 V2000
   -1.7824    0.7638    5.1614 C   0  0  0  0  0  0  0  0  0  0  0  0
   -0.3720    0.2656    5.5053 C   0  0  2  0  0  0  0  0  0  0  0  0
    0.0209    0.7169    6.9256 C   0  0  0  0  0  0  0  0  0  0  0  0
    1.4435    0.2561    7.3045 C   0  0  0  0  0  0  0  0  0  0  0  0
    2.5364    0.7453    6.3063 C   0  0  1  0  0  0  0  0  0  0  0  0
    2.6526    2.2968    6.3529 C   0  0  0  0  0  0  0  0  0  0  0  0
    2.2946    2.8884    7.3962 O   0  0  0  0  0  0  0  0  0  0  0  0
    3.1476    2.8756    5.3570 O   0  0  0  0  0  0  0  0  0  0  0  0
    3.9465    0.2536    6.7181 C   0  0  0  0  0  0  0  0  0  0  0  0
    4.1695   -1.2533    6.5382 C   0  0  0  0  0  0  0  0  0  0  0  0
    3.8510   -1.7576    5.1111 C   0  0  2  0  0  0  0  0  0  0  0  0
    4.8323   -1.1079    4.1005 C   0  0  0  0  0  0  0  0  0  0  0  0
    2.4353   -1.2955    4.7117 C   0  0  0  0  0  0  0  0  0  0  0  0
    1.5432   -2.1917    4.2503 C   0  0  0  0  0  0  0  0  0  0  0  0
    1.8098   -3.6736    4.1346 C   0  0  0  0  0  0  0  0  0  0  0  0
    2.7802   -4.2224    5.2165 C   0  0  2  0  0  0  0  0  0  0  0  0
    2.1514   -3.9375    6.6190 C   0  0  0  0  0  0  0  0  0  0  0  0
    4.0380   -3.3179    5.1002 C   0  0  0  0  0  0  0  0  0  0  0  0
    5.2674   -3.8399    4.9151 C   0  0  0  0  0  0  0  0  0  0  0  0
    5.5972   -5.2967    4.7600 C   0  0  0  0  0  0  0  0  0  0  0  0
    4.4080   -6.1283    4.2571 C   0  0  2  0  0  0  0  0  0  0  0  0
    4.8855   -7.4611    4.4133 O   0  0  0  0  0  0  0  0  0  0  0  0
    4.1263   -5.9853    2.7438 C   0  0  1  0  0  0  0  0  0  0  0  0
    5.2671   -6.2432    1.9515 O   0  0  0  0  0  0  0  0  0  0  0  0
    3.0129   -6.9398    2.2763 C   0  0  0  0  0  0  0  0  0  0  0  0
    1.6952   -6.7885    3.0773 C   0  0  1  0  0  0  0  0  0  0  0  0
    0.5151   -7.6770    2.5413 C   0  0  0  0  0  0  0  0  0  0  0  0
    0.2326   -7.3189    1.0774 C   0  0  0  0  0  0  0  0  0  0  0  0
    0.7623   -9.2090    2.6040 C   0  0  0  0  0  0  0  0  0  0  0  0
   -0.7592   -7.3235    3.3174 C   0  0  0  0  0  0  0  0  0  0  0  0
   -0.6064   -7.5000    4.8196 C   0  0  0  0  0  0  0  0  0  0  0  0
    0.5523   -6.6673    5.3928 C   0  0  1  0  0  0  0  0  0  0  0  0
    0.6531   -7.0179    6.7577 O   0  0  0  0  0  0  0  0  0  0  0  0
    1.9198   -6.8144    4.6320 C   0  0  1  0  0  0  0  0  0  0  0  0
    2.3526   -8.1370    4.9188 O   0  0  0  0  0  0  0  0  0  0  0  0
    3.0992   -5.8221    5.0933 C   0  0  2  0  0  0  0  0  0  0  0  0
    3.4374   -6.2650    6.4020 O   0  0  0  0  0  0  0  0  0  0  0  0
    2.1440    0.2305    4.8719 C   0  0  1  0  0  0  0  0  0  0  0  0
    0.7097    0.7375    4.4928 C   0  0  1  0  0  0  0  0  0  0  0  0
    0.3435    0.6079    2.9961 C   0  0  0  0  0  0  0  0  0  0  0  0
   -1.8131    1.8553    5.0944 H   0  0  0  0  0  0  0  0  0  0  0  0
   -2.4898    0.4464    5.9274 H   0  0  0  0  0  0  0  0  0  0  0  0
   -2.1164    0.3519    4.2080 H   0  0  0  0  0  0  0  0  0  0  0  0
   -0.4128   -0.8210    5.5224 H   0  0  0  0  0  0  0  0  0  0  0  0
   -0.0563    1.8053    7.0015 H   0  0  0  0  0  0  0  0  0  0  0  0
   -0.6831    0.3224    7.6559 H   0  0  0  0  0  0  0  0  0  0  0  0
    1.6768    0.5896    8.3182 H   0  0  0  0  0  0  0  0  0  0  0  0
    1.4474   -0.8320    7.3468 H   0  0  0  0  0  0  0  0  0  0  0  0
    4.7041    0.7974    6.1518 H   0  0  0  0  0  0  0  0  0  0  0  0
    4.1316    0.5183    7.7601 H   0  0  0  0  0  0  0  0  0  0  0  0
    5.2026   -1.4902    6.7955 H   0  0  0  0  0  0  0  0  0  0  0  0
    3.5726   -1.7779    7.2807 H   0  0  0  0  0  0  0  0  0  0  0  0
    4.7421   -1.5494    3.1073 H   0  0  0  0  0  0  0  0  0  0  0  0
    5.8528   -1.2061    4.4314 H   0  0  0  0  0  0  0  0  0  0  0  0
    4.7106   -0.0329    3.9896 H   0  0  0  0  0  0  0  0  0  0  0  0
    0.5631   -1.9087    3.9336 H   0  0  0  0  0  0  0  0  0  0  0  0
    0.8263   -4.1245    4.1797 H   0  0  0  0  0  0  0  0  0  0  0  0
    2.1920   -3.8211    3.1296 H   0  0  0  0  0  0  0  0  0  0  0  0
    1.3380   -4.6014    6.8865 H   0  0  0  0  0  0  0  0  0  0  0  0
    1.7350   -2.9390    6.7002 H   0  0  0  0  0  0  0  0  0  0  0  0
    2.9001   -4.0174    7.4110 H   0  0  0  0  0  0  0  0  0  0  0  0
    6.1438   -3.2171    4.8776 H   0  0  0  0  0  0  0  0  0  0  0  0
    6.4422   -5.3881    4.0768 H   0  0  0  0  0  0  0  0  0  0  0  0
    5.9464   -5.6559    5.7305 H   0  0  0  0  0  0  0  0  0  0  0  0
    4.1500   -8.0486    4.2555 H   0  0  0  0  0  0  0  0  0  0  0  0
    3.8503   -4.9581    2.5347 H   0  0  0  0  0  0  0  0  0  0  0  0
    5.5553   -7.1302    2.1390 H   0  0  0  0  0  0  0  0  0  0  0  0
    2.8267   -6.7087    1.2301 H   0  0  0  0  0  0  0  0  0  0  0  0
    3.3659   -7.9732    2.3048 H   0  0  0  0  0  0  0  0  0  0  0  0
    1.3607   -5.7903    2.8386 H   0  0  0  0  0  0  0  0  0  0  0  0
   -0.6881   -7.7890    0.7361 H   0  0  0  0  0  0  0  0  0  0  0  0
    1.0206   -7.7034    0.4450 H   0  0  0  0  0  0  0  0  0  0  0  0
    0.1484   -6.2546    0.8979 H   0  0  0  0  0  0  0  0  0  0  0  0
   -0.0185   -9.7517    2.0632 H   0  0  0  0  0  0  0  0  0  0  0  0
    0.7436   -9.6112    3.6183 H   0  0  0  0  0  0  0  0  0  0  0  0
    1.7191   -9.4907    2.1558 H   0  0  0  0  0  0  0  0  0  0  0  0
   -1.0026   -6.2817    3.1401 H   0  0  0  0  0  0  0  0  0  0  0  0
   -1.6079   -7.9086    2.9607 H   0  0  0  0  0  0  0  0  0  0  0  0
   -1.5372   -7.1487    5.2681 H   0  0  0  0  0  0  0  0  0  0  0  0
   -0.5167   -8.5531    5.0860 H   0  0  0  0  0  0  0  0  0  0  0  0
    0.2093   -5.6396    5.3713 H   0  0  0  0  0  0  0  0  0  0  0  0
    1.4479   -6.6166    7.1012 H   0  0  0  0  0  0  0  0  0  0  0  0
    1.6281   -8.7133    4.7288 H   0  0  0  0  0  0  0  0  0  0  0  0
    3.6961   -7.1759    6.2947 H   0  0  0  0  0  0  0  0  0  0  0  0
    2.7996    0.7227    4.1584 H   0  0  0  0  0  0  0  0  0  0  0  0
    0.7406    1.8209    4.6004 H   0  0  0  0  0  0  0  0  0  0  0  0
   -0.0118   -0.3770    2.7098 H   0  0  0  0  0  0  0  0  0  0  0  0
    1.1962    0.8596    2.3615 H   0  0  0  0  0  0  0  0  0  0  0  0
   -0.4470    1.3158    2.7395 H   0  0  0  0  0  0  0  0  0  0  0  0
  1  2  1  0
  1 41  1  0
  1 42  1  0
  1 43  1  0
  2 39  1  0
  2  3  1  0
  2 44  1  1
  3  4  1  0
  3 45  1  0
  3 46  1  0
  4  5  1  0
  4 47  1  0
  4 48  1  0
  5 38  1  0
  5  6  1  6
  5  9  1  0
  6  7  2  0
  6  8  1  0
  9 10  1  0
  9 49  1  0
  9 50  1  0
 10 11  1  0
 10 51  1  0
 10 52  1  0
 11 18  1  0
 11 12  1  6
 11 13  1  0
 12 53  1  0
 12 54  1  0
 12 55  1  0
 13 14  2  0
 13 38  1  0
 14 15  1  0
 14 56  1  0
 15 16  1  0
 15 57  1  0
 15 58  1  0
 16 36  1  0
 16 17  1  1
 16 18  1  0
 17 59  1  0
 17 60  1  0
 17 61  1  0
 18 19  2  0
 19 20  1  0
 19 62  1  0
 20 21  1  0
 20 63  1  0
 20 64  1  0
 21 36  1  0
 21 22  1  6
 21 23  1  0
 22 65  1  0
 23 24  1  0
 23 25  1  0
 23 66  1  1
 24 67  1  0
 25 26  1  0
 25 68  1  0
 25 69  1  0
 26 34  1  0
 26 27  1  0
 26 70  1  1
 27 28  1  0
 27 29  1  0
 27 30  1  0
 28 71  1  0
 28 72  1  0
 28 73  1  0
 29 74  1  0
 29 75  1  0
 29 76  1  0
 30 31  1  0
 30 77  1  0
 30 78  1  0
 31 32  1  0
 31 79  1  0
 31 80  1  0
 32 33  1  0
 32 34  1  0
 32 81  1  1
 33 82  1  0
 34 35  1  6
 34 36  1  0
 35 83  1  0
 36 37  1  1
 37 84  1  0
 38 39  1  0
 38 85  1  6
 39 40  1  0
 39 86  1  1
 40 87  1  0
 40 88  1  0
 40 89  1  0
M  CHG  1   8  -1
M  END
>  <i_m_ct_stereo_status>  (281) 
1

>  <s_m_source_file>  (281) 
/var/tmp/pbs.5076255.sched01/tmpo609hgx5/90rinj4u0e.sdf

>  <i_m_source_file_index>  (281) 
27

>  <i_lp_mmshare_version>  (281) 
48012

>  <i_f3d_flags>  (281) 
0

>  <s_epik_input>  (281) 
W0NIMl0xW0NIMl1bQ0BASF0oW0NIM10pW0NASF0oW0NIM10pW0NAQEhdKFtDQEBdMTJDKD1PKVtPSF0pQz0zW0NAQF0oW0NIM10pKFtDSDJdW0NIMl0yKUM9NFtDQEBdKFtDSDNdKShbQ0gyXVtDSF0zKVtDQF01KFtPSF0pW0NAXShbT0hdKShbQ0gyXVtDSF00KVtDQEBIXShbT0hdKVtDSDJdW0NAQEhdNltDQF01KFtPSF0pW0NASF0oW09IXSlbQ0gyXVtDSDJdQzYoW0NIM10pW0NIM10=

>  <s_epik_cmdline>  (281) 
J2VwaWtfcHl0aG9uJywgJy1waHQnLCAnMi4wJywgJy1waCcsICc3LjAnLCAnLXRuJywgJzgnLCAnLW1hJywgJzIwMCcsICctaW1hZScsICc8aW5maWxlLm1hZT4nLCAnLW9tYWUnLCAnPG91dGZpbGUubWFlPic=

>  <r_epik_Ionization_Penalty>  (281) 
0.00595265

>  <r_epik_Ionization_Penalty_Charging>  (281) 
0.00595154

>  <r_epik_Ionization_Penalty_Neutral>  (281) 
1.11771e-06

>  <r_epik_State_Penalty>  (281) 
0.00437848

>  <r_epik_Charging_Adjusted_Penalty>  (281) 
0.01033

>  <i_epik_Tot_Q>  (281) 
-1

>  <i_epik_Tot_abs_Q>  (281) 
1

>  <s_lp_Force_Field>  (281) 
OPLS3e

>  <r_lp_Energy>  (281) 
111.354

>  <b_lp_Chiralities_Consistent>  (281) 
1

>  <s_lp_Variant>  (281) 
74:0-1

>  <s_i_glide_gridfile>  (281) 
pfpi4k_grid

>  <i_i_glide_lignum>  (281) 
27

>  <i_i_glide_rotatable_bonds>  (281) 
6

>  <r_i_docking_score>  (281) 
-2.27821

>  <r_i_glide_ligand_efficiency>  (281) 
-0.0569553

>  <r_i_glide_ligand_efficiency_sa>  (281) 
-0.194784

>  <r_i_glide_ligand_efficiency_ln>  (281) 
-0.485875

>  <r_i_glide_gscore>  (281) 
-2.27821

>  <r_i_glide_lipo>  (281) 
-0.0790234

>  <r_i_glide_hbond>  (281) 
0

>  <r_i_glide_metal>  (281) 
-0

>  <r_i_glide_rewards>  (281) 
-1

>  <r_i_glide_evdw>  (281) 
-25.7517

>  <r_i_glide_ecoul>  (281) 
0.589317

>  <r_i_glide_erotb>  (281) 
0

>  <r_i_glide_esite>  (281) 
0

>  <r_i_glide_emodel>  (281) 
-40.1119

>  <r_i_glide_energy>  (281) 
-25.1624

>  <r_i_glide_einternal>  (281) 
0.626364

>  <r_i_glide_intrahb_reward>  (281) 
-1

>  <i_i_glide_confnum>  (281) 
2

>  <i_i_glide_posenum>  (281) 
9

>  <r_i_glide_eff_state_penalty>  (281) 
0

>  <ligand_id>  (281) 
74

>  <original_smiles>  (281) 
CC1CCC2(C(=O)O)CCC3(C)C(=CCC4(C)C3=CCC3(O)C(O)CC5C(C)(C)CCC(O)C5(O)C43O)C2C1C

>  <smiles>  (281) 
[H]OC1([H])C([H])([H])C2([H])C(O[H])(C([H])(O[H])C([H])([H])C([H])([H])C2(C([H])([H])[H])C([H])([H])[H])C2(O[H])C1(O[H])C([H])([H])C([H])=C1C3(C([H])([H])[H])C(=C([H])C([H])([H])C12C([H])([H])[H])C1([H])C([H])(C([H])([H])[H])C([H])(C([H])([H])[H])C([H])([H])C([H])([H])C1(C(=O)[O-])C([H])([H])C3([H])[H]

$$$$
75:0:0
     RDKit          3D

 67 73  0  0  1  0  0  0  0  0999 V2000
    3.3582   -2.1125    0.8676 C   0  0  0  0  0  0  0  0  0  0  0  0
    4.1089   -3.4330    0.7856 C   0  0  0  0  0  0  0  0  0  0  0  0
    4.1144   -3.8148   -0.6972 C   0  0  0  0  0  0  0  0  0  0  0  0
    5.2602   -3.6522    1.7123 C   0  0  2  0  0  0  0  0  0  0  0  0
    6.6289   -4.3691    1.3398 C   0  0  0  0  0  0  0  0  0  0  0  0
    7.1593   -5.6893    2.0935 C   0  0  0  0  0  0  0  0  0  0  0  0
    6.2753   -6.9922    2.0682 C   0  0  1  0  0  0  0  0  0  0  0  0
    6.8957   -8.0615    1.3071 O   0  0  0  0  0  0  0  0  0  0  0  0
    6.3856   -9.0510    2.2292 C   0  0  0  0  0  0  0  0  0  0  0  0
    5.9348   -7.9760    3.2366 C   0  0  1  0  0  0  0  0  0  0  0  0
    6.8182   -7.9234    4.3387 O   0  0  0  0  0  0  0  0  0  0  0  0
    4.4179   -8.0004    3.8249 C   0  0  2  0  0  0  0  0  0  0  0  0
    3.9318   -9.4519    4.0810 C   0  0  0  0  0  0  0  0  0  0  0  0
    2.4502   -9.6888    4.4002 C   0  0  1  0  0  0  0  0  0  0  0  0
    1.7354   -8.6996    5.3454 C   0  0  0  0  0  0  0  0  0  0  0  0
    0.4997   -8.2349    4.5527 C   0  0  2  0  0  0  0  0  0  0  0  0
    0.1848   -9.4612    3.6983 C   0  0  0  0  0  0  0  0  0  0  0  0
    1.5679   -9.7720    3.1489 C   0  0  1  0  0  0  0  0  0  0  0  0
    1.9443   -8.7249    2.0777 C   0  0  0  0  0  0  0  0  0  0  0  0
    1.9807   -7.2493    2.5943 C   0  0  1  0  0  0  0  0  0  0  0  0
    1.6832   -6.3709    1.3433 C   0  0  0  0  0  0  0  0  0  0  0  0
    0.7890   -7.0201    3.6269 C   0  0  1  0  0  0  0  0  0  0  0  0
   -0.4476   -6.6950    3.0007 O   0  0  0  0  0  0  0  0  0  0  0  0
    3.3793   -6.8462    3.2810 C   0  0  2  0  0  0  0  0  0  0  0  0
    4.2942   -5.7369    2.6070 C   0  0  2  0  0  0  0  0  0  0  0  0
    4.9997   -5.1891    3.9589 C   0  0  0  0  0  0  0  0  0  0  0  0
    3.8823   -4.3723    2.0100 C   0  0  2  0  0  0  0  0  0  0  0  0
    4.9767   -6.6402    1.5140 C   0  0  1  0  0  0  0  0  0  0  0  0
    5.0024   -6.3307    0.1491 O   0  0  0  0  0  0  0  0  0  0  0  0
    3.8392   -1.3490    0.2540 H   0  0  0  0  0  0  0  0  0  0  0  0
    3.3165   -1.7412    1.8926 H   0  0  0  0  0  0  0  0  0  0  0  0
    2.3350   -2.2483    0.5111 H   0  0  0  0  0  0  0  0  0  0  0  0
    5.0342   -4.2895   -1.0212 H   0  0  0  0  0  0  0  0  0  0  0  0
    4.0457   -2.9250   -1.3268 H   0  0  0  0  0  0  0  0  0  0  0  0
    3.2536   -4.4457   -0.9193 H   0  0  0  0  0  0  0  0  0  0  0  0
    5.4615   -2.7911    2.3498 H   0  0  0  0  0  0  0  0  0  0  0  0
    6.6905   -4.5273    0.2681 H   0  0  0  0  0  0  0  0  0  0  0  0
    7.3940   -3.6121    1.5112 H   0  0  0  0  0  0  0  0  0  0  0  0
    8.1117   -5.9337    1.6277 H   0  0  0  0  0  0  0  0  0  0  0  0
    7.4552   -5.4561    3.1152 H   0  0  0  0  0  0  0  0  0  0  0  0
    5.5875   -9.6218    1.7595 H   0  0  0  0  0  0  0  0  0  0  0  0
    7.1743   -9.7066    2.6001 H   0  0  0  0  0  0  0  0  0  0  0  0
    7.6911   -7.8895    3.9724 H   0  0  0  0  0  0  0  0  0  0  0  0
    4.5183   -7.7029    4.8684 H   0  0  0  0  0  0  0  0  0  0  0  0
    4.1684  -10.1069    3.2460 H   0  0  0  0  0  0  0  0  0  0  0  0
    4.5210   -9.8552    4.9071 H   0  0  0  0  0  0  0  0  0  0  0  0
    2.3887  -10.6720    4.8750 H   0  0  0  0  0  0  0  0  0  0  0  0
    1.4099   -9.2442    6.2336 H   0  0  0  0  0  0  0  0  0  0  0  0
    2.3552   -7.8815    5.7048 H   0  0  0  0  0  0  0  0  0  0  0  0
   -0.3238   -8.0054    5.2301 H   0  0  0  0  0  0  0  0  0  0  0  0
   -0.1732  -10.2812    4.3229 H   0  0  0  0  0  0  0  0  0  0  0  0
   -0.5596   -9.2997    2.9205 H   0  0  0  0  0  0  0  0  0  0  0  0
    1.6026  -10.7710    2.7111 H   0  0  0  0  0  0  0  0  0  0  0  0
    2.8766   -9.0095    1.5936 H   0  0  0  0  0  0  0  0  0  0  0  0
    1.1986   -8.8151    1.2886 H   0  0  0  0  0  0  0  0  0  0  0  0
    2.4590   -6.4398    0.5875 H   0  0  0  0  0  0  0  0  0  0  0  0
    0.7711   -6.6852    0.8350 H   0  0  0  0  0  0  0  0  0  0  0  0
    1.5379   -5.3266    1.6141 H   0  0  0  0  0  0  0  0  0  0  0  0
    0.9886   -6.1466    4.2495 H   0  0  0  0  0  0  0  0  0  0  0  0
   -0.8014   -7.4998    2.6504 H   0  0  0  0  0  0  0  0  0  0  0  0
    3.0320   -6.3904    4.2034 H   0  0  0  0  0  0  0  0  0  0  0  0
    5.7460   -4.4070    3.8811 H   0  0  0  0  0  0  0  0  0  0  0  0
    5.5017   -5.8932    4.6068 H   0  0  0  0  0  0  0  0  0  0  0  0
    4.2555   -4.7209    4.6046 H   0  0  0  0  0  0  0  0  0  0  0  0
    3.2047   -3.8928    2.7152 H   0  0  0  0  0  0  0  0  0  0  0  0
    4.4079   -7.5560    1.3601 H   0  0  0  0  0  0  0  0  0  0  0  0
    4.1125   -6.2425   -0.1600 H   0  0  0  0  0  0  0  0  0  0  0  0
  1  2  1  0
  1 30  1  0
  1 31  1  0
  1 32  1  0
  2 27  1  0
  2  3  1  0
  2  4  1  0
  3 33  1  0
  3 34  1  0
  3 35  1  0
  4 27  1  0
  4  5  1  0
  4 36  1  1
  5  6  1  0
  5 37  1  0
  5 38  1  0
  6  7  1  0
  6 39  1  0
  6 40  1  0
  7 10  1  0
  7 28  1  0
  7  8  1  6
  8  9  1  0
  9 10  1  0
  9 41  1  0
  9 42  1  0
 10 11  1  1
 10 12  1  0
 11 43  1  0
 12 24  1  0
 12 13  1  0
 12 44  1  1
 13 14  1  0
 13 45  1  0
 13 46  1  0
 14 18  1  0
 14 15  1  0
 14 47  1  1
 15 16  1  0
 15 48  1  0
 15 49  1  0
 16 22  1  0
 16 17  1  0
 16 50  1  1
 17 18  1  0
 17 51  1  0
 17 52  1  0
 18 19  1  0
 18 53  1  6
 19 20  1  0
 19 54  1  0
 19 55  1  0
 20 21  1  6
 20 22  1  0
 20 24  1  0
 21 56  1  0
 21 57  1  0
 21 58  1  0
 22 23  1  0
 22 59  1  1
 23 60  1  0
 24 25  1  0
 24 61  1  1
 25 26  1  1
 25 27  1  0
 25 28  1  0
 26 62  1  0
 26 63  1  0
 26 64  1  0
 27 65  1  1
 28 29  1  0
 28 66  1  6
 29 67  1  0
M  END
>  <i_m_ct_stereo_status>  (282) 
1

>  <s_m_source_file>  (282) 
/var/tmp/pbs.5076255.sched01/tmpo609hgx5/90rinj4u0e.sdf

>  <i_m_source_file_index>  (282) 
28

>  <i_lp_mmshare_version>  (282) 
48012

>  <i_f3d_flags>  (282) 
0

>  <s_epik_input>  (282) 
W0NIM11DMShbQ0gzXSlbQ0BIXShbQ0gyXVtDSDJdMilbQ0BASF0xW0NAXShbQ0gzXSkoW0NASF0zW09IXSlbQ0BIXShbQ0BASF00W0NAXShbQ0BdMjM1KShbQ0gyXU81KVtPSF0pQzYoW0NIM10pW0NIMl1bQ0BIXTdbQ0BASF0oW0NIMl00KVtDSDJdW0NASF0oW0NIMl03KVtDQEBIXTZbT0hd

>  <s_epik_cmdline>  (282) 
J2VwaWtfcHl0aG9uJywgJy1waHQnLCAnMi4wJywgJy1waCcsICc3LjAnLCAnLXRuJywgJzgnLCAnLW1hJywgJzIwMCcsICctaW1hZScsICc8aW5maWxlLm1hZT4nLCAnLW9tYWUnLCAnPG91dGZpbGUubWFlPic=

>  <r_lp_tautomer_probability>  (282) 
1

>  <r_epik_Ionization_Penalty>  (282) 
2.50099e-06

>  <r_epik_Ionization_Penalty_Charging>  (282) 
0

>  <r_epik_Ionization_Penalty_Neutral>  (282) 
2.50099e-06

>  <r_epik_State_Penalty>  (282) 
-0

>  <r_epik_Charging_Adjusted_Penalty>  (282) 
0

>  <i_epik_Tot_Q>  (282) 
0

>  <i_epik_Tot_abs_Q>  (282) 
0

>  <s_lp_Force_Field>  (282) 
OPLS3e

>  <r_lp_Energy>  (282) 
205.83

>  <b_lp_Chiralities_Consistent>  (282) 
1

>  <s_lp_Variant>  (282) 
75:0-1

>  <s_i_glide_gridfile>  (282) 
pfpi4k_grid

>  <i_i_glide_lignum>  (282) 
28

>  <i_i_glide_rotatable_bonds>  (282) 
3

>  <r_i_docking_score>  (282) 
-3.2831

>  <r_i_glide_ligand_efficiency>  (282) 
-0.11321

>  <r_i_glide_ligand_efficiency_sa>  (282) 
-0.347818

>  <r_i_glide_ligand_efficiency_ln>  (282) 
-0.751747

>  <r_i_glide_gscore>  (282) 
-3.2831

>  <r_i_glide_lipo>  (282) 
-0.406815

>  <r_i_glide_hbond>  (282) 
-0.16

>  <r_i_glide_metal>  (282) 
-0

>  <r_i_glide_rewards>  (282) 
-0.664317

>  <r_i_glide_evdw>  (282) 
-26.5587

>  <r_i_glide_ecoul>  (282) 
-4.82692

>  <r_i_glide_erotb>  (282) 
0

>  <r_i_glide_esite>  (282) 
0

>  <r_i_glide_emodel>  (282) 
-37.786

>  <r_i_glide_energy>  (282) 
-31.3856

>  <r_i_glide_einternal>  (282) 
0.46475

>  <r_i_glide_intrahb_reward>  (282) 
-0

>  <i_i_glide_confnum>  (282) 
1

>  <i_i_glide_posenum>  (282) 
29

>  <r_i_glide_eff_state_penalty>  (282) 
0

>  <ligand_id>  (282) 
75

>  <original_smiles>  (282) 
CC1(C)C2CCC34OCC3(O)C3CC5CC6CC5CC(C)(C6O)C3C(C)(C21)C4O

>  <smiles>  (282) 
[H]OC1([H])C2([H])C([H])([H])C3([H])C([H])([H])C4([H])C([H])(C1(C([H])([H])[H])C([H])([H])C3([H])C2([H])[H])C1(C([H])([H])[H])C([H])(O[H])C2(OC([H])([H])C42O[H])C([H])([H])C([H])([H])C2([H])C1([H])C2(C([H])([H])[H])C([H])([H])[H]

$$$$
75:0:1
     RDKit          3D

 67 73  0  0  1  0  0  0  0  0999 V2000
    0.0157   -1.1214    5.0600 C   0  0  0  0  0  0  0  0  0  0  0  0
    0.8551   -2.1526    5.8038 C   0  0  0  0  0  0  0  0  0  0  0  0
    2.2978   -1.6624    5.7092 C   0  0  0  0  0  0  0  0  0  0  0  0
    0.2681   -2.8004    7.0136 C   0  0  2  0  0  0  0  0  0  0  0  0
    1.0421   -3.1453    8.3592 C   0  0  0  0  0  0  0  0  0  0  0  0
    1.1672   -4.6389    8.9416 C   0  0  0  0  0  0  0  0  0  0  0  0
    1.8555   -5.7430    8.0551 C   0  0  1  0  0  0  0  0  0  0  0  0
    3.1255   -6.1823    8.5972 O   0  0  0  0  0  0  0  0  0  0  0  0
    2.8561   -7.5415    8.1830 C   0  0  0  0  0  0  0  0  0  0  0  0
    1.3924   -7.2200    7.8014 C   0  0  1  0  0  0  0  0  0  0  0  0
    0.4840   -7.7453    8.7517 O   0  0  0  0  0  0  0  0  0  0  0  0
    0.8420   -7.6236    6.3235 C   0  0  2  0  0  0  0  0  0  0  0  0
    1.4070   -8.9938    5.8576 C   0  0  0  0  0  0  0  0  0  0  0  0
    1.1910   -9.4199    4.4019 C   0  0  1  0  0  0  0  0  0  0  0  0
   -0.1796   -9.1411    3.7559 C   0  0  0  0  0  0  0  0  0  0  0  0
    0.1564   -8.3684    2.4692 C   0  0  2  0  0  0  0  0  0  0  0  0
    1.5249   -8.9333    2.0930 C   0  0  0  0  0  0  0  0  0  0  0  0
    2.2313   -8.8380    3.4360 C   0  0  1  0  0  0  0  0  0  0  0  0
    2.5680   -7.3617    3.7339 C   0  0  0  0  0  0  0  0  0  0  0  0
    1.3245   -6.4123    3.8054 C   0  0  1  0  0  0  0  0  0  0  0  0
    1.8605   -5.0037    3.4253 C   0  0  0  0  0  0  0  0  0  0  0  0
    0.2707   -6.8416    2.6941 C   0  0  1  0  0  0  0  0  0  0  0  0
    0.5125   -6.2650    1.4183 O   0  0  0  0  0  0  0  0  0  0  0  0
    0.6089   -6.3990    5.2516 C   0  0  2  0  0  0  0  0  0  0  0  0
    0.6121   -5.0633    6.1121 C   0  0  2  0  0  0  0  0  0  0  0  0
   -0.7708   -5.3173    6.9108 C   0  0  0  0  0  0  0  0  0  0  0  0
    0.3408   -3.6155    5.6602 C   0  0  2  0  0  0  0  0  0  0  0  0
    2.0516   -5.1946    6.7225 C   0  0  1  0  0  0  0  0  0  0  0  0
    3.0429   -4.2089    6.6588 O   0  0  0  0  0  0  0  0  0  0  0  0
    0.1338   -0.1308    5.5006 H   0  0  0  0  0  0  0  0  0  0  0  0
   -1.0439   -1.3775    5.0871 H   0  0  0  0  0  0  0  0  0  0  0  0
    0.3285   -1.0763    4.0160 H   0  0  0  0  0  0  0  0  0  0  0  0
    2.8725   -1.8578    6.6084 H   0  0  0  0  0  0  0  0  0  0  0  0
    2.3326   -0.5771    5.6008 H   0  0  0  0  0  0  0  0  0  0  0  0
    2.7855   -2.1089    4.8422 H   0  0  0  0  0  0  0  0  0  0  0  0
   -0.7248   -2.4268    7.2534 H   0  0  0  0  0  0  0  0  0  0  0  0
    2.0264   -2.6915    8.3459 H   0  0  0  0  0  0  0  0  0  0  0  0
    0.5285   -2.5780    9.1327 H   0  0  0  0  0  0  0  0  0  0  0  0
    1.7488   -4.5531    9.8568 H   0  0  0  0  0  0  0  0  0  0  0  0
    0.2063   -4.9988    9.3078 H   0  0  0  0  0  0  0  0  0  0  0  0
    3.5123   -7.8115    7.3574 H   0  0  0  0  0  0  0  0  0  0  0  0
    2.9598   -8.2487    9.0083 H   0  0  0  0  0  0  0  0  0  0  0  0
    0.6512   -8.6773    8.7870 H   0  0  0  0  0  0  0  0  0  0  0  0
   -0.1822   -7.9454    6.4838 H   0  0  0  0  0  0  0  0  0  0  0  0
    2.4751   -9.0748    6.0368 H   0  0  0  0  0  0  0  0  0  0  0  0
    0.9737   -9.7671    6.4945 H   0  0  0  0  0  0  0  0  0  0  0  0
    1.3286  -10.5037    4.3726 H   0  0  0  0  0  0  0  0  0  0  0  0
   -0.6328  -10.0959    3.4843 H   0  0  0  0  0  0  0  0  0  0  0  0
   -0.9003   -8.6358    4.3956 H   0  0  0  0  0  0  0  0  0  0  0  0
   -0.5839   -8.5787    1.6958 H   0  0  0  0  0  0  0  0  0  0  0  0
    1.4358   -9.9729    1.7781 H   0  0  0  0  0  0  0  0  0  0  0  0
    2.0347   -8.3932    1.2953 H   0  0  0  0  0  0  0  0  0  0  0  0
    3.1466   -9.4328    3.4395 H   0  0  0  0  0  0  0  0  0  0  0  0
    3.1780   -7.2944    4.6338 H   0  0  0  0  0  0  0  0  0  0  0  0
    3.2346   -7.0369    2.9318 H   0  0  0  0  0  0  0  0  0  0  0  0
    2.5707   -4.6158    4.1503 H   0  0  0  0  0  0  0  0  0  0  0  0
    2.4048   -5.0164    2.4801 H   0  0  0  0  0  0  0  0  0  0  0  0
    1.0568   -4.2803    3.2947 H   0  0  0  0  0  0  0  0  0  0  0  0
   -0.7194   -6.4717    2.9554 H   0  0  0  0  0  0  0  0  0  0  0  0
    1.2949   -6.6707    1.0732 H   0  0  0  0  0  0  0  0  0  0  0  0
   -0.4293   -6.5325    4.9690 H   0  0  0  0  0  0  0  0  0  0  0  0
   -1.1005   -4.5931    7.6471 H   0  0  0  0  0  0  0  0  0  0  0  0
   -0.8807   -6.2352    7.4695 H   0  0  0  0  0  0  0  0  0  0  0  0
   -1.6104   -5.3307    6.2164 H   0  0  0  0  0  0  0  0  0  0  0  0
   -0.5496   -3.6250    5.0357 H   0  0  0  0  0  0  0  0  0  0  0  0
    2.6420   -5.9036    6.1456 H   0  0  0  0  0  0  0  0  0  0  0  0
    3.8223   -4.5906    7.0395 H   0  0  0  0  0  0  0  0  0  0  0  0
  1  2  1  0
  1 30  1  0
  1 31  1  0
  1 32  1  0
  2 27  1  0
  2  3  1  0
  2  4  1  0
  3 33  1  0
  3 34  1  0
  3 35  1  0
  4 27  1  0
  4  5  1  0
  4 36  1  1
  5  6  1  0
  5 37  1  0
  5 38  1  0
  6  7  1  0
  6 39  1  0
  6 40  1  0
  7 10  1  0
  7 28  1  0
  7  8  1  1
  8  9  1  0
  9 10  1  0
  9 41  1  0
  9 42  1  0
 10 11  1  1
 10 12  1  0
 11 43  1  0
 12 24  1  0
 12 13  1  0
 12 44  1  1
 13 14  1  0
 13 45  1  0
 13 46  1  0
 14 18  1  0
 14 15  1  0
 14 47  1  1
 15 16  1  0
 15 48  1  0
 15 49  1  0
 16 22  1  0
 16 17  1  0
 16 50  1  6
 17 18  1  0
 17 51  1  0
 17 52  1  0
 18 19  1  0
 18 53  1  6
 19 20  1  0
 19 54  1  0
 19 55  1  0
 20 21  1  6
 20 22  1  0
 20 24  1  0
 21 56  1  0
 21 57  1  0
 21 58  1  0
 22 23  1  0
 22 59  1  1
 23 60  1  0
 24 25  1  0
 24 61  1  6
 25 26  1  1
 25 27  1  0
 25 28  1  0
 26 62  1  0
 26 63  1  0
 26 64  1  0
 27 65  1  6
 28 29  1  0
 28 66  1  6
 29 67  1  0
M  END
>  <i_m_ct_stereo_status>  (283) 
1

>  <s_m_source_file>  (283) 
/var/tmp/pbs.5076255.sched01/tmpo609hgx5/90rinj4u0e.sdf

>  <i_m_source_file_index>  (283) 
28

>  <i_lp_mmshare_version>  (283) 
48012

>  <i_f3d_flags>  (283) 
0

>  <s_epik_input>  (283) 
W0NIM11DMShbQ0gzXSlbQ0BIXShbQ0gyXVtDSDJdMilbQ0BASF0xW0NAXShbQ0gzXSkoW0NASF0zW09IXSlbQ0BIXShbQ0BASF00W0NAXShbQ0BdMjM1KShbQ0gyXU81KVtPSF0pQzYoW0NIM10pW0NIMl1bQ0BIXTdbQ0BASF0oW0NIMl00KVtDSDJdW0NASF0oW0NIMl03KVtDQEBIXTZbT0hd

>  <s_epik_cmdline>  (283) 
J2VwaWtfcHl0aG9uJywgJy1waHQnLCAnMi4wJywgJy1waCcsICc3LjAnLCAnLXRuJywgJzgnLCAnLW1hJywgJzIwMCcsICctaW1hZScsICc8aW5maWxlLm1hZT4nLCAnLW9tYWUnLCAnPG91dGZpbGUubWFlPic=

>  <r_lp_tautomer_probability>  (283) 
1

>  <r_epik_Ionization_Penalty>  (283) 
2.50099e-06

>  <r_epik_Ionization_Penalty_Charging>  (283) 
0

>  <r_epik_Ionization_Penalty_Neutral>  (283) 
2.50099e-06

>  <r_epik_State_Penalty>  (283) 
-0

>  <r_epik_Charging_Adjusted_Penalty>  (283) 
0

>  <i_epik_Tot_Q>  (283) 
0

>  <i_epik_Tot_abs_Q>  (283) 
0

>  <s_lp_Force_Field>  (283) 
OPLS3e

>  <r_lp_Energy>  (283) 
205.83

>  <b_lp_Chiralities_Consistent>  (283) 
1

>  <s_lp_Variant>  (283) 
75:0-1

>  <s_i_glide_gridfile>  (283) 
pfpi4k_grid

>  <i_i_glide_lignum>  (283) 
28

>  <i_i_glide_rotatable_bonds>  (283) 
3

>  <r_i_docking_score>  (283) 
-2.75648

>  <r_i_glide_ligand_efficiency>  (283) 
-0.095051

>  <r_i_glide_ligand_efficiency_sa>  (283) 
-0.292027

>  <r_i_glide_ligand_efficiency_ln>  (283) 
-0.631164

>  <r_i_glide_gscore>  (283) 
-2.75648

>  <r_i_glide_lipo>  (283) 
-0.100252

>  <r_i_glide_hbond>  (283) 
-0.16

>  <r_i_glide_metal>  (283) 
-0

>  <r_i_glide_rewards>  (283) 
-0.664317

>  <r_i_glide_evdw>  (283) 
-22.1735

>  <r_i_glide_ecoul>  (283) 
-4.82157

>  <r_i_glide_erotb>  (283) 
0

>  <r_i_glide_esite>  (283) 
0

>  <r_i_glide_emodel>  (283) 
-32.0292

>  <r_i_glide_energy>  (283) 
-26.9951

>  <r_i_glide_einternal>  (283) 
0.933592

>  <r_i_glide_intrahb_reward>  (283) 
-0

>  <i_i_glide_confnum>  (283) 
1

>  <i_i_glide_posenum>  (283) 
27

>  <r_i_glide_eff_state_penalty>  (283) 
0

>  <ligand_id>  (283) 
75

>  <original_smiles>  (283) 
CC1(C)C2CCC34OCC3(O)C3CC5CC6CC5CC(C)(C6O)C3C(C)(C21)C4O

>  <smiles>  (283) 
[H]OC1([H])C2([H])C([H])([H])C3([H])C([H])([H])C4([H])C([H])(C1(C([H])([H])[H])C([H])([H])C3([H])C2([H])[H])C1(C([H])([H])[H])C([H])(O[H])C2(OC([H])([H])C42O[H])C([H])([H])C([H])([H])C2([H])C1([H])C2(C([H])([H])[H])C([H])([H])[H]

$$$$
75:0:2
     RDKit          3D

 67 73  0  0  1  0  0  0  0  0999 V2000
    0.0127   -1.1219    5.0499 C   0  0  0  0  0  0  0  0  0  0  0  0
    0.8517   -2.1498    5.7989 C   0  0  0  0  0  0  0  0  0  0  0  0
    2.2935   -1.6546    5.7104 C   0  0  0  0  0  0  0  0  0  0  0  0
    0.2618   -2.7986    7.0067 C   0  0  2  0  0  0  0  0  0  0  0  0
    1.0308   -3.1395    8.3544 C   0  0  0  0  0  0  0  0  0  0  0  0
    1.1535   -4.6331    8.9383 C   0  0  0  0  0  0  0  0  0  0  0  0
    1.8468   -5.7383    8.0597 C   0  0  1  0  0  0  0  0  0  0  0  0
    3.1012   -6.1827    8.6310 O   0  0  0  0  0  0  0  0  0  0  0  0
    2.8455   -7.5360    8.1956 C   0  0  0  0  0  0  0  0  0  0  0  0
    1.3849   -7.2152    7.8029 C   0  0  1  0  0  0  0  0  0  0  0  0
    0.4711   -7.7424    8.7481 O   0  0  0  0  0  0  0  0  0  0  0  0
    0.8426   -7.6218    6.3229 C   0  0  2  0  0  0  0  0  0  0  0  0
    1.4120   -8.9914    5.8598 C   0  0  0  0  0  0  0  0  0  0  0  0
    1.2028   -9.4191    4.4036 C   0  0  1  0  0  0  0  0  0  0  0  0
   -0.1656   -9.1429    3.7511 C   0  0  0  0  0  0  0  0  0  0  0  0
    0.1748   -8.3708    2.4654 C   0  0  2  0  0  0  0  0  0  0  0  0
    1.5458   -8.9337    2.0955 C   0  0  0  0  0  0  0  0  0  0  0  0
    2.2463   -8.8364    3.4416 C   0  0  1  0  0  0  0  0  0  0  0  0
    2.5793   -7.3593    3.7397 C   0  0  0  0  0  0  0  0  0  0  0  0
    1.3345   -6.4123    3.8050 C   0  0  1  0  0  0  0  0  0  0  0  0
    1.8699   -5.0026    3.4258 C   0  0  0  0  0  0  0  0  0  0  0  0
    0.2863   -6.8435    2.6896 C   0  0  1  0  0  0  0  0  0  0  0  0
    0.5340   -6.2664    1.4142 O   0  0  0  0  0  0  0  0  0  0  0  0
    0.6130   -6.3986    5.2475 C   0  0  2  0  0  0  0  0  0  0  0  0
    0.6122   -5.0641    6.1084 C   0  0  2  0  0  0  0  0  0  0  0  0
   -0.7754   -5.3176    6.9008 C   0  0  0  0  0  0  0  0  0  0  0  0
    0.3402   -3.6156    5.6540 C   0  0  2  0  0  0  0  0  0  0  0  0
    2.0529   -5.1945    6.7226 C   0  0  1  0  0  0  0  0  0  0  0  0
    3.0286   -4.1949    6.6445 O   0  0  0  0  0  0  0  0  0  0  0  0
    0.1265   -0.1301    5.4893 H   0  0  0  0  0  0  0  0  0  0  0  0
   -1.0465   -1.3792    5.0721 H   0  0  0  0  0  0  0  0  0  0  0  0
    0.3291   -1.0767    4.0066 H   0  0  0  0  0  0  0  0  0  0  0  0
    2.8673   -1.8362    6.6129 H   0  0  0  0  0  0  0  0  0  0  0  0
    2.3233   -0.5701    5.5936 H   0  0  0  0  0  0  0  0  0  0  0  0
    2.7873   -2.1019    4.8467 H   0  0  0  0  0  0  0  0  0  0  0  0
   -0.7329   -2.4258    7.2409 H   0  0  0  0  0  0  0  0  0  0  0  0
    2.0081   -2.6702    8.3589 H   0  0  0  0  0  0  0  0  0  0  0  0
    0.5030   -2.5794    9.1245 H   0  0  0  0  0  0  0  0  0  0  0  0
    1.7286   -4.5462    9.8578 H   0  0  0  0  0  0  0  0  0  0  0  0
    0.1910   -4.9935    9.3003 H   0  0  0  0  0  0  0  0  0  0  0  0
    3.5094   -7.7913    7.3712 H   0  0  0  0  0  0  0  0  0  0  0  0
    2.9467   -8.2541    9.0107 H   0  0  0  0  0  0  0  0  0  0  0  0
    0.6531   -8.6698    8.7993 H   0  0  0  0  0  0  0  0  0  0  0  0
   -0.1861   -7.9455    6.4782 H   0  0  0  0  0  0  0  0  0  0  0  0
    2.4796   -9.0692    6.0447 H   0  0  0  0  0  0  0  0  0  0  0  0
    0.9772   -9.7649    6.4957 H   0  0  0  0  0  0  0  0  0  0  0  0
    1.3422  -10.5026    4.3758 H   0  0  0  0  0  0  0  0  0  0  0  0
   -0.6162  -10.0988    3.4791 H   0  0  0  0  0  0  0  0  0  0  0  0
   -0.8896   -8.6383    4.3873 H   0  0  0  0  0  0  0  0  0  0  0  0
   -0.5619   -8.5822    1.6888 H   0  0  0  0  0  0  0  0  0  0  0  0
    1.4596   -9.9737    1.7810 H   0  0  0  0  0  0  0  0  0  0  0  0
    2.0582   -8.3937    1.2994 H   0  0  0  0  0  0  0  0  0  0  0  0
    3.1625   -9.4295    3.4496 H   0  0  0  0  0  0  0  0  0  0  0  0
    3.1852   -7.2899    4.6421 H   0  0  0  0  0  0  0  0  0  0  0  0
    3.2494   -7.0340    2.9409 H   0  0  0  0  0  0  0  0  0  0  0  0
    2.5787   -4.6143    4.1516 H   0  0  0  0  0  0  0  0  0  0  0  0
    2.4182   -5.0150    2.4829 H   0  0  0  0  0  0  0  0  0  0  0  0
    1.0667   -4.2794    3.2920 H   0  0  0  0  0  0  0  0  0  0  0  0
   -0.7050   -6.4738    2.9450 H   0  0  0  0  0  0  0  0  0  0  0  0
    1.3226   -6.6663    1.0765 H   0  0  0  0  0  0  0  0  0  0  0  0
   -0.4236   -6.5340    4.9613 H   0  0  0  0  0  0  0  0  0  0  0  0
   -1.1093   -4.5929    7.6348 H   0  0  0  0  0  0  0  0  0  0  0  0
   -0.8874   -6.2335    7.4595 H   0  0  0  0  0  0  0  0  0  0  0  0
   -1.6122   -5.3331    6.2032 H   0  0  0  0  0  0  0  0  0  0  0  0
   -0.5476   -3.6257    5.0266 H   0  0  0  0  0  0  0  0  0  0  0  0
    2.6465   -5.9060    6.1511 H   0  0  0  0  0  0  0  0  0  0  0  0
    2.7341   -3.4751    7.1828 H   0  0  0  0  0  0  0  0  0  0  0  0
  1  2  1  0
  1 30  1  0
  1 31  1  0
  1 32  1  0
  2 27  1  0
  2  3  1  0
  2  4  1  0
  3 33  1  0
  3 34  1  0
  3 35  1  0
  4 27  1  0
  4  5  1  0
  4 36  1  1
  5  6  1  0
  5 37  1  0
  5 38  1  0
  6  7  1  0
  6 39  1  0
  6 40  1  0
  7 10  1  0
  7 28  1  0
  7  8  1  1
  8  9  1  0
  9 10  1  0
  9 41  1  0
  9 42  1  0
 10 11  1  1
 10 12  1  0
 11 43  1  0
 12 24  1  0
 12 13  1  0
 12 44  1  1
 13 14  1  0
 13 45  1  0
 13 46  1  0
 14 18  1  0
 14 15  1  0
 14 47  1  1
 15 16  1  0
 15 48  1  0
 15 49  1  0
 16 22  1  0
 16 17  1  0
 16 50  1  6
 17 18  1  0
 17 51  1  0
 17 52  1  0
 18 19  1  0
 18 53  1  6
 19 20  1  0
 19 54  1  0
 19 55  1  0
 20 21  1  6
 20 22  1  0
 20 24  1  0
 21 56  1  0
 21 57  1  0
 21 58  1  0
 22 23  1  0
 22 59  1  1
 23 60  1  0
 24 25  1  0
 24 61  1  6
 25 26  1  1
 25 27  1  0
 25 28  1  0
 26 62  1  0
 26 63  1  0
 26 64  1  0
 27 65  1  6
 28 29  1  0
 28 66  1  6
 29 67  1  0
M  END
>  <i_m_ct_stereo_status>  (284) 
1

>  <s_m_source_file>  (284) 
/var/tmp/pbs.5076255.sched01/tmpo609hgx5/90rinj4u0e.sdf

>  <i_m_source_file_index>  (284) 
28

>  <i_lp_mmshare_version>  (284) 
48012

>  <i_f3d_flags>  (284) 
0

>  <s_epik_input>  (284) 
W0NIM11DMShbQ0gzXSlbQ0BIXShbQ0gyXVtDSDJdMilbQ0BASF0xW0NAXShbQ0gzXSkoW0NASF0zW09IXSlbQ0BIXShbQ0BASF00W0NAXShbQ0BdMjM1KShbQ0gyXU81KVtPSF0pQzYoW0NIM10pW0NIMl1bQ0BIXTdbQ0BASF0oW0NIMl00KVtDSDJdW0NASF0oW0NIMl03KVtDQEBIXTZbT0hd

>  <s_epik_cmdline>  (284) 
J2VwaWtfcHl0aG9uJywgJy1waHQnLCAnMi4wJywgJy1waCcsICc3LjAnLCAnLXRuJywgJzgnLCAnLW1hJywgJzIwMCcsICctaW1hZScsICc8aW5maWxlLm1hZT4nLCAnLW9tYWUnLCAnPG91dGZpbGUubWFlPic=

>  <r_lp_tautomer_probability>  (284) 
1

>  <r_epik_Ionization_Penalty>  (284) 
2.50099e-06

>  <r_epik_Ionization_Penalty_Charging>  (284) 
0

>  <r_epik_Ionization_Penalty_Neutral>  (284) 
2.50099e-06

>  <r_epik_State_Penalty>  (284) 
-0

>  <r_epik_Charging_Adjusted_Penalty>  (284) 
0

>  <i_epik_Tot_Q>  (284) 
0

>  <i_epik_Tot_abs_Q>  (284) 
0

>  <s_lp_Force_Field>  (284) 
OPLS3e

>  <r_lp_Energy>  (284) 
205.83

>  <b_lp_Chiralities_Consistent>  (284) 
1

>  <s_lp_Variant>  (284) 
75:0-1

>  <s_i_glide_gridfile>  (284) 
pfpi4k_grid

>  <i_i_glide_lignum>  (284) 
28

>  <i_i_glide_rotatable_bonds>  (284) 
3

>  <r_i_docking_score>  (284) 
-2.73231

>  <r_i_glide_ligand_efficiency>  (284) 
-0.0942177

>  <r_i_glide_ligand_efficiency_sa>  (284) 
-0.289467

>  <r_i_glide_ligand_efficiency_ln>  (284) 
-0.62563

>  <r_i_glide_gscore>  (284) 
-2.73231

>  <r_i_glide_lipo>  (284) 
-0.101912

>  <r_i_glide_hbond>  (284) 
-0.16

>  <r_i_glide_metal>  (284) 
-0

>  <r_i_glide_rewards>  (284) 
-0.664317

>  <r_i_glide_evdw>  (284) 
-22.2214

>  <r_i_glide_ecoul>  (284) 
-4.63343

>  <r_i_glide_erotb>  (284) 
0

>  <r_i_glide_esite>  (284) 
0

>  <r_i_glide_emodel>  (284) 
-32.0313

>  <r_i_glide_energy>  (284) 
-26.8548

>  <r_i_glide_einternal>  (284) 
0.595487

>  <r_i_glide_intrahb_reward>  (284) 
-0

>  <i_i_glide_confnum>  (284) 
1

>  <i_i_glide_posenum>  (284) 
1

>  <r_i_glide_eff_state_penalty>  (284) 
0

>  <ligand_id>  (284) 
75

>  <original_smiles>  (284) 
CC1(C)C2CCC34OCC3(O)C3CC5CC6CC5CC(C)(C6O)C3C(C)(C21)C4O

>  <smiles>  (284) 
[H]OC1([H])C2([H])C([H])([H])C3([H])C([H])([H])C4([H])C([H])(C1(C([H])([H])[H])C([H])([H])C3([H])C2([H])[H])C1(C([H])([H])[H])C([H])(O[H])C2(OC([H])([H])C42O[H])C([H])([H])C([H])([H])C2([H])C1([H])C2(C([H])([H])[H])C([H])([H])[H]

$$$$
76:0:0
     RDKit          3D

 50 53  0  0  1  0  0  0  0  0999 V2000
    5.0031   -0.7299   -2.3117 C   0  0  0  0  0  0  0  0  0  0  0  0
    4.4515   -2.0483   -1.8027 C   0  0  2  0  0  0  0  0  0  0  0  0
    3.0275   -2.1317   -2.3337 C   0  0  0  0  0  0  0  0  0  0  0  0
    2.4041   -3.4462   -1.9196 C   0  0  0  0  0  0  0  0  0  0  0  0
    2.4888   -3.7531   -0.4029 C   0  0  1  0  0  0  0  0  0  0  0  0
    1.8311   -5.1438   -0.2140 C   0  0  0  0  0  0  0  0  0  0  0  0
    3.9308   -3.5914    0.2055 C   0  0  1  0  0  0  0  0  0  0  0  0
    4.6328   -4.6715   -0.4236 O   0  0  0  0  0  0  0  0  0  0  0  0
    6.1069   -4.9017   -0.0447 O   0  0  0  0  0  0  0  0  0  0  0  0
    6.7238   -3.9935    0.8717 C   0  0  1  0  0  0  0  0  0  0  0  0
    8.1075   -4.6567    1.0382 C   0  0  0  0  0  0  0  0  0  0  0  0
    6.9386   -2.5835    0.3011 C   0  0  0  0  0  0  0  0  0  0  0  0
    5.7265   -1.6749    0.4440 C   0  0  0  0  0  0  0  0  0  0  0  0
    4.4422   -2.1767   -0.2518 C   0  0  1  0  0  0  0  0  0  0  0  0
    6.1836   -3.9589    2.1890 O   0  0  0  0  0  0  0  0  0  0  0  0
    4.9516   -4.5691    2.3390 C   0  0  1  0  0  0  0  0  0  0  0  0
    4.5550   -4.6301    3.6586 O   0  0  0  0  0  0  0  0  0  0  0  0
    3.1557   -4.6465    3.6380 C   0  0  1  0  0  0  0  0  0  0  0  0
    2.7102   -6.1086    3.8170 C   0  0  0  0  0  0  0  0  0  0  0  0
    2.5862   -3.7173    4.7428 C   0  0  0  0  0  0  0  0  0  0  0  0
    3.0083   -2.4640    4.5565 F   0  0  0  0  0  0  0  0  0  0  0  0
    1.2513   -3.7402    4.6865 F   0  0  0  0  0  0  0  0  0  0  0  0
    2.9772   -4.1450    5.9420 F   0  0  0  0  0  0  0  0  0  0  0  0
    2.7058   -4.1844    2.3976 O   0  0  0  0  0  0  0  0  0  0  0  0
    3.8702   -3.6867    1.7634 C   0  0  2  0  0  0  0  0  0  0  0  0
    4.5219    0.1125   -1.8159 H   0  0  0  0  0  0  0  0  0  0  0  0
    4.8528   -0.6335   -3.3846 H   0  0  0  0  0  0  0  0  0  0  0  0
    6.0673   -0.7093   -2.1103 H   0  0  0  0  0  0  0  0  0  0  0  0
    5.0462   -2.8574   -2.2396 H   0  0  0  0  0  0  0  0  0  0  0  0
    2.4753   -1.2828   -1.9410 H   0  0  0  0  0  0  0  0  0  0  0  0
    2.9982   -2.0339   -3.4214 H   0  0  0  0  0  0  0  0  0  0  0  0
    1.3671   -3.4613   -2.2602 H   0  0  0  0  0  0  0  0  0  0  0  0
    2.9345   -4.1913   -2.4985 H   0  0  0  0  0  0  0  0  0  0  0  0
    1.8574   -3.0165    0.0955 H   0  0  0  0  0  0  0  0  0  0  0  0
    2.4267   -5.9277   -0.6577 H   0  0  0  0  0  0  0  0  0  0  0  0
    0.8660   -5.1737   -0.7244 H   0  0  0  0  0  0  0  0  0  0  0  0
    1.6684   -5.4462    0.8126 H   0  0  0  0  0  0  0  0  0  0  0  0
    8.0118   -5.6842    1.4012 H   0  0  0  0  0  0  0  0  0  0  0  0
    8.7422   -4.1222    1.7467 H   0  0  0  0  0  0  0  0  0  0  0  0
    8.6455   -4.6980    0.0878 H   0  0  0  0  0  0  0  0  0  0  0  0
    7.7486   -2.1086    0.8572 H   0  0  0  0  0  0  0  0  0  0  0  0
    7.2754   -2.6407   -0.7336 H   0  0  0  0  0  0  0  0  0  0  0  0
    5.5510   -1.5042    1.5027 H   0  0  0  0  0  0  0  0  0  0  0  0
    5.9896   -0.6767    0.0985 H   0  0  0  0  0  0  0  0  0  0  0  0
    3.6900   -1.4639    0.0970 H   0  0  0  0  0  0  0  0  0  0  0  0
    4.9462   -5.5872    1.9355 H   0  0  0  0  0  0  0  0  0  0  0  0
    3.1272   -6.7340    3.0243 H   0  0  0  0  0  0  0  0  0  0  0  0
    1.6234   -6.1884    3.8029 H   0  0  0  0  0  0  0  0  0  0  0  0
    3.0792   -6.4832    4.7721 H   0  0  0  0  0  0  0  0  0  0  0  0
    3.9749   -2.6946    2.2004 H   0  0  0  0  0  0  0  0  0  0  0  0
  1  2  1  0
  1 26  1  0
  1 27  1  0
  1 28  1  0
  2 14  1  0
  2  3  1  0
  2 29  1  6
  3  4  1  0
  3 30  1  0
  3 31  1  0
  4  5  1  0
  4 32  1  0
  4 33  1  0
  5  6  1  0
  5  7  1  0
  5 34  1  1
  6 35  1  0
  6 36  1  0
  6 37  1  0
  7 14  1  0
  7 25  1  0
  7  8  1  6
  8  9  1  0
  9 10  1  0
 10 11  1  1
 10 12  1  0
 10 15  1  0
 11 38  1  0
 11 39  1  0
 11 40  1  0
 12 13  1  0
 12 41  1  0
 12 42  1  0
 13 14  1  0
 13 43  1  0
 13 44  1  0
 14 45  1  1
 15 16  1  0
 16 25  1  0
 16 17  1  0
 16 46  1  6
 17 18  1  0
 18 19  1  1
 18 20  1  0
 18 24  1  0
 19 47  1  0
 19 48  1  0
 19 49  1  0
 20 21  1  0
 20 22  1  0
 20 23  1  0
 24 25  1  0
 25 50  1  1
M  END
>  <i_m_ct_stereo_status>  (285) 
1

>  <s_m_source_file>  (285) 
/var/tmp/pbs.5076255.sched01/tmpo609hgx5/90rinj4u0e.sdf

>  <i_m_source_file_index>  (285) 
29

>  <i_lp_mmshare_version>  (285) 
48012

>  <i_f3d_flags>  (285) 
0

>  <s_epik_input>  (285) 
W0NIM11bQ0BASF0xW0NIMl1bQ0gyXVtDQEBIXShbQ0gzXSlbQ0BASF0oW0NAQF0xMjMpW0NIMl1bQ0gyXVtDQEBdKE9PMikoW0NIM10pT1tDQEBIXTRbQ0BASF0zT1tDQF0oTzQpKFtDSDNdKUMoRikoRilG

>  <s_epik_cmdline>  (285) 
J2VwaWtfcHl0aG9uJywgJy1waHQnLCAnMi4wJywgJy1waCcsICc3LjAnLCAnLXRuJywgJzgnLCAnLW1hJywgJzIwMCcsICctaW1hZScsICc8aW5maWxlLm1hZT4nLCAnLW9tYWUnLCAnPG91dGZpbGUubWFlPic=

>  <r_lp_tautomer_probability>  (285) 
1

>  <r_epik_Ionization_Penalty>  (285) 
0

>  <r_epik_Ionization_Penalty_Charging>  (285) 
0

>  <r_epik_Ionization_Penalty_Neutral>  (285) 
0

>  <r_epik_State_Penalty>  (285) 
-0

>  <r_epik_Charging_Adjusted_Penalty>  (285) 
0

>  <i_epik_Tot_Q>  (285) 
0

>  <i_epik_Tot_abs_Q>  (285) 
0

>  <s_epik_Chemistry_Notes>  (285) 
This compound contains an acetal/aminal-like group ( X-CH(R)-Y where X, Y are N, S, or O) that may be acid/base labile, releasing an aldehyde.

>  <s_lp_Force_Field>  (285) 
OPLS3e

>  <r_lp_Energy>  (285) 
40.6372

>  <b_lp_Chiralities_Consistent>  (285) 
1

>  <s_lp_Variant>  (285) 
76:0-1

>  <s_i_glide_gridfile>  (285) 
pfpi4k_grid

>  <i_i_glide_lignum>  (285) 
29

>  <i_i_glide_rotatable_bonds>  (285) 
1

>  <r_i_docking_score>  (285) 
-2.09676

>  <r_i_glide_ligand_efficiency>  (285) 
-0.0838704

>  <r_i_glide_ligand_efficiency_sa>  (285) 
-0.245239

>  <r_i_glide_ligand_efficiency_ln>  (285) 
-0.496995

>  <r_i_glide_gscore>  (285) 
-2.09676

>  <r_i_glide_lipo>  (285) 
-0.48846

>  <r_i_glide_hbond>  (285) 
0

>  <r_i_glide_metal>  (285) 
-0

>  <r_i_glide_rewards>  (285) 
-1.09231

>  <r_i_glide_evdw>  (285) 
-11.1356

>  <r_i_glide_ecoul>  (285) 
0.271963

>  <r_i_glide_erotb>  (285) 
0

>  <r_i_glide_esite>  (285) 
0

>  <r_i_glide_emodel>  (285) 
-10.2268

>  <r_i_glide_energy>  (285) 
-10.8637

>  <r_i_glide_einternal>  (285) 
0.000409869

>  <r_i_glide_intrahb_reward>  (285) 
-0

>  <i_i_glide_confnum>  (285) 
2

>  <i_i_glide_posenum>  (285) 
9

>  <r_i_glide_eff_state_penalty>  (285) 
0

>  <ligand_id>  (285) 
76

>  <original_smiles>  (285) 
CC1CCC(C)C23OOC(C)(CCC12)OC1OC(C)(C(F)(F)F)OC13

>  <smiles>  (285) 
[H]C([H])([H])C1(C(F)(F)F)OC2([H])OC3(C([H])([H])[H])OOC4(C2([H])O1)C([H])(C([H])([H])[H])C([H])([H])C([H])([H])C([H])(C([H])([H])[H])C4([H])C([H])([H])C3([H])[H]

$$$$
78:0:0
     RDKit          3D

 64 66  0  0  1  0  0  0  0  0999 V2000
   -2.6278    2.6936    2.4866 C   0  0  0  0  0  0  0  0  0  0  0  0
   -1.8987    2.3595    3.6443 O   0  0  0  0  0  0  0  0  0  0  0  0
   -1.4958    3.3462    4.4450 C   0  0  0  0  0  0  0  0  0  0  0  0
   -1.7605    4.5393    4.2806 O   0  0  0  0  0  0  0  0  0  0  0  0
   -0.6364    2.8340    5.6276 C   0  0  2  0  0  0  0  0  0  0  0  0
   -1.5789    2.0352    6.5844 C   0  0  0  0  0  0  0  0  0  0  0  0
   -2.5681    2.9568    7.3233 C   0  0  0  0  0  0  0  0  0  0  0  0
   -1.8131    3.9834    8.1701 C   0  0  0  0  0  0  0  0  0  0  0  0
   -0.5774    4.5369    7.4871 C   0  0  0  0  0  0  0  0  0  0  0  0
   -0.0133    4.0435    6.3489 C   0  0  0  0  0  0  0  0  0  0  0  0
    1.1459    4.6303    5.7457 N   0  0  0  0  0  0  0  0  0  0  0  0
    1.5912    5.9625    6.2250 C   0  0  0  0  0  0  0  0  0  0  0  0
    2.5635    5.8627    7.4154 C   0  0  0  0  0  0  0  0  0  0  0  0
    2.8829    7.1585    7.8704 O   0  0  0  0  0  0  0  0  0  0  0  0
    1.8591    4.0456    4.7342 C   0  0  0  0  0  0  0  0  0  0  0  0
    2.8319    4.6061    4.2171 O   0  0  0  0  0  0  0  0  0  0  0  0
    1.4623    2.6530    4.1689 C   0  0  1  0  0  0  0  0  0  0  0  0
    2.7029    1.7966    3.7829 C   0  0  0  0  0  0  0  0  0  0  0  0
    2.4538    0.6679    2.7681 C   0  0  0  0  0  0  0  0  0  0  0  0
    1.4349   -0.0245    2.8246 O   0  0  0  0  0  0  0  0  0  0  0  0
    3.4104    0.4831    1.8449 N   0  0  0  0  0  0  0  0  0  0  0  0
    3.3540   -0.5649    0.8329 C   0  0  0  0  0  0  0  0  0  0  0  0
    4.7166   -0.8017    0.1682 C   0  0  0  0  0  0  0  0  0  0  0  0
    4.6306   -1.6298   -1.1110 C   0  0  0  0  0  0  0  0  0  0  0  0
    5.2408   -2.8268   -1.2201 C   0  0  0  0  0  0  0  0  0  0  0  0
    5.1792   -3.7001   -2.4578 C   0  0  0  0  0  0  0  0  0  0  0  0
    4.0751   -3.2673   -3.4348 C   0  0  0  0  0  0  0  0  0  0  0  0
    4.0622   -1.7455   -3.6085 C   0  0  0  0  0  0  0  0  0  0  0  0
    3.8316   -1.0279   -2.2665 C   0  0  0  0  0  0  0  0  0  0  0  0
    0.4831    1.9138    5.1088 C   0  0  0  0  0  0  0  0  0  0  0  0
   -2.7291    1.8199    1.8396 H   0  0  0  0  0  0  0  0  0  0  0  0
   -2.0958    3.4736    1.9437 H   0  0  0  0  0  0  0  0  0  0  0  0
   -3.6142    3.0691    2.7586 H   0  0  0  0  0  0  0  0  0  0  0  0
   -2.1388    1.2646    6.0483 H   0  0  0  0  0  0  0  0  0  0  0  0
   -0.9861    1.4913    7.3245 H   0  0  0  0  0  0  0  0  0  0  0  0
   -3.1991    3.4791    6.6007 H   0  0  0  0  0  0  0  0  0  0  0  0
   -3.2550    2.3860    7.9541 H   0  0  0  0  0  0  0  0  0  0  0  0
   -2.4713    4.8140    8.4207 H   0  0  0  0  0  0  0  0  0  0  0  0
   -1.4989    3.5378    9.1137 H   0  0  0  0  0  0  0  0  0  0  0  0
   -0.1611    5.3672    8.0227 H   0  0  0  0  0  0  0  0  0  0  0  0
    2.0606    6.5335    5.4235 H   0  0  0  0  0  0  0  0  0  0  0  0
    0.7268    6.5780    6.4711 H   0  0  0  0  0  0  0  0  0  0  0  0
    2.1285    5.3049    8.2449 H   0  0  0  0  0  0  0  0  0  0  0  0
    3.4781    5.3504    7.1197 H   0  0  0  0  0  0  0  0  0  0  0  0
    3.2342    7.6473    7.1392 H   0  0  0  0  0  0  0  0  0  0  0  0
    0.9512    2.8728    3.2272 H   0  0  0  0  0  0  0  0  0  0  0  0
    3.4624    2.4320    3.3249 H   0  0  0  0  0  0  0  0  0  0  0  0
    3.1435    1.3728    4.6878 H   0  0  0  0  0  0  0  0  0  0  0  0
    4.1906    1.1317    1.8288 H   0  0  0  0  0  0  0  0  0  0  0  0
    2.9853   -1.4961    1.2568 H   0  0  0  0  0  0  0  0  0  0  0  0
    2.6181   -0.2586    0.0973 H   0  0  0  0  0  0  0  0  0  0  0  0
    5.1843    0.1426   -0.0704 H   0  0  0  0  0  0  0  0  0  0  0  0
    5.3780   -1.2787    0.8921 H   0  0  0  0  0  0  0  0  0  0  0  0
    5.8208   -3.2174   -0.3972 H   0  0  0  0  0  0  0  0  0  0  0  0
    6.1529   -3.6689   -2.9461 H   0  0  0  0  0  0  0  0  0  0  0  0
    5.0150   -4.7306   -2.1479 H   0  0  0  0  0  0  0  0  0  0  0  0
    4.2111   -3.7647   -4.3943 H   0  0  0  0  0  0  0  0  0  0  0  0
    3.1039   -3.5897   -3.0576 H   0  0  0  0  0  0  0  0  0  0  0  0
    5.0126   -1.4224   -4.0310 H   0  0  0  0  0  0  0  0  0  0  0  0
    3.2875   -1.4485   -4.3154 H   0  0  0  0  0  0  0  0  0  0  0  0
    2.7691   -1.0813   -2.0196 H   0  0  0  0  0  0  0  0  0  0  0  0
    4.0853    0.0292   -2.3749 H   0  0  0  0  0  0  0  0  0  0  0  0
    1.0294    1.4676    5.9467 H   0  0  0  0  0  0  0  0  0  0  0  0
    0.0355    1.0747    4.5764 H   0  0  0  0  0  0  0  0  0  0  0  0
  1  2  1  0
  1 31  1  0
  1 32  1  0
  1 33  1  0
  2  3  1  0
  3  4  2  0
  5  3  1  6
  5 10  1  0
  5 30  1  0
  5  6  1  0
  6  7  1  0
  6 34  1  0
  6 35  1  0
  7  8  1  0
  7 36  1  0
  7 37  1  0
  8  9  1  0
  8 38  1  0
  8 39  1  0
  9 10  2  0
  9 40  1  0
 10 11  1  0
 11 12  1  0
 11 15  1  0
 12 13  1  0
 12 41  1  0
 12 42  1  0
 13 14  1  0
 13 43  1  0
 13 44  1  0
 14 45  1  0
 15 16  2  0
 15 17  1  0
 17 18  1  0
 17 30  1  0
 17 46  1  6
 18 19  1  0
 18 47  1  0
 18 48  1  0
 19 20  2  0
 19 21  1  0
 21 22  1  0
 21 49  1  0
 22 23  1  0
 22 50  1  0
 22 51  1  0
 23 24  1  0
 23 52  1  0
 23 53  1  0
 24 29  1  0
 24 25  2  0
 25 26  1  0
 25 54  1  0
 26 27  1  0
 26 55  1  0
 26 56  1  0
 27 28  1  0
 27 57  1  0
 27 58  1  0
 28 29  1  0
 28 59  1  0
 28 60  1  0
 29 61  1  0
 29 62  1  0
 30 63  1  0
 30 64  1  0
M  END
>  <i_m_ct_stereo_status>  (286) 
1

>  <s_m_source_file>  (286) 
/var/tmp/pbs.5076255.sched01/tmpo609hgx5/90rinj4u0e.sdf

>  <i_m_source_file_index>  (286) 
31

>  <i_lp_mmshare_version>  (286) 
48012

>  <i_f3d_flags>  (286) 
0

>  <s_epik_input>  (286) 
W0NIM11PQyg9TylbQ0BAXTEyQyg9W0NIXVtDSDJdW0NIMl1bQ0gyXTEpTihbQ0gyXVtDSDJdW09IXSlDKD1PKVtDQEhdKFtDSDJdMilbQ0gyXUMoPU8pW05IXVtDSDJdW0NIMl1DMz1bQ0hdW0NIMl1bQ0gyXVtDSDJdW0NIMl0z

>  <s_epik_cmdline>  (286) 
J2VwaWtfcHl0aG9uJywgJy1waHQnLCAnMi4wJywgJy1waCcsICc3LjAnLCAnLXRuJywgJzgnLCAnLW1hJywgJzIwMCcsICctaW1hZScsICc8aW5maWxlLm1hZT4nLCAnLW9tYWUnLCAnPG91dGZpbGUubWFlPic=

>  <r_lp_tautomer_probability>  (286) 
1

>  <r_epik_Ionization_Penalty>  (286) 
6.89427e-08

>  <r_epik_Ionization_Penalty_Charging>  (286) 
0

>  <r_epik_Ionization_Penalty_Neutral>  (286) 
6.89427e-08

>  <r_epik_State_Penalty>  (286) 
-0

>  <r_epik_Charging_Adjusted_Penalty>  (286) 
0

>  <i_epik_Tot_Q>  (286) 
0

>  <i_epik_Tot_abs_Q>  (286) 
0

>  <s_epik_Chemistry_Notes>  (286) 
This compound has an ester and may undergo hydrolysis at high or low pH.

>  <s_lp_Force_Field>  (286) 
OPLS3e

>  <r_lp_Energy>  (286) 
35.8062

>  <b_lp_Chiralities_Consistent>  (286) 
1

>  <s_lp_Variant>  (286) 
78:0-1

>  <s_i_glide_gridfile>  (286) 
pfpi4k_grid

>  <i_i_glide_lignum>  (286) 
31

>  <i_i_glide_rotatable_bonds>  (286) 
11

>  <r_i_docking_score>  (286) 
-2.80083

>  <r_i_glide_ligand_efficiency>  (286) 
-0.093361

>  <r_i_glide_ligand_efficiency_sa>  (286) 
-0.290094

>  <r_i_glide_ligand_efficiency_ln>  (286) 
-0.636379

>  <r_i_glide_gscore>  (286) 
-2.80083

>  <r_i_glide_lipo>  (286) 
-0.684879

>  <r_i_glide_hbond>  (286) 
-0.436069

>  <r_i_glide_metal>  (286) 
-0

>  <r_i_glide_rewards>  (286) 
-0.555501

>  <r_i_glide_evdw>  (286) 
-29.733

>  <r_i_glide_ecoul>  (286) 
-3.27387

>  <r_i_glide_erotb>  (286) 
0.903155

>  <r_i_glide_esite>  (286) 
-0.0498014

>  <r_i_glide_emodel>  (286) 
-37.9361

>  <r_i_glide_energy>  (286) 
-33.0069

>  <r_i_glide_einternal>  (286) 
1.57901

>  <r_i_glide_intrahb_reward>  (286) 
-0

>  <i_i_glide_confnum>  (286) 
11

>  <i_i_glide_posenum>  (286) 
21

>  <r_i_glide_eff_state_penalty>  (286) 
0

>  <ligand_id>  (286) 
78

>  <original_smiles>  (286) 
COC(=O)C12CCCC=C1N(CCO)C(=O)C(CC(=O)NCCC1=CCCCC1)C2

>  <smiles>  (286) 
[H]OC([H])([H])C([H])([H])N1C(=O)C([H])(C([H])([H])C(=O)N([H])C([H])([H])C([H])([H])C2=C([H])C([H])([H])C([H])([H])C([H])([H])C2([H])[H])C([H])([H])C2(C(=O)OC([H])([H])[H])C1=C([H])C([H])([H])C([H])([H])C2([H])[H]

$$$$
78:0:1
     RDKit          3D

 64 66  0  0  1  0  0  0  0  0999 V2000
    0.4258   -4.4177    4.8946 C   0  0  0  0  0  0  0  0  0  0  0  0
    0.6158   -5.2535    3.7696 O   0  0  0  0  0  0  0  0  0  0  0  0
    0.7674   -6.5708    3.9488 C   0  0  0  0  0  0  0  0  0  0  0  0
    0.7012   -7.1392    5.0380 O   0  0  0  0  0  0  0  0  0  0  0  0
    1.0212   -7.3153    2.6152 C   0  0  2  0  0  0  0  0  0  0  0  0
   -0.3193   -7.3304    1.8104 C   0  0  0  0  0  0  0  0  0  0  0  0
   -1.3742   -8.2411    2.4732 C   0  0  0  0  0  0  0  0  0  0  0  0
   -0.8686   -9.6807    2.5484 C   0  0  0  0  0  0  0  0  0  0  0  0
    0.6016   -9.7912    2.8965 C   0  0  0  0  0  0  0  0  0  0  0  0
    1.4809   -8.7570    2.9323 C   0  0  0  0  0  0  0  0  0  0  0  0
    2.8503   -8.9344    3.3058 N   0  0  0  0  0  0  0  0  0  0  0  0
    3.2543  -10.2176    3.9288 C   0  0  0  0  0  0  0  0  0  0  0  0
    3.7249  -11.2415    2.8816 C   0  0  0  0  0  0  0  0  0  0  0  0
    3.9531  -12.4830    3.5179 O   0  0  0  0  0  0  0  0  0  0  0  0
    3.8064   -7.9715    3.1548 C   0  0  0  0  0  0  0  0  0  0  0  0
    4.9646   -8.1345    3.5516 O   0  0  0  0  0  0  0  0  0  0  0  0
    3.4743   -6.5962    2.5218 C   0  0  1  0  0  0  0  0  0  0  0  0
    4.6247   -6.0465    1.6286 C   0  0  0  0  0  0  0  0  0  0  0  0
    4.7061   -4.5145    1.5407 C   0  0  0  0  0  0  0  0  0  0  0  0
    3.7643   -3.8045    1.8997 O   0  0  0  0  0  0  0  0  0  0  0  0
    5.8734   -4.0256    1.0930 N   0  0  0  0  0  0  0  0  0  0  0  0
    6.2176   -2.6113    1.0107 C   0  0  0  0  0  0  0  0  0  0  0  0
    6.7165   -2.2000   -0.3783 C   0  0  0  0  0  0  0  0  0  0  0  0
    5.6201   -2.1742   -1.4283 C   0  0  0  0  0  0  0  0  0  0  0  0
    4.8123   -1.1069   -1.5804 C   0  0  0  0  0  0  0  0  0  0  0  0
    3.7093   -1.0094   -2.6177 C   0  0  0  0  0  0  0  0  0  0  0  0
    3.8310   -2.0895   -3.7017 C   0  0  0  0  0  0  0  0  0  0  0  0
    4.1759   -3.4551   -3.0918 C   0  0  0  0  0  0  0  0  0  0  0  0
    5.4969   -3.4122   -2.3046 C   0  0  0  0  0  0  0  0  0  0  0  0
    2.1127   -6.5916    1.7972 C   0  0  0  0  0  0  0  0  0  0  0  0
    0.3112   -3.3872    4.5594 H   0  0  0  0  0  0  0  0  0  0  0  0
    1.2879   -4.4802    5.5594 H   0  0  0  0  0  0  0  0  0  0  0  0
   -0.4703   -4.7129    5.4434 H   0  0  0  0  0  0  0  0  0  0  0  0
   -0.7258   -6.3257    1.6836 H   0  0  0  0  0  0  0  0  0  0  0  0
   -0.1463   -7.6860    0.7896 H   0  0  0  0  0  0  0  0  0  0  0  0
   -1.5983   -7.8849    3.4828 H   0  0  0  0  0  0  0  0  0  0  0  0
   -2.3304   -8.2246    1.9398 H   0  0  0  0  0  0  0  0  0  0  0  0
   -1.4387  -10.2316    3.2824 H   0  0  0  0  0  0  0  0  0  0  0  0
   -1.0356  -10.2156    1.6229 H   0  0  0  0  0  0  0  0  0  0  0  0
    0.8942  -10.8044    3.1026 H   0  0  0  0  0  0  0  0  0  0  0  0
    4.0477  -10.0633    4.6576 H   0  0  0  0  0  0  0  0  0  0  0  0
    2.4421  -10.6151    4.5381 H   0  0  0  0  0  0  0  0  0  0  0  0
    2.9896  -11.3700    2.0855 H   0  0  0  0  0  0  0  0  0  0  0  0
    4.6517  -10.9098    2.4187 H   0  0  0  0  0  0  0  0  0  0  0  0
    3.1385  -12.9677    3.5253 H   0  0  0  0  0  0  0  0  0  0  0  0
    3.3979   -5.9297    3.3840 H   0  0  0  0  0  0  0  0  0  0  0  0
    5.5989   -6.3541    2.0153 H   0  0  0  0  0  0  0  0  0  0  0  0
    4.5420   -6.4645    0.6209 H   0  0  0  0  0  0  0  0  0  0  0  0
    6.5901   -4.6891    0.8337 H   0  0  0  0  0  0  0  0  0  0  0  0
    5.3891   -1.9687    1.3105 H   0  0  0  0  0  0  0  0  0  0  0  0
    7.0119   -2.4300    1.7257 H   0  0  0  0  0  0  0  0  0  0  0  0
    7.1190   -1.1956   -0.2765 H   0  0  0  0  0  0  0  0  0  0  0  0
    7.5471   -2.8255   -0.7085 H   0  0  0  0  0  0  0  0  0  0  0  0
    4.9154   -0.2575   -0.9190 H   0  0  0  0  0  0  0  0  0  0  0  0
    2.7564   -1.1037   -2.0979 H   0  0  0  0  0  0  0  0  0  0  0  0
    3.7253   -0.0189   -3.0725 H   0  0  0  0  0  0  0  0  0  0  0  0
    2.9039   -2.1534   -4.2710 H   0  0  0  0  0  0  0  0  0  0  0  0
    4.6130   -1.8008   -4.4036 H   0  0  0  0  0  0  0  0  0  0  0  0
    3.3719   -3.7588   -2.4197 H   0  0  0  0  0  0  0  0  0  0  0  0
    4.2363   -4.2193   -3.8658 H   0  0  0  0  0  0  0  0  0  0  0  0
    6.3459   -3.4238   -2.9888 H   0  0  0  0  0  0  0  0  0  0  0  0
    5.5723   -4.3047   -1.6839 H   0  0  0  0  0  0  0  0  0  0  0  0
    2.2204   -7.0648    0.8171 H   0  0  0  0  0  0  0  0  0  0  0  0
    1.8192   -5.5622    1.5942 H   0  0  0  0  0  0  0  0  0  0  0  0
  1  2  1  0
  1 31  1  0
  1 32  1  0
  1 33  1  0
  2  3  1  0
  3  4  2  0
  5  3  1  1
  5 10  1  0
  5 30  1  0
  5  6  1  0
  6  7  1  0
  6 34  1  0
  6 35  1  0
  7  8  1  0
  7 36  1  0
  7 37  1  0
  8  9  1  0
  8 38  1  0
  8 39  1  0
  9 10  2  0
  9 40  1  0
 10 11  1  0
 11 12  1  0
 11 15  1  0
 12 13  1  0
 12 41  1  0
 12 42  1  0
 13 14  1  0
 13 43  1  0
 13 44  1  0
 14 45  1  0
 15 16  2  0
 15 17  1  0
 17 18  1  0
 17 30  1  0
 17 46  1  1
 18 19  1  0
 18 47  1  0
 18 48  1  0
 19 20  2  0
 19 21  1  0
 21 22  1  0
 21 49  1  0
 22 23  1  0
 22 50  1  0
 22 51  1  0
 23 24  1  0
 23 52  1  0
 23 53  1  0
 24 29  1  0
 24 25  2  0
 25 26  1  0
 25 54  1  0
 26 27  1  0
 26 55  1  0
 26 56  1  0
 27 28  1  0
 27 57  1  0
 27 58  1  0
 28 29  1  0
 28 59  1  0
 28 60  1  0
 29 61  1  0
 29 62  1  0
 30 63  1  0
 30 64  1  0
M  END
>  <i_m_ct_stereo_status>  (287) 
1

>  <s_m_source_file>  (287) 
/var/tmp/pbs.5076255.sched01/tmpo609hgx5/90rinj4u0e.sdf

>  <i_m_source_file_index>  (287) 
31

>  <i_lp_mmshare_version>  (287) 
48012

>  <i_f3d_flags>  (287) 
0

>  <s_epik_input>  (287) 
W0NIM11PQyg9TylbQ0BAXTEyQyg9W0NIXVtDSDJdW0NIMl1bQ0gyXTEpTihbQ0gyXVtDSDJdW09IXSlDKD1PKVtDQEhdKFtDSDJdMilbQ0gyXUMoPU8pW05IXVtDSDJdW0NIMl1DMz1bQ0hdW0NIMl1bQ0gyXVtDSDJdW0NIMl0z

>  <s_epik_cmdline>  (287) 
J2VwaWtfcHl0aG9uJywgJy1waHQnLCAnMi4wJywgJy1waCcsICc3LjAnLCAnLXRuJywgJzgnLCAnLW1hJywgJzIwMCcsICctaW1hZScsICc8aW5maWxlLm1hZT4nLCAnLW9tYWUnLCAnPG91dGZpbGUubWFlPic=

>  <r_lp_tautomer_probability>  (287) 
1

>  <r_epik_Ionization_Penalty>  (287) 
6.89427e-08

>  <r_epik_Ionization_Penalty_Charging>  (287) 
0

>  <r_epik_Ionization_Penalty_Neutral>  (287) 
6.89427e-08

>  <r_epik_State_Penalty>  (287) 
-0

>  <r_epik_Charging_Adjusted_Penalty>  (287) 
0

>  <i_epik_Tot_Q>  (287) 
0

>  <i_epik_Tot_abs_Q>  (287) 
0

>  <s_epik_Chemistry_Notes>  (287) 
This compound has an ester and may undergo hydrolysis at high or low pH.

>  <s_lp_Force_Field>  (287) 
OPLS3e

>  <r_lp_Energy>  (287) 
35.8062

>  <b_lp_Chiralities_Consistent>  (287) 
1

>  <s_lp_Variant>  (287) 
78:0-1

>  <s_i_glide_gridfile>  (287) 
pfpi4k_grid

>  <i_i_glide_lignum>  (287) 
31

>  <i_i_glide_rotatable_bonds>  (287) 
11

>  <r_i_docking_score>  (287) 
-2.44969

>  <r_i_glide_ligand_efficiency>  (287) 
-0.0816562

>  <r_i_glide_ligand_efficiency_sa>  (287) 
-0.253725

>  <r_i_glide_ligand_efficiency_ln>  (287) 
-0.556595

>  <r_i_glide_gscore>  (287) 
-2.44969

>  <r_i_glide_lipo>  (287) 
-0.663113

>  <r_i_glide_hbond>  (287) 
-0.248257

>  <r_i_glide_metal>  (287) 
-0

>  <r_i_glide_rewards>  (287) 
-0.591275

>  <r_i_glide_evdw>  (287) 
-32.6638

>  <r_i_glide_ecoul>  (287) 
-1.24469

>  <r_i_glide_erotb>  (287) 
0.903155

>  <r_i_glide_esite>  (287) 
-0.0303047

>  <r_i_glide_emodel>  (287) 
-36.5212

>  <r_i_glide_energy>  (287) 
-33.9085

>  <r_i_glide_einternal>  (287) 
4.5749

>  <r_i_glide_intrahb_reward>  (287) 
-0

>  <i_i_glide_confnum>  (287) 
11

>  <i_i_glide_posenum>  (287) 
33

>  <r_i_glide_eff_state_penalty>  (287) 
0

>  <ligand_id>  (287) 
78

>  <original_smiles>  (287) 
COC(=O)C12CCCC=C1N(CCO)C(=O)C(CC(=O)NCCC1=CCCCC1)C2

>  <smiles>  (287) 
[H]OC([H])([H])C([H])([H])N1C(=O)C([H])(C([H])([H])C(=O)N([H])C([H])([H])C([H])([H])C2=C([H])C([H])([H])C([H])([H])C([H])([H])C2([H])[H])C([H])([H])C2(C(=O)OC([H])([H])[H])C1=C([H])C([H])([H])C([H])([H])C2([H])[H]

$$$$
78:0:2
     RDKit          3D

 64 66  0  0  1  0  0  0  0  0999 V2000
    0.5224   -4.4836    4.6171 C   0  0  0  0  0  0  0  0  0  0  0  0
    0.5727   -5.5718    3.7112 O   0  0  0  0  0  0  0  0  0  0  0  0
    1.1998   -6.6876    4.0878 C   0  0  0  0  0  0  0  0  0  0  0  0
    1.6883   -6.8802    5.1917 O   0  0  0  0  0  0  0  0  0  0  0  0
    1.2596   -7.7203    2.9296 C   0  0  2  0  0  0  0  0  0  0  0  0
   -0.1934   -8.2580    2.7041 C   0  0  0  0  0  0  0  0  0  0  0  0
   -0.6784   -9.1242    3.8674 C   0  0  0  0  0  0  0  0  0  0  0  0
    0.2278  -10.3435    4.0534 C   0  0  0  0  0  0  0  0  0  0  0  0
    1.6968  -10.0444    3.8528 C   0  0  0  0  0  0  0  0  0  0  0  0
    2.2078   -8.8961    3.3427 C   0  0  0  0  0  0  0  0  0  0  0  0
    3.5826   -8.6695    3.1804 N   0  0  0  0  0  0  0  0  0  0  0  0
    4.5436   -9.6101    3.8506 C   0  0  0  0  0  0  0  0  0  0  0  0
    4.8647  -10.8240    2.9635 C   0  0  0  0  0  0  0  0  0  0  0  0
    5.6749  -11.7075    3.7222 O   0  0  0  0  0  0  0  0  0  0  0  0
    4.1407   -7.6326    2.4639 C   0  0  0  0  0  0  0  0  0  0  0  0
    5.3592   -7.4471    2.3795 O   0  0  0  0  0  0  0  0  0  0  0  0
    3.2245   -6.6031    1.7768 C   0  0  1  0  0  0  0  0  0  0  0  0
    3.8104   -6.0885    0.4269 C   0  0  0  0  0  0  0  0  0  0  0  0
    4.5053   -4.7121    0.4983 C   0  0  0  0  0  0  0  0  0  0  0  0
    4.2682   -3.9221    1.4145 O   0  0  0  0  0  0  0  0  0  0  0  0
    5.3893   -4.4522   -0.4793 N   0  0  0  0  0  0  0  0  0  0  0  0
    6.2237   -3.2583   -0.5562 C   0  0  0  0  0  0  0  0  0  0  0  0
    6.3891   -2.7447   -1.9920 C   0  0  0  0  0  0  0  0  0  0  0  0
    5.0840   -2.3126   -2.6318 C   0  0  0  0  0  0  0  0  0  0  0  0
    4.5905   -1.0639   -2.4952 C   0  0  0  0  0  0  0  0  0  0  0  0
    3.3314   -0.5650   -3.1636 C   0  0  0  0  0  0  0  0  0  0  0  0
    2.8567   -1.4984   -4.2833 C   0  0  0  0  0  0  0  0  0  0  0  0
    2.9360   -2.9650   -3.8450 C   0  0  0  0  0  0  0  0  0  0  0  0
    4.3810   -3.3617   -3.4910 C   0  0  0  0  0  0  0  0  0  0  0  0
    1.7713   -7.1075    1.6437 C   0  0  0  0  0  0  0  0  0  0  0  0
   -0.0034   -3.6496    4.1541 H   0  0  0  0  0  0  0  0  0  0  0  0
    1.5308   -4.1629    4.8734 H   0  0  0  0  0  0  0  0  0  0  0  0
   -0.0011   -4.7756    5.5262 H   0  0  0  0  0  0  0  0  0  0  0  0
   -0.9160   -7.4564    2.5350 H   0  0  0  0  0  0  0  0  0  0  0  0
   -0.2500   -8.8623    1.7903 H   0  0  0  0  0  0  0  0  0  0  0  0
   -0.7041   -8.5498    4.8047 H   0  0  0  0  0  0  0  0  0  0  0  0
   -1.7145   -9.4486    3.6721 H   0  0  0  0  0  0  0  0  0  0  0  0
    0.1288  -10.7511    5.0530 H   0  0  0  0  0  0  0  0  0  0  0  0
   -0.0570  -11.1201    3.3501 H   0  0  0  0  0  0  0  0  0  0  0  0
    2.3027  -10.8891    4.1256 H   0  0  0  0  0  0  0  0  0  0  0  0
    5.4651   -9.1103    4.1293 H   0  0  0  0  0  0  0  0  0  0  0  0
    4.1182   -9.9045    4.8085 H   0  0  0  0  0  0  0  0  0  0  0  0
    3.9721  -11.3461    2.6180 H   0  0  0  0  0  0  0  0  0  0  0  0
    5.4262  -10.5112    2.0905 H   0  0  0  0  0  0  0  0  0  0  0  0
    5.1387  -12.0891    4.3861 H   0  0  0  0  0  0  0  0  0  0  0  0
    3.1850   -5.7664    2.4734 H   0  0  0  0  0  0  0  0  0  0  0  0
    4.5338   -6.7999    0.0139 H   0  0  0  0  0  0  0  0  0  0  0  0
    3.0157   -6.0195   -0.3160 H   0  0  0  0  0  0  0  0  0  0  0  0
    5.4807   -5.1439   -1.2120 H   0  0  0  0  0  0  0  0  0  0  0  0
    5.8140   -2.4535    0.0512 H   0  0  0  0  0  0  0  0  0  0  0  0
    7.1948   -3.4966   -0.1278 H   0  0  0  0  0  0  0  0  0  0  0  0
    7.0544   -1.8875   -1.9425 H   0  0  0  0  0  0  0  0  0  0  0  0
    6.8813   -3.4853   -2.6219 H   0  0  0  0  0  0  0  0  0  0  0  0
    5.1075   -0.3359   -1.8764 H   0  0  0  0  0  0  0  0  0  0  0  0
    2.5691   -0.4855   -2.3900 H   0  0  0  0  0  0  0  0  0  0  0  0
    3.4985    0.4362   -3.5630 H   0  0  0  0  0  0  0  0  0  0  0  0
    1.8386   -1.2616   -4.5896 H   0  0  0  0  0  0  0  0  0  0  0  0
    3.4803   -1.3381   -5.1605 H   0  0  0  0  0  0  0  0  0  0  0  0
    2.3012   -3.1266   -2.9686 H   0  0  0  0  0  0  0  0  0  0  0  0
    2.5401   -3.6095   -4.6274 H   0  0  0  0  0  0  0  0  0  0  0  0
    4.9715   -3.5042   -4.3970 H   0  0  0  0  0  0  0  0  0  0  0  0
    4.3769   -4.3173   -2.9682 H   0  0  0  0  0  0  0  0  0  0  0  0
    1.6866   -7.8634    0.8526 H   0  0  0  0  0  0  0  0  0  0  0  0
    1.1521   -6.2525    1.3380 H   0  0  0  0  0  0  0  0  0  0  0  0
  1  2  1  0
  1 31  1  0
  1 32  1  0
  1 33  1  0
  2  3  1  0
  3  4  2  0
  5  3  1  1
  5 10  1  0
  5 30  1  0
  5  6  1  0
  6  7  1  0
  6 34  1  0
  6 35  1  0
  7  8  1  0
  7 36  1  0
  7 37  1  0
  8  9  1  0
  8 38  1  0
  8 39  1  0
  9 10  2  0
  9 40  1  0
 10 11  1  0
 11 12  1  0
 11 15  1  0
 12 13  1  0
 12 41  1  0
 12 42  1  0
 13 14  1  0
 13 43  1  0
 13 44  1  0
 14 45  1  0
 15 16  2  0
 15 17  1  0
 17 18  1  0
 17 30  1  0
 17 46  1  1
 18 19  1  0
 18 47  1  0
 18 48  1  0
 19 20  2  0
 19 21  1  0
 21 22  1  0
 21 49  1  0
 22 23  1  0
 22 50  1  0
 22 51  1  0
 23 24  1  0
 23 52  1  0
 23 53  1  0
 24 29  1  0
 24 25  2  0
 25 26  1  0
 25 54  1  0
 26 27  1  0
 26 55  1  0
 26 56  1  0
 27 28  1  0
 27 57  1  0
 27 58  1  0
 28 29  1  0
 28 59  1  0
 28 60  1  0
 29 61  1  0
 29 62  1  0
 30 63  1  0
 30 64  1  0
M  END
>  <i_m_ct_stereo_status>  (288) 
1

>  <s_m_source_file>  (288) 
/var/tmp/pbs.5076255.sched01/tmpo609hgx5/90rinj4u0e.sdf

>  <i_m_source_file_index>  (288) 
31

>  <i_lp_mmshare_version>  (288) 
48012

>  <i_f3d_flags>  (288) 
0

>  <s_epik_input>  (288) 
W0NIM11PQyg9TylbQ0BAXTEyQyg9W0NIXVtDSDJdW0NIMl1bQ0gyXTEpTihbQ0gyXVtDSDJdW09IXSlDKD1PKVtDQEhdKFtDSDJdMilbQ0gyXUMoPU8pW05IXVtDSDJdW0NIMl1DMz1bQ0hdW0NIMl1bQ0gyXVtDSDJdW0NIMl0z

>  <s_epik_cmdline>  (288) 
J2VwaWtfcHl0aG9uJywgJy1waHQnLCAnMi4wJywgJy1waCcsICc3LjAnLCAnLXRuJywgJzgnLCAnLW1hJywgJzIwMCcsICctaW1hZScsICc8aW5maWxlLm1hZT4nLCAnLW9tYWUnLCAnPG91dGZpbGUubWFlPic=

>  <r_lp_tautomer_probability>  (288) 
1

>  <r_epik_Ionization_Penalty>  (288) 
6.89427e-08

>  <r_epik_Ionization_Penalty_Charging>  (288) 
0

>  <r_epik_Ionization_Penalty_Neutral>  (288) 
6.89427e-08

>  <r_epik_State_Penalty>  (288) 
-0

>  <r_epik_Charging_Adjusted_Penalty>  (288) 
0

>  <i_epik_Tot_Q>  (288) 
0

>  <i_epik_Tot_abs_Q>  (288) 
0

>  <s_epik_Chemistry_Notes>  (288) 
This compound has an ester and may undergo hydrolysis at high or low pH.

>  <s_lp_Force_Field>  (288) 
OPLS3e

>  <r_lp_Energy>  (288) 
35.8062

>  <b_lp_Chiralities_Consistent>  (288) 
1

>  <s_lp_Variant>  (288) 
78:0-1

>  <s_i_glide_gridfile>  (288) 
pfpi4k_grid

>  <i_i_glide_lignum>  (288) 
31

>  <i_i_glide_rotatable_bonds>  (288) 
11

>  <r_i_docking_score>  (288) 
-2.42086

>  <r_i_glide_ligand_efficiency>  (288) 
-0.0806954

>  <r_i_glide_ligand_efficiency_sa>  (288) 
-0.250739

>  <r_i_glide_ligand_efficiency_ln>  (288) 
-0.550046

>  <r_i_glide_gscore>  (288) 
-2.42086

>  <r_i_glide_lipo>  (288) 
-0.77551

>  <r_i_glide_hbond>  (288) 
-0.000676497

>  <r_i_glide_metal>  (288) 
-0

>  <r_i_glide_rewards>  (288) 
-0.617585

>  <r_i_glide_evdw>  (288) 
-31.9679

>  <r_i_glide_ecoul>  (288) 
-2.10008

>  <r_i_glide_erotb>  (288) 
0.903155

>  <r_i_glide_esite>  (288) 
-0.0168355

>  <r_i_glide_emodel>  (288) 
-36.4889

>  <r_i_glide_energy>  (288) 
-34.068

>  <r_i_glide_einternal>  (288) 
4.97408

>  <r_i_glide_intrahb_reward>  (288) 
-0

>  <i_i_glide_confnum>  (288) 
11

>  <i_i_glide_posenum>  (288) 
26

>  <r_i_glide_eff_state_penalty>  (288) 
0

>  <ligand_id>  (288) 
78

>  <original_smiles>  (288) 
COC(=O)C12CCCC=C1N(CCO)C(=O)C(CC(=O)NCCC1=CCCCC1)C2

>  <smiles>  (288) 
[H]OC([H])([H])C([H])([H])N1C(=O)C([H])(C([H])([H])C(=O)N([H])C([H])([H])C([H])([H])C2=C([H])C([H])([H])C([H])([H])C([H])([H])C2([H])[H])C([H])([H])C2(C(=O)OC([H])([H])[H])C1=C([H])C([H])([H])C([H])([H])C2([H])[H]

$$$$
80:0:0
     RDKit          3D

 25 27  0  0  1  0  0  0  0  0999 V2000
    3.0125   -2.5359   -0.3847 C   0  0  0  0  0  0  0  0  0  0  0  0
    3.6333   -3.8478    0.0430 C   0  0  0  0  0  0  0  0  0  0  0  0
    5.0284   -4.0480   -0.1120 C   0  0  0  0  0  0  0  0  0  0  0  0
    5.5638   -5.2459    0.2908 C   0  0  0  0  0  0  0  0  0  0  0  0
    4.7174   -6.1717    0.8142 N   0  0  0  0  0  0  0  0  0  0  0  0
    5.0765   -7.4146    1.2640 N   0  0  0  0  0  0  0  0  0  0  0  0
    3.9447   -7.9364    1.6737 C   0  0  0  0  0  0  0  0  0  0  0  0
    2.8349   -7.0735    1.5177 C   0  0  0  0  0  0  0  0  0  0  0  0
    1.4537   -7.3753    1.8825 C   0  0  0  0  0  0  0  0  0  0  0  0
    1.0198   -8.4784    2.4842 N   0  0  0  0  0  0  0  0  0  0  0  0
   -0.3143   -8.2371    2.5628 C   0  0  0  0  0  0  0  0  0  0  0  0
   -1.2625   -9.2136    3.1690 C   0  0  0  0  0  0  0  0  0  0  0  0
   -0.7149   -7.0608    2.0869 N   0  0  0  0  0  0  0  0  0  0  0  0
    0.4708   -6.4815    1.6075 O   0  0  0  0  0  0  0  0  0  0  0  0
    3.3283   -5.9223    0.9518 C   0  0  0  0  0  0  0  0  0  0  0  0
    2.7971   -4.7459    0.5602 N   0  0  0  0  0  0  0  0  0  0  0  0
    3.7532   -1.8457   -0.7959 H   0  0  0  0  0  0  0  0  0  0  0  0
    2.5408   -2.0454    0.4687 H   0  0  0  0  0  0  0  0  0  0  0  0
    2.2513   -2.7076   -1.1482 H   0  0  0  0  0  0  0  0  0  0  0  0
    5.6670   -3.2834   -0.5425 H   0  0  0  0  0  0  0  0  0  0  0  0
    6.6136   -5.5065    0.2151 H   0  0  0  0  0  0  0  0  0  0  0  0
    3.9323   -8.9360    2.0809 H   0  0  0  0  0  0  0  0  0  0  0  0
   -2.2853   -8.8411    3.1597 H   0  0  0  0  0  0  0  0  0  0  0  0
   -0.9830   -9.4057    4.2044 H   0  0  0  0  0  0  0  0  0  0  0  0
   -1.2372  -10.1554    2.6201 H   0  0  0  0  0  0  0  0  0  0  0  0
  1  2  1  0
  1 17  1  0
  1 18  1  0
  1 19  1  0
  2 16  2  0
  2  3  1  0
  3  4  2  0
  3 20  1  0
  4  5  1  0
  4 21  1  0
  5 15  1  0
  5  6  1  0
  6  7  2  0
  7  8  1  0
  7 22  1  0
  8  9  1  0
  8 15  2  0
  9 14  1  0
  9 10  2  0
 10 11  1  0
 11 12  1  0
 11 13  2  0
 12 23  1  0
 12 24  1  0
 12 25  1  0
 13 14  1  0
 15 16  1  0
M  END
>  <i_m_ct_stereo_status>  (289) 
1

>  <s_m_source_file>  (289) 
/var/tmp/pbs.5076255.sched01/tmpo609hgx5/90rinj4u0e.sdf

>  <i_m_source_file_index>  (289) 
33

>  <i_lp_mmshare_version>  (289) 
48012

>  <i_f3d_flags>  (289) 
0

>  <s_epik_input>  (289) 
W2NIXTFbY0hdYyhbQ0gzXSluYyhuMTIpYyhbY0hdbjIpLWMzbmMoW0NIM10pbm8z

>  <s_epik_cmdline>  (289) 
J2VwaWtfcHl0aG9uJywgJy1waHQnLCAnMi4wJywgJy1waCcsICc3LjAnLCAnLXRuJywgJzgnLCAnLW1hJywgJzIwMCcsICctaW1hZScsICc8aW5maWxlLm1hZT4nLCAnLW9tYWUnLCAnPG91dGZpbGUubWFlPic=

>  <r_lp_tautomer_probability>  (289) 
1

>  <r_epik_Ionization_Penalty>  (289) 
2.99922e-09

>  <r_epik_Ionization_Penalty_Charging>  (289) 
0

>  <r_epik_Ionization_Penalty_Neutral>  (289) 
2.99922e-09

>  <r_epik_State_Penalty>  (289) 
-0

>  <r_epik_Charging_Adjusted_Penalty>  (289) 
0

>  <i_epik_Tot_Q>  (289) 
0

>  <i_epik_Tot_abs_Q>  (289) 
0

>  <s_lp_Force_Field>  (289) 
OPLS3e

>  <r_lp_Energy>  (289) 
4.36878

>  <b_lp_Chiralities_Consistent>  (289) 
1

>  <s_lp_Variant>  (289) 
80:0-1

>  <s_i_glide_gridfile>  (289) 
pfpi4k_grid

>  <i_i_glide_lignum>  (289) 
33

>  <i_i_glide_rotatable_bonds>  (289) 
1

>  <r_i_docking_score>  (289) 
-3.75879

>  <r_i_glide_ligand_efficiency>  (289) 
-0.234925

>  <r_i_glide_ligand_efficiency_sa>  (289) 
-0.591973

>  <r_i_glide_ligand_efficiency_ln>  (289) 
-0.996343

>  <r_i_glide_gscore>  (289) 
-3.75879

>  <r_i_glide_lipo>  (289) 
-0.17422

>  <r_i_glide_hbond>  (289) 
0

>  <r_i_glide_metal>  (289) 
-0

>  <r_i_glide_rewards>  (289) 
-2.10076

>  <r_i_glide_evdw>  (289) 
-20.3343

>  <r_i_glide_ecoul>  (289) 
-3.86322

>  <r_i_glide_erotb>  (289) 
0.361159

>  <r_i_glide_esite>  (289) 
-0.248774

>  <r_i_glide_emodel>  (289) 
-30.7024

>  <r_i_glide_energy>  (289) 
-24.1976

>  <r_i_glide_einternal>  (289) 
0.0150569

>  <r_i_glide_intrahb_reward>  (289) 
-0

>  <i_i_glide_confnum>  (289) 
4

>  <i_i_glide_posenum>  (289) 
14

>  <r_i_glide_eff_state_penalty>  (289) 
0

>  <ligand_id>  (289) 
80

>  <original_smiles>  (289) 
Cc1ccn2ncc(-c3nc(C)no3)c2n1

>  <smiles>  (289) 
[H]c1nn2c([H])c([H])c(C([H])([H])[H])nc2c1-c1nc(C([H])([H])[H])no1

$$$$
80:0:1
     RDKit          3D

 25 27  0  0  1  0  0  0  0  0999 V2000
    3.3884   -2.0037   -2.2904 C   0  0  0  0  0  0  0  0  0  0  0  0
    4.2010   -2.8921   -1.3690 C   0  0  0  0  0  0  0  0  0  0  0  0
    5.5962   -2.6875   -1.2403 C   0  0  0  0  0  0  0  0  0  0  0  0
    6.3043   -3.5173   -0.4018 C   0  0  0  0  0  0  0  0  0  0  0  0
    5.6169   -4.4981    0.2432 N   0  0  0  0  0  0  0  0  0  0  0  0
    6.1586   -5.4166    1.1036 N   0  0  0  0  0  0  0  0  0  0  0  0
    5.1273   -6.1422    1.4688 C   0  0  0  0  0  0  0  0  0  0  0  0
    3.9065   -5.7369    0.8805 C   0  0  0  0  0  0  0  0  0  0  0  0
    2.5975   -6.3514    1.0971 C   0  0  0  0  0  0  0  0  0  0  0  0
    2.3380   -7.4036    1.8639 N   0  0  0  0  0  0  0  0  0  0  0  0
    0.9968   -7.5501    1.6889 C   0  0  0  0  0  0  0  0  0  0  0  0
    0.2201   -8.6285    2.3718 C   0  0  0  0  0  0  0  0  0  0  0  0
    0.4166   -6.6568    0.8960 N   0  0  0  0  0  0  0  0  0  0  0  0
    1.4960   -5.8551    0.4722 O   0  0  0  0  0  0  0  0  0  0  0  0
    4.2170   -4.6634    0.0825 C   0  0  0  0  0  0  0  0  0  0  0  0
    3.5196   -3.8361   -0.7198 N   0  0  0  0  0  0  0  0  0  0  0  0
    4.0100   -1.2418   -2.7668 H   0  0  0  0  0  0  0  0  0  0  0  0
    2.6163   -1.4902   -1.7264 H   0  0  0  0  0  0  0  0  0  0  0  0
    2.9056   -2.5951   -3.0699 H   0  0  0  0  0  0  0  0  0  0  0  0
    6.1014   -1.9035   -1.7851 H   0  0  0  0  0  0  0  0  0  0  0  0
    7.3750   -3.4507   -0.2239 H   0  0  0  0  0  0  0  0  0  0  0  0
    5.2665   -6.9575    2.1651 H   0  0  0  0  0  0  0  0  0  0  0  0
   -0.8371   -8.5829    2.1120 H   0  0  0  0  0  0  0  0  0  0  0  0
    0.3114   -8.5309    3.4552 H   0  0  0  0  0  0  0  0  0  0  0  0
    0.5973   -9.6082    2.0739 H   0  0  0  0  0  0  0  0  0  0  0  0
  1  2  1  0
  1 17  1  0
  1 18  1  0
  1 19  1  0
  2 16  2  0
  2  3  1  0
  3  4  2  0
  3 20  1  0
  4  5  1  0
  4 21  1  0
  5 15  1  0
  5  6  1  0
  6  7  2  0
  7  8  1  0
  7 22  1  0
  8  9  1  0
  8 15  2  0
  9 14  1  0
  9 10  2  0
 10 11  1  0
 11 12  1  0
 11 13  2  0
 12 23  1  0
 12 24  1  0
 12 25  1  0
 13 14  1  0
 15 16  1  0
M  END
>  <i_m_ct_stereo_status>  (290) 
1

>  <s_m_source_file>  (290) 
/var/tmp/pbs.5076255.sched01/tmpo609hgx5/90rinj4u0e.sdf

>  <i_m_source_file_index>  (290) 
33

>  <i_lp_mmshare_version>  (290) 
48012

>  <i_f3d_flags>  (290) 
0

>  <s_epik_input>  (290) 
W2NIXTFbY0hdYyhbQ0gzXSluYyhuMTIpYyhbY0hdbjIpLWMzbmMoW0NIM10pbm8z

>  <s_epik_cmdline>  (290) 
J2VwaWtfcHl0aG9uJywgJy1waHQnLCAnMi4wJywgJy1waCcsICc3LjAnLCAnLXRuJywgJzgnLCAnLW1hJywgJzIwMCcsICctaW1hZScsICc8aW5maWxlLm1hZT4nLCAnLW9tYWUnLCAnPG91dGZpbGUubWFlPic=

>  <r_lp_tautomer_probability>  (290) 
1

>  <r_epik_Ionization_Penalty>  (290) 
2.99922e-09

>  <r_epik_Ionization_Penalty_Charging>  (290) 
0

>  <r_epik_Ionization_Penalty_Neutral>  (290) 
2.99922e-09

>  <r_epik_State_Penalty>  (290) 
-0

>  <r_epik_Charging_Adjusted_Penalty>  (290) 
0

>  <i_epik_Tot_Q>  (290) 
0

>  <i_epik_Tot_abs_Q>  (290) 
0

>  <s_lp_Force_Field>  (290) 
OPLS3e

>  <r_lp_Energy>  (290) 
4.36878

>  <b_lp_Chiralities_Consistent>  (290) 
1

>  <s_lp_Variant>  (290) 
80:0-1

>  <s_i_glide_gridfile>  (290) 
pfpi4k_grid

>  <i_i_glide_lignum>  (290) 
33

>  <i_i_glide_rotatable_bonds>  (290) 
1

>  <r_i_docking_score>  (290) 
-3.62103

>  <r_i_glide_ligand_efficiency>  (290) 
-0.226314

>  <r_i_glide_ligand_efficiency_sa>  (290) 
-0.570276

>  <r_i_glide_ligand_efficiency_ln>  (290) 
-0.959825

>  <r_i_glide_gscore>  (290) 
-3.62103

>  <r_i_glide_lipo>  (290) 
-0.200733

>  <r_i_glide_hbond>  (290) 
0

>  <r_i_glide_metal>  (290) 
-0

>  <r_i_glide_rewards>  (290) 
-2.04353

>  <r_i_glide_evdw>  (290) 
-20.8664

>  <r_i_glide_ecoul>  (290) 
-2.93861

>  <r_i_glide_erotb>  (290) 
0.361159

>  <r_i_glide_esite>  (290) 
-0.253812

>  <r_i_glide_emodel>  (290) 
-30.0561

>  <r_i_glide_energy>  (290) 
-23.805

>  <r_i_glide_einternal>  (290) 
0.00705231

>  <r_i_glide_intrahb_reward>  (290) 
-0

>  <i_i_glide_confnum>  (290) 
4

>  <i_i_glide_posenum>  (290) 
28

>  <r_i_glide_eff_state_penalty>  (290) 
0

>  <ligand_id>  (290) 
80

>  <original_smiles>  (290) 
Cc1ccn2ncc(-c3nc(C)no3)c2n1

>  <smiles>  (290) 
[H]c1nn2c([H])c([H])c(C([H])([H])[H])nc2c1-c1nc(C([H])([H])[H])no1

$$$$
80:0:2
     RDKit          3D

 25 27  0  0  1  0  0  0  0  0999 V2000
   -1.5518   -8.0587    3.0542 C   0  0  0  0  0  0  0  0  0  0  0  0
   -0.1260   -8.5464    2.8871 C   0  0  0  0  0  0  0  0  0  0  0  0
    0.2381   -9.8263    3.3657 C   0  0  0  0  0  0  0  0  0  0  0  0
    1.5352  -10.2491    3.2080 C   0  0  0  0  0  0  0  0  0  0  0  0
    2.4014   -9.3958    2.5982 N   0  0  0  0  0  0  0  0  0  0  0  0
    3.7317   -9.6291    2.3745 N   0  0  0  0  0  0  0  0  0  0  0  0
    4.1421   -8.5496    1.7560 C   0  0  0  0  0  0  0  0  0  0  0  0
    3.1265   -7.5799    1.5847 C   0  0  0  0  0  0  0  0  0  0  0  0
    3.2387   -6.2679    0.9554 C   0  0  0  0  0  0  0  0  0  0  0  0
    2.2804   -5.3945    0.6496 N   0  0  0  0  0  0  0  0  0  0  0  0
    3.0166   -4.3987    0.0811 C   0  0  0  0  0  0  0  0  0  0  0  0
    2.3830   -3.1632   -0.4438 C   0  0  0  0  0  0  0  0  0  0  0  0
    4.3284   -4.5940    0.0302 N   0  0  0  0  0  0  0  0  0  0  0  0
    4.4831   -5.8615    0.6057 O   0  0  0  0  0  0  0  0  0  0  0  0
    1.9892   -8.1242    2.1305 C   0  0  0  0  0  0  0  0  0  0  0  0
    0.7130   -7.7064    2.2851 N   0  0  0  0  0  0  0  0  0  0  0  0
   -2.1707   -8.8046    3.5595 H   0  0  0  0  0  0  0  0  0  0  0  0
   -1.9994   -7.8595    2.0789 H   0  0  0  0  0  0  0  0  0  0  0  0
   -1.5770   -7.1417    3.6470 H   0  0  0  0  0  0  0  0  0  0  0  0
   -0.4850  -10.4684    3.8640 H   0  0  0  0  0  0  0  0  0  0  0  0
    1.9138  -11.2075    3.5468 H   0  0  0  0  0  0  0  0  0  0  0  0
    5.1735   -8.4857    1.4447 H   0  0  0  0  0  0  0  0  0  0  0  0
    3.1083   -2.4687   -0.8684 H   0  0  0  0  0  0  0  0  0  0  0  0
    1.8633   -2.6579    0.3697 H   0  0  0  0  0  0  0  0  0  0  0  0
    1.6662   -3.4308   -1.2208 H   0  0  0  0  0  0  0  0  0  0  0  0
  1  2  1  0
  1 17  1  0
  1 18  1  0
  1 19  1  0
  2 16  2  0
  2  3  1  0
  3  4  2  0
  3 20  1  0
  4  5  1  0
  4 21  1  0
  5 15  1  0
  5  6  1  0
  6  7  2  0
  7  8  1  0
  7 22  1  0
  8  9  1  0
  8 15  2  0
  9 14  1  0
  9 10  2  0
 10 11  1  0
 11 12  1  0
 11 13  2  0
 12 23  1  0
 12 24  1  0
 12 25  1  0
 13 14  1  0
 15 16  1  0
M  END
>  <i_m_ct_stereo_status>  (291) 
1

>  <s_m_source_file>  (291) 
/var/tmp/pbs.5076255.sched01/tmpo609hgx5/90rinj4u0e.sdf

>  <i_m_source_file_index>  (291) 
33

>  <i_lp_mmshare_version>  (291) 
48012

>  <i_f3d_flags>  (291) 
0

>  <s_epik_input>  (291) 
W2NIXTFbY0hdYyhbQ0gzXSluYyhuMTIpYyhbY0hdbjIpLWMzbmMoW0NIM10pbm8z

>  <s_epik_cmdline>  (291) 
J2VwaWtfcHl0aG9uJywgJy1waHQnLCAnMi4wJywgJy1waCcsICc3LjAnLCAnLXRuJywgJzgnLCAnLW1hJywgJzIwMCcsICctaW1hZScsICc8aW5maWxlLm1hZT4nLCAnLW9tYWUnLCAnPG91dGZpbGUubWFlPic=

>  <r_lp_tautomer_probability>  (291) 
1

>  <r_epik_Ionization_Penalty>  (291) 
2.99922e-09

>  <r_epik_Ionization_Penalty_Charging>  (291) 
0

>  <r_epik_Ionization_Penalty_Neutral>  (291) 
2.99922e-09

>  <r_epik_State_Penalty>  (291) 
-0

>  <r_epik_Charging_Adjusted_Penalty>  (291) 
0

>  <i_epik_Tot_Q>  (291) 
0

>  <i_epik_Tot_abs_Q>  (291) 
0

>  <s_lp_Force_Field>  (291) 
OPLS3e

>  <r_lp_Energy>  (291) 
4.36878

>  <b_lp_Chiralities_Consistent>  (291) 
1

>  <s_lp_Variant>  (291) 
80:0-1

>  <s_i_glide_gridfile>  (291) 
pfpi4k_grid

>  <i_i_glide_lignum>  (291) 
33

>  <i_i_glide_rotatable_bonds>  (291) 
1

>  <r_i_docking_score>  (291) 
-3.19365

>  <r_i_glide_ligand_efficiency>  (291) 
-0.199603

>  <r_i_glide_ligand_efficiency_sa>  (291) 
-0.502969

>  <r_i_glide_ligand_efficiency_ln>  (291) 
-0.846542

>  <r_i_glide_gscore>  (291) 
-3.19365

>  <r_i_glide_lipo>  (291) 
-0.1426

>  <r_i_glide_hbond>  (291) 
0

>  <r_i_glide_metal>  (291) 
-0

>  <r_i_glide_rewards>  (291) 
-1.95758

>  <r_i_glide_evdw>  (291) 
-21.6105

>  <r_i_glide_ecoul>  (291) 
-2.16704

>  <r_i_glide_erotb>  (291) 
0.361159

>  <r_i_glide_esite>  (291) 
-0.0490524

>  <r_i_glide_emodel>  (291) 
-29.3305

>  <r_i_glide_energy>  (291) 
-23.7776

>  <r_i_glide_einternal>  (291) 
0.0743994

>  <r_i_glide_intrahb_reward>  (291) 
-0

>  <i_i_glide_confnum>  (291) 
3

>  <i_i_glide_posenum>  (291) 
2

>  <r_i_glide_eff_state_penalty>  (291) 
0

>  <ligand_id>  (291) 
80

>  <original_smiles>  (291) 
Cc1ccn2ncc(-c3nc(C)no3)c2n1

>  <smiles>  (291) 
[H]c1nn2c([H])c([H])c(C([H])([H])[H])nc2c1-c1nc(C([H])([H])[H])no1

$$$$
81:0:0
     RDKit          3D

 83 87  0  0  1  0  0  0  0  0999 V2000
    4.6030  -11.7080    3.2858 C   0  0  0  0  0  0  0  0  0  0  0  0
    4.0623  -11.0632    4.5544 C   0  0  0  0  0  0  0  0  0  0  0  0
    4.7333  -11.0095    5.5845 O   0  0  0  0  0  0  0  0  0  0  0  0
    2.8213  -10.5708    4.3948 O   0  0  0  0  0  0  0  0  0  0  0  0
    2.1453   -9.9475    5.4806 C   0  0  2  0  0  0  0  0  0  0  0  0
    0.6483  -10.0215    5.2135 C   0  0  0  0  0  0  0  0  0  0  0  0
    0.2620   -8.7165    4.4846 C   0  0  2  0  0  0  0  0  0  0  0  0
   -0.1056   -8.9741    3.0015 C   0  0  1  0  0  0  0  0  0  0  0  0
   -1.5899   -8.7191    2.6851 C   0  0  0  0  0  0  0  0  0  0  0  0
    0.8398   -8.1144    2.1759 C   0  0  0  0  0  0  0  0  0  0  0  0
    2.0251   -7.7977    3.0900 C   0  0  1  0  0  0  0  0  0  0  0  0
    2.6879   -6.6288    2.6163 O   0  0  0  0  0  0  0  0  0  0  0  0
    3.6232   -6.6977    1.6480 C   0  0  0  0  0  0  0  0  0  0  0  0
    4.1734   -5.3230    1.2888 C   0  0  0  0  0  0  0  0  0  0  0  0
    4.0286   -7.7188    1.0929 O   0  0  0  0  0  0  0  0  0  0  0  0
    1.4869   -7.7356    4.5653 C   0  0  2  0  0  0  0  0  0  0  0  0
    2.4593   -8.4361    5.5648 C   0  0  1  0  0  0  0  0  0  0  0  0
    2.3288   -7.9100    7.0191 C   0  0  0  0  0  0  0  0  0  0  0  0
    0.9218   -7.3888    7.3681 C   0  0  1  0  0  0  0  0  0  0  0  0
    0.7731   -7.2864    8.7697 O   0  0  0  0  0  0  0  0  0  0  0  0
    0.4421   -6.1730    6.4908 C   0  0  1  0  0  0  0  0  0  0  0  0
    0.6708   -4.6772    6.9834 C   0  0  2  0  0  0  0  0  0  0  0  0
    0.5566   -4.4916    8.5216 C   0  0  0  0  0  0  0  0  0  0  0  0
   -0.3779   -3.7078    6.3270 C   0  0  1  0  0  0  0  0  0  0  0  0
   -1.6597   -3.8413    6.9187 O   0  0  0  0  0  0  0  0  0  0  0  0
    0.0192   -2.2288    6.3210 C   0  0  0  0  0  0  0  0  0  0  0  0
    1.3912   -2.0374    5.6524 C   0  0  1  0  0  0  0  0  0  0  0  0
    1.7233   -0.6538    5.5955 O   0  0  0  0  0  0  0  0  0  0  0  0
    1.2594    0.1113    4.5857 C   0  0  0  0  0  0  0  0  0  0  0  0
    1.8019    1.5347    4.6363 C   0  0  0  0  0  0  0  0  0  0  0  0
    0.4836   -0.2522    3.7000 O   0  0  0  0  0  0  0  0  0  0  0  0
    2.5107   -2.8379    6.3666 C   0  0  0  0  0  0  0  0  0  0  0  0
    3.8304   -2.6658    5.5731 C   0  0  0  0  0  0  0  0  0  0  0  0
    2.8004   -2.2442    7.7748 C   0  0  0  0  0  0  0  0  0  0  0  0
    2.0942   -4.3599    6.4445 C   0  0  2  0  0  0  0  0  0  0  0  0
    2.2025   -5.1616    5.1101 C   0  0  1  0  0  0  0  0  0  0  0  0
    3.5187   -5.6700    5.0566 O   0  0  0  0  0  0  0  0  0  0  0  0
    1.0896   -6.2729    5.0642 C   0  0  1  0  0  0  0  0  0  0  0  0
    0.1178   -5.8499    4.1250 O   0  0  0  0  0  0  0  0  0  0  0  0
    4.6628  -10.9775    2.4792 H   0  0  0  0  0  0  0  0  0  0  0  0
    3.9491  -12.5202    2.9627 H   0  0  0  0  0  0  0  0  0  0  0  0
    5.6005  -12.1147    3.4547 H   0  0  0  0  0  0  0  0  0  0  0  0
    2.3889  -10.4774    6.4050 H   0  0  0  0  0  0  0  0  0  0  0  0
    0.3723  -10.9356    4.6851 H   0  0  0  0  0  0  0  0  0  0  0  0
    0.1236  -10.0806    6.1644 H   0  0  0  0  0  0  0  0  0  0  0  0
   -0.6089   -8.2974    4.9907 H   0  0  0  0  0  0  0  0  0  0  0  0
    0.1033  -10.0162    2.7531 H   0  0  0  0  0  0  0  0  0  0  0  0
   -1.8837   -7.6906    2.8983 H   0  0  0  0  0  0  0  0  0  0  0  0
   -2.2265   -9.3761    3.2794 H   0  0  0  0  0  0  0  0  0  0  0  0
   -1.8017   -8.9214    1.6374 H   0  0  0  0  0  0  0  0  0  0  0  0
    1.1761   -8.6432    1.2818 H   0  0  0  0  0  0  0  0  0  0  0  0
    0.3407   -7.2047    1.8492 H   0  0  0  0  0  0  0  0  0  0  0  0
    2.7153   -8.6369    3.0198 H   0  0  0  0  0  0  0  0  0  0  0  0
    4.6731   -4.8808    2.1522 H   0  0  0  0  0  0  0  0  0  0  0  0
    3.3644   -4.6599    0.9805 H   0  0  0  0  0  0  0  0  0  0  0  0
    4.8931   -5.3956    0.4713 H   0  0  0  0  0  0  0  0  0  0  0  0
    3.4970   -8.2813    5.2698 H   0  0  0  0  0  0  0  0  0  0  0  0
    2.6070   -8.7081    7.7075 H   0  0  0  0  0  0  0  0  0  0  0  0
    3.0593   -7.1238    7.2044 H   0  0  0  0  0  0  0  0  0  0  0  0
    0.2324   -8.1987    7.1612 H   0  0  0  0  0  0  0  0  0  0  0  0
    1.0965   -8.0820    9.1657 H   0  0  0  0  0  0  0  0  0  0  0  0
   -0.6329   -6.3139    6.4081 H   0  0  0  0  0  0  0  0  0  0  0  0
    0.4059   -3.4579    8.8124 H   0  0  0  0  0  0  0  0  0  0  0  0
    1.4394   -4.8466    9.0524 H   0  0  0  0  0  0  0  0  0  0  0  0
   -0.3131   -5.0186    8.9152 H   0  0  0  0  0  0  0  0  0  0  0  0
   -0.5202   -3.9354    5.2811 H   0  0  0  0  0  0  0  0  0  0  0  0
   -1.9090   -4.7547    6.9031 H   0  0  0  0  0  0  0  0  0  0  0  0
   -0.7326   -1.6768    5.7595 H   0  0  0  0  0  0  0  0  0  0  0  0
    0.0058   -1.8059    7.3217 H   0  0  0  0  0  0  0  0  0  0  0  0
    1.3225   -2.4154    4.6300 H   0  0  0  0  0  0  0  0  0  0  0  0
    1.5711    1.9935    5.5991 H   0  0  0  0  0  0  0  0  0  0  0  0
    1.3570    2.1464    3.8488 H   0  0  0  0  0  0  0  0  0  0  0  0
    2.8850    1.5377    4.5019 H   0  0  0  0  0  0  0  0  0  0  0  0
    4.6279   -3.2846    5.9879 H   0  0  0  0  0  0  0  0  0  0  0  0
    4.1796   -1.6323    5.5989 H   0  0  0  0  0  0  0  0  0  0  0  0
    3.7150   -2.9241    4.5218 H   0  0  0  0  0  0  0  0  0  0  0  0
    3.4575   -2.8892    8.3606 H   0  0  0  0  0  0  0  0  0  0  0  0
    1.9088   -2.0623    8.3680 H   0  0  0  0  0  0  0  0  0  0  0  0
    3.2935   -1.2717    7.7025 H   0  0  0  0  0  0  0  0  0  0  0  0
    2.7879   -4.8292    7.1448 H   0  0  0  0  0  0  0  0  0  0  0  0
    2.0921   -4.4988    4.2518 H   0  0  0  0  0  0  0  0  0  0  0  0
    3.6136   -6.1198    4.2295 H   0  0  0  0  0  0  0  0  0  0  0  0
   -0.0630   -4.9371    4.2869 H   0  0  0  0  0  0  0  0  0  0  0  0
  1  2  1  0
  1 40  1  0
  1 41  1  0
  1 42  1  0
  2  3  2  0
  2  4  1  0
  4  5  1  0
  5 17  1  0
  5  6  1  0
  5 43  1  1
  6  7  1  0
  6 44  1  0
  6 45  1  0
  7 16  1  0
  7  8  1  0
  7 46  1  1
  8  9  1  0
  8 10  1  0
  8 47  1  6
  9 48  1  0
  9 49  1  0
  9 50  1  0
 10 11  1  0
 10 51  1  0
 10 52  1  0
 11 12  1  0
 11 16  1  0
 11 53  1  1
 12 13  1  0
 13 14  1  0
 13 15  2  0
 14 54  1  0
 14 55  1  0
 14 56  1  0
 16 38  1  1
 16 17  1  0
 17 18  1  0
 17 57  1  6
 18 19  1  0
 18 58  1  0
 18 59  1  0
 19 20  1  0
 19 21  1  0
 19 60  1  6
 20 61  1  0
 21 38  1  0
 21 22  1  0
 21 62  1  6
 22 35  1  0
 22 23  1  1
 22 24  1  0
 23 63  1  0
 23 64  1  0
 23 65  1  0
 24 25  1  0
 24 26  1  0
 24 66  1  6
 25 67  1  0
 26 27  1  0
 26 68  1  0
 26 69  1  0
 27 28  1  0
 27 32  1  0
 27 70  1  6
 28 29  1  0
 29 30  1  0
 29 31  2  0
 30 71  1  0
 30 72  1  0
 30 73  1  0
 32 33  1  0
 32 34  1  0
 32 35  1  0
 33 74  1  0
 33 75  1  0
 33 76  1  0
 34 77  1  0
 34 78  1  0
 34 79  1  0
 35 36  1  0
 35 80  1  1
 36 37  1  0
 36 38  1  0
 36 81  1  6
 37 82  1  0
 38 39  1  6
 39 83  1  0
M  END
>  <i_m_ct_stereo_status>  (292) 
1

>  <s_m_source_file>  (292) 
/var/tmp/pbs.5076255.sched01/tmpo609hgx5/90rinj4u0e.sdf

>  <i_m_source_file_index>  (292) 
34

>  <i_lp_mmshare_version>  (292) 
48012

>  <i_f3d_flags>  (292) 
0

>  <s_epik_input>  (292) 
W0NIM11DKD1PKU9bQ0BASF0xW0NIMl1bQ0BIXShbQ0gzXSlbQ0BIXShbQ0BdMTIzKVtDSDJdW0NAQEhdKE9DKD1PKVtDSDNdKVtDQEBIXTJbQ0gyXVtDQEBIXShbT0hdKVtDQEhdNFtDQEBdNShbQ0gzXSlbQ0BASF0oW0NAQEhdKFtPSF0pW0NAQF0zNFtPSF0pQyhbQ0gzXSkoW0NIM10pW0NAQEhdKFtDSDJdW0NAQEhdNVtPSF0pT0MoPU8pW0NIM10=

>  <s_epik_cmdline>  (292) 
J2VwaWtfcHl0aG9uJywgJy1waHQnLCAnMi4wJywgJy1waCcsICc3LjAnLCAnLXRuJywgJzgnLCAnLW1hJywgJzIwMCcsICctaW1hZScsICc8aW5maWxlLm1hZT4nLCAnLW9tYWUnLCAnPG91dGZpbGUubWFlPic=

>  <r_lp_tautomer_probability>  (292) 
1

>  <r_epik_Ionization_Penalty>  (292) 
1.06175e-06

>  <r_epik_Ionization_Penalty_Charging>  (292) 
0

>  <r_epik_Ionization_Penalty_Neutral>  (292) 
1.06175e-06

>  <r_epik_State_Penalty>  (292) 
-0

>  <r_epik_Charging_Adjusted_Penalty>  (292) 
0

>  <i_epik_Tot_Q>  (292) 
0

>  <i_epik_Tot_abs_Q>  (292) 
0

>  <s_epik_Chemistry_Notes>  (292) 
This compound has an ester and may undergo hydrolysis at high or low pH.

>  <s_lp_Force_Field>  (292) 
OPLS3e

>  <r_lp_Energy>  (292) 
63.9522

>  <b_lp_Chiralities_Consistent>  (292) 
1

>  <s_lp_Variant>  (292) 
81:0-1

>  <s_i_glide_gridfile>  (292) 
pfpi4k_grid

>  <i_i_glide_lignum>  (292) 
34

>  <i_i_glide_rotatable_bonds>  (292) 
10

>  <r_i_docking_score>  (292) 
-2.79979

>  <r_i_glide_ligand_efficiency>  (292) 
-0.0717894

>  <r_i_glide_ligand_efficiency_sa>  (292) 
-0.243453

>  <r_i_glide_ligand_efficiency_ln>  (292) 
-0.600354

>  <r_i_glide_gscore>  (292) 
-2.79979

>  <r_i_glide_lipo>  (292) 
-0.0701291

>  <r_i_glide_hbond>  (292) 
0

>  <r_i_glide_metal>  (292) 
-0

>  <r_i_glide_rewards>  (292) 
-0.566736

>  <r_i_glide_evdw>  (292) 
-32.6512

>  <r_i_glide_ecoul>  (292) 
-4.32319

>  <r_i_glide_erotb>  (292) 
0.132245

>  <r_i_glide_esite>  (292) 
-0.0141299

>  <r_i_glide_emodel>  (292) 
-47.8624

>  <r_i_glide_energy>  (292) 
-36.9744

>  <r_i_glide_einternal>  (292) 
1.43547

>  <r_i_glide_intrahb_reward>  (292) 
-0.5

>  <i_i_glide_confnum>  (292) 
3

>  <i_i_glide_posenum>  (292) 
20

>  <r_i_glide_eff_state_penalty>  (292) 
0

>  <ligand_id>  (292) 
81

>  <original_smiles>  (292) 
CC(=O)OC1CC2C(C)CC(OC(C)=O)C23C1CC(O)C1C2(C)C(O)CC(OC(C)=O)C(C)(C)C2C(O)C13O

>  <smiles>  (292) 
[H]OC1([H])C([H])([H])C2([H])C([H])(OC(=O)C([H])([H])[H])C([H])([H])C3([H])C([H])(C([H])([H])[H])C([H])([H])C([H])(OC(=O)C([H])([H])[H])C23C2(O[H])C([H])(O[H])C3([H])C(C([H])([H])[H])(C([H])([H])[H])C([H])(OC(=O)C([H])([H])[H])C([H])([H])C([H])(O[H])C3(C([H])([H])[H])C12[H]

$$$$
81:0:1
     RDKit          3D

 83 87  0  0  1  0  0  0  0  0999 V2000
    4.8152  -11.8929    3.2830 C   0  0  0  0  0  0  0  0  0  0  0  0
    4.2330  -11.2910    4.5565 C   0  0  0  0  0  0  0  0  0  0  0  0
    4.8623  -11.2766    5.6078 O   0  0  0  0  0  0  0  0  0  0  0  0
    2.9976  -10.7894    4.3656 O   0  0  0  0  0  0  0  0  0  0  0  0
    2.2683  -10.2162    5.4487 C   0  0  2  0  0  0  0  0  0  0  0  0
    0.7803  -10.3028    5.1345 C   0  0  0  0  0  0  0  0  0  0  0  0
    0.3997   -8.9869    4.4266 C   0  0  2  0  0  0  0  0  0  0  0  0
    0.0870   -9.2027    2.9267 C   0  0  1  0  0  0  0  0  0  0  0  0
   -1.3885   -8.9546    2.5655 C   0  0  0  0  0  0  0  0  0  0  0  0
    1.0462   -8.3065    2.1546 C   0  0  0  0  0  0  0  0  0  0  0  0
    2.1959   -8.0025    3.1180 C   0  0  1  0  0  0  0  0  0  0  0  0
    2.8631   -6.8127    2.7067 O   0  0  0  0  0  0  0  0  0  0  0  0
    3.7770   -6.8213    1.7130 C   0  0  0  0  0  0  0  0  0  0  0  0
    4.3386   -5.4310    1.4408 C   0  0  0  0  0  0  0  0  0  0  0  0
    4.1520   -7.8049    1.0770 O   0  0  0  0  0  0  0  0  0  0  0  0
    1.6051   -7.9850    4.5791 C   0  0  2  0  0  0  0  0  0  0  0  0
    2.5623   -8.7036    5.5883 C   0  0  1  0  0  0  0  0  0  0  0  0
    2.3665   -8.2313    7.0574 C   0  0  0  0  0  0  0  0  0  0  0  0
    0.9427   -7.7340    7.3714 C   0  0  1  0  0  0  0  0  0  0  0  0
    0.7504   -7.6758    8.7721 O   0  0  0  0  0  0  0  0  0  0  0  0
    0.4801   -6.5018    6.5153 C   0  0  1  0  0  0  0  0  0  0  0  0
    0.6602   -5.0235    7.0502 C   0  0  2  0  0  0  0  0  0  0  0  0
    0.4913   -4.8822    8.5909 C   0  0  0  0  0  0  0  0  0  0  0  0
   -0.3785   -4.0569    6.3702 C   0  0  1  0  0  0  0  0  0  0  0  0
   -1.6789   -4.2218    6.9210 O   0  0  0  0  0  0  0  0  0  0  0  0
   -0.0178   -2.5743    6.4526 C   0  0  0  0  0  0  0  0  0  0  0  0
    1.3945   -2.2990    5.9014 C   0  0  1  0  0  0  0  0  0  0  0  0
    1.6846   -0.8976    5.8248 O   0  0  0  0  0  0  0  0  0  0  0  0
    1.4798   -0.0484    6.8493 C   0  0  0  0  0  0  0  0  0  0  0  0
    1.9975    1.3573    6.5428 C   0  0  0  0  0  0  0  0  0  0  0  0
    0.9494   -0.3353    7.9276 O   0  0  0  0  0  0  0  0  0  0  0  0
    2.5152   -3.1407    6.5945 C   0  0  0  0  0  0  0  0  0  0  0  0
    3.8411   -2.9181    5.8197 C   0  0  0  0  0  0  0  0  0  0  0  0
    2.7731   -2.6397    8.0386 C   0  0  0  0  0  0  0  0  0  0  0  0
    2.1018   -4.6709    6.5781 C   0  0  2  0  0  0  0  0  0  0  0  0
    2.2707   -5.4232    5.2285 C   0  0  1  0  0  0  0  0  0  0  0  0
    3.5990   -5.9129    5.1913 O   0  0  0  0  0  0  0  0  0  0  0  0
    1.1717   -6.5377    5.1090 C   0  0  1  0  0  0  0  0  0  0  0  0
    0.2217   -6.1166    4.1417 O   0  0  0  0  0  0  0  0  0  0  0  0
    4.8984  -11.1327    2.5053 H   0  0  0  0  0  0  0  0  0  0  0  0
    4.1729  -12.6913    2.9121 H   0  0  0  0  0  0  0  0  0  0  0  0
    5.8059  -12.3026    3.4718 H   0  0  0  0  0  0  0  0  0  0  0  0
    2.5021  -10.7610    6.3637 H   0  0  0  0  0  0  0  0  0  0  0  0
    0.5407  -11.2013    4.5691 H   0  0  0  0  0  0  0  0  0  0  0  0
    0.2303  -10.4002    6.0655 H   0  0  0  0  0  0  0  0  0  0  0  0
   -0.4899   -8.5964    4.9214 H   0  0  0  0  0  0  0  0  0  0  0  0
    0.3191  -10.2313    2.6530 H   0  0  0  0  0  0  0  0  0  0  0  0
   -1.7045   -7.9351    2.7945 H   0  0  0  0  0  0  0  0  0  0  0  0
   -2.0431   -9.6334    3.1152 H   0  0  0  0  0  0  0  0  0  0  0  0
   -1.5646   -9.1246    1.5030 H   0  0  0  0  0  0  0  0  0  0  0  0
    1.4131   -8.8153    1.2646 H   0  0  0  0  0  0  0  0  0  0  0  0
    0.5515   -7.3915    1.8302 H   0  0  0  0  0  0  0  0  0  0  0  0
    2.9104   -8.8201    3.0434 H   0  0  0  0  0  0  0  0  0  0  0  0
    4.8622   -5.0598    2.3211 H   0  0  0  0  0  0  0  0  0  0  0  0
    3.5315   -4.7395    1.2010 H   0  0  0  0  0  0  0  0  0  0  0  0
    5.0360   -5.4547    0.6040 H   0  0  0  0  0  0  0  0  0  0  0  0
    3.6085   -8.5196    5.3311 H   0  0  0  0  0  0  0  0  0  0  0  0
    2.6438   -9.0406    7.7312 H   0  0  0  0  0  0  0  0  0  0  0  0
    3.0788   -7.4393    7.2870 H   0  0  0  0  0  0  0  0  0  0  0  0
    0.2733   -8.5497    7.1216 H   0  0  0  0  0  0  0  0  0  0  0  0
    1.0604   -8.4803    9.1545 H   0  0  0  0  0  0  0  0  0  0  0  0
   -0.5873   -6.6605    6.3928 H   0  0  0  0  0  0  0  0  0  0  0  0
    0.3118   -3.8609    8.9116 H   0  0  0  0  0  0  0  0  0  0  0  0
    1.3639   -5.2334    9.1430 H   0  0  0  0  0  0  0  0  0  0  0  0
   -0.3812   -5.4311    8.9449 H   0  0  0  0  0  0  0  0  0  0  0  0
   -0.4897   -4.2562    5.3101 H   0  0  0  0  0  0  0  0  0  0  0  0
   -1.9277   -5.1316    6.8817 H   0  0  0  0  0  0  0  0  0  0  0  0
   -0.7461   -2.0250    5.8555 H   0  0  0  0  0  0  0  0  0  0  0  0
   -0.1110   -2.2336    7.4803 H   0  0  0  0  0  0  0  0  0  0  0  0
    1.3740   -2.6197    4.8617 H   0  0  0  0  0  0  0  0  0  0  0  0
    3.0535    1.3389    6.2632 H   0  0  0  0  0  0  0  0  0  0  0  0
    1.9008    1.9905    7.4197 H   0  0  0  0  0  0  0  0  0  0  0  0
    1.4390    1.8223    5.7276 H   0  0  0  0  0  0  0  0  0  0  0  0
    4.6418   -3.5332    6.2289 H   0  0  0  0  0  0  0  0  0  0  0  0
    4.1678   -1.8818    5.8864 H   0  0  0  0  0  0  0  0  0  0  0  0
    3.7553   -3.1467    4.7577 H   0  0  0  0  0  0  0  0  0  0  0  0
    3.4157   -3.3250    8.5926 H   0  0  0  0  0  0  0  0  0  0  0  0
    1.8542   -2.4653    8.5905 H   0  0  0  0  0  0  0  0  0  0  0  0
    3.2726   -1.6729    8.0270 H   0  0  0  0  0  0  0  0  0  0  0  0
    2.7742   -5.1614    7.2827 H   0  0  0  0  0  0  0  0  0  0  0  0
    2.1714   -4.7351    4.3902 H   0  0  0  0  0  0  0  0  0  0  0  0
    3.7232   -6.3396    4.3599 H   0  0  0  0  0  0  0  0  0  0  0  0
   -0.4243   -6.7983    4.0725 H   0  0  0  0  0  0  0  0  0  0  0  0
  1  2  1  0
  1 40  1  0
  1 41  1  0
  1 42  1  0
  2  3  2  0
  2  4  1  0
  4  5  1  0
  5 17  1  0
  5  6  1  0
  5 43  1  1
  6  7  1  0
  6 44  1  0
  6 45  1  0
  7 16  1  0
  7  8  1  0
  7 46  1  1
  8  9  1  0
  8 10  1  0
  8 47  1  6
  9 48  1  0
  9 49  1  0
  9 50  1  0
 10 11  1  0
 10 51  1  0
 10 52  1  0
 11 12  1  0
 11 16  1  0
 11 53  1  1
 12 13  1  0
 13 14  1  0
 13 15  2  0
 14 54  1  0
 14 55  1  0
 14 56  1  0
 16 38  1  1
 16 17  1  0
 17 18  1  0
 17 57  1  6
 18 19  1  0
 18 58  1  0
 18 59  1  0
 19 20  1  0
 19 21  1  0
 19 60  1  6
 20 61  1  0
 21 38  1  0
 21 22  1  0
 21 62  1  6
 22 35  1  0
 22 23  1  1
 22 24  1  0
 23 63  1  0
 23 64  1  0
 23 65  1  0
 24 25  1  0
 24 26  1  0
 24 66  1  6
 25 67  1  0
 26 27  1  0
 26 68  1  0
 26 69  1  0
 27 28  1  0
 27 32  1  0
 27 70  1  6
 28 29  1  0
 29 30  1  0
 29 31  2  0
 30 71  1  0
 30 72  1  0
 30 73  1  0
 32 33  1  0
 32 34  1  0
 32 35  1  0
 33 74  1  0
 33 75  1  0
 33 76  1  0
 34 77  1  0
 34 78  1  0
 34 79  1  0
 35 36  1  0
 35 80  1  1
 36 37  1  0
 36 38  1  0
 36 81  1  6
 37 82  1  0
 38 39  1  6
 39 83  1  0
M  END
>  <i_m_ct_stereo_status>  (293) 
1

>  <s_m_source_file>  (293) 
/var/tmp/pbs.5076255.sched01/tmpo609hgx5/90rinj4u0e.sdf

>  <i_m_source_file_index>  (293) 
34

>  <i_lp_mmshare_version>  (293) 
48012

>  <i_f3d_flags>  (293) 
0

>  <s_epik_input>  (293) 
W0NIM11DKD1PKU9bQ0BASF0xW0NIMl1bQ0BIXShbQ0gzXSlbQ0BIXShbQ0BdMTIzKVtDSDJdW0NAQEhdKE9DKD1PKVtDSDNdKVtDQEBIXTJbQ0gyXVtDQEBIXShbT0hdKVtDQEhdNFtDQEBdNShbQ0gzXSlbQ0BASF0oW0NAQEhdKFtPSF0pW0NAQF0zNFtPSF0pQyhbQ0gzXSkoW0NIM10pW0NAQEhdKFtDSDJdW0NAQEhdNVtPSF0pT0MoPU8pW0NIM10=

>  <s_epik_cmdline>  (293) 
J2VwaWtfcHl0aG9uJywgJy1waHQnLCAnMi4wJywgJy1waCcsICc3LjAnLCAnLXRuJywgJzgnLCAnLW1hJywgJzIwMCcsICctaW1hZScsICc8aW5maWxlLm1hZT4nLCAnLW9tYWUnLCAnPG91dGZpbGUubWFlPic=

>  <r_lp_tautomer_probability>  (293) 
1

>  <r_epik_Ionization_Penalty>  (293) 
1.06175e-06

>  <r_epik_Ionization_Penalty_Charging>  (293) 
0

>  <r_epik_Ionization_Penalty_Neutral>  (293) 
1.06175e-06

>  <r_epik_State_Penalty>  (293) 
-0

>  <r_epik_Charging_Adjusted_Penalty>  (293) 
0

>  <i_epik_Tot_Q>  (293) 
0

>  <i_epik_Tot_abs_Q>  (293) 
0

>  <s_epik_Chemistry_Notes>  (293) 
This compound has an ester and may undergo hydrolysis at high or low pH.

>  <s_lp_Force_Field>  (293) 
OPLS3e

>  <r_lp_Energy>  (293) 
63.9522

>  <b_lp_Chiralities_Consistent>  (293) 
1

>  <s_lp_Variant>  (293) 
81:0-1

>  <s_i_glide_gridfile>  (293) 
pfpi4k_grid

>  <i_i_glide_lignum>  (293) 
34

>  <i_i_glide_rotatable_bonds>  (293) 
10

>  <r_i_docking_score>  (293) 
-2.74695

>  <r_i_glide_ligand_efficiency>  (293) 
-0.0704346

>  <r_i_glide_ligand_efficiency_sa>  (293) 
-0.238859

>  <r_i_glide_ligand_efficiency_ln>  (293) 
-0.589024

>  <r_i_glide_gscore>  (293) 
-2.74695

>  <r_i_glide_lipo>  (293) 
-0.138187

>  <r_i_glide_hbond>  (293) 
0

>  <r_i_glide_metal>  (293) 
-0

>  <r_i_glide_rewards>  (293) 
-0.564835

>  <r_i_glide_evdw>  (293) 
-31.7306

>  <r_i_glide_ecoul>  (293) 
-3.83943

>  <r_i_glide_erotb>  (293) 
0.132245

>  <r_i_glide_esite>  (293) 
-0.0137294

>  <r_i_glide_emodel>  (293) 
-42.5539

>  <r_i_glide_energy>  (293) 
-35.57

>  <r_i_glide_einternal>  (293) 
8.25538

>  <r_i_glide_intrahb_reward>  (293) 
-0.5

>  <i_i_glide_confnum>  (293) 
1

>  <i_i_glide_posenum>  (293) 
1

>  <r_i_glide_eff_state_penalty>  (293) 
0

>  <ligand_id>  (293) 
81

>  <original_smiles>  (293) 
CC(=O)OC1CC2C(C)CC(OC(C)=O)C23C1CC(O)C1C2(C)C(O)CC(OC(C)=O)C(C)(C)C2C(O)C13O

>  <smiles>  (293) 
[H]OC1([H])C([H])([H])C2([H])C([H])(OC(=O)C([H])([H])[H])C([H])([H])C3([H])C([H])(C([H])([H])[H])C([H])([H])C([H])(OC(=O)C([H])([H])[H])C23C2(O[H])C([H])(O[H])C3([H])C(C([H])([H])[H])(C([H])([H])[H])C([H])(OC(=O)C([H])([H])[H])C([H])([H])C([H])(O[H])C3(C([H])([H])[H])C12[H]

$$$$
81:0:2
     RDKit          3D

 83 87  0  0  1  0  0  0  0  0999 V2000
    4.3396  -11.8042    6.1065 C   0  0  0  0  0  0  0  0  0  0  0  0
    4.0172  -11.5048    4.6509 C   0  0  0  0  0  0  0  0  0  0  0  0
    4.7550  -11.9278    3.7477 O   0  0  0  0  0  0  0  0  0  0  0  0
    2.9163  -10.7677    4.4219 O   0  0  0  0  0  0  0  0  0  0  0  0
    2.1526  -10.1775    5.4723 C   0  0  2  0  0  0  0  0  0  0  0  0
    0.6820  -10.2287    5.1125 C   0  0  0  0  0  0  0  0  0  0  0  0
    0.3407   -8.8993    4.4212 C   0  0  2  0  0  0  0  0  0  0  0  0
    0.0430   -9.1179    2.9211 C   0  0  1  0  0  0  0  0  0  0  0  0
   -1.4282   -8.8458    2.5571 C   0  0  0  0  0  0  0  0  0  0  0  0
    1.0295   -8.2483    2.1566 C   0  0  0  0  0  0  0  0  0  0  0  0
    2.1748   -7.9649    3.1298 C   0  0  1  0  0  0  0  0  0  0  0  0
    2.8599   -6.7811    2.7189 O   0  0  0  0  0  0  0  0  0  0  0  0
    3.7865   -6.8159    1.7412 C   0  0  0  0  0  0  0  0  0  0  0  0
    4.3852   -5.4471    1.4767 C   0  0  0  0  0  0  0  0  0  0  0  0
    4.1459   -7.8106    1.1085 O   0  0  0  0  0  0  0  0  0  0  0  0
    1.5721   -7.9340    4.5846 C   0  0  2  0  0  0  0  0  0  0  0  0
    2.4973   -8.6765    5.6012 C   0  0  1  0  0  0  0  0  0  0  0  0
    2.3236   -8.1971    7.0650 C   0  0  0  0  0  0  0  0  0  0  0  0
    0.9127   -7.6806    7.3784 C   0  0  1  0  0  0  0  0  0  0  0  0
    0.7165   -7.6231    8.7746 O   0  0  0  0  0  0  0  0  0  0  0  0
    0.4801   -6.4371    6.5213 C   0  0  1  0  0  0  0  0  0  0  0  0
    0.6938   -4.9620    7.0676 C   0  0  2  0  0  0  0  0  0  0  0  0
    0.5219   -4.8234    8.6069 C   0  0  0  0  0  0  0  0  0  0  0  0
   -0.3217   -3.9654    6.4043 C   0  0  1  0  0  0  0  0  0  0  0  0
   -1.6164   -4.0951    6.9533 O   0  0  0  0  0  0  0  0  0  0  0  0
    0.0817   -2.4923    6.4575 C   0  0  0  0  0  0  0  0  0  0  0  0
    1.4757   -2.2873    5.8516 C   0  0  1  0  0  0  0  0  0  0  0  0
    1.8179   -0.9013    5.8520 O   0  0  0  0  0  0  0  0  0  0  0  0
    1.4177   -0.1064    4.8450 C   0  0  0  0  0  0  0  0  0  0  0  0
    1.9489    1.3116    4.9712 C   0  0  0  0  0  0  0  0  0  0  0  0
    0.6943   -0.4435    3.9040 O   0  0  0  0  0  0  0  0  0  0  0  0
    2.5708   -3.1145    6.5851 C   0  0  0  0  0  0  0  0  0  0  0  0
    3.9180   -2.9315    5.8503 C   0  0  0  0  0  0  0  0  0  0  0  0
    2.8059   -2.5687    8.0183 C   0  0  0  0  0  0  0  0  0  0  0  0
    2.1446   -4.6352    6.5971 C   0  0  2  0  0  0  0  0  0  0  0  0
    2.2978   -5.3941    5.2493 C   0  0  1  0  0  0  0  0  0  0  0  0
    3.6139   -5.9158    5.2293 O   0  0  0  0  0  0  0  0  0  0  0  0
    1.1762   -6.4853    5.1238 C   0  0  1  0  0  0  0  0  0  0  0  0
    0.2592   -6.0179    4.1559 O   0  0  0  0  0  0  0  0  0  0  0  0
    3.5149  -12.3593    6.5562 H   0  0  0  0  0  0  0  0  0  0  0  0
    4.5021  -10.8855    6.6613 H   0  0  0  0  0  0  0  0  0  0  0  0
    5.2489  -12.4168    6.2056 H   0  0  0  0  0  0  0  0  0  0  0  0
    2.2823  -10.7045    6.4186 H   0  0  0  0  0  0  0  0  0  0  0  0
    0.4284  -11.1276    4.5430 H   0  0  0  0  0  0  0  0  0  0  0  0
    0.1203  -10.3160    6.0304 H   0  0  0  0  0  0  0  0  0  0  0  0
   -0.5482   -8.4881    4.9058 H   0  0  0  0  0  0  0  0  0  0  0  0
    0.2574  -10.1535    2.6522 H   0  0  0  0  0  0  0  0  0  0  0  0
   -1.7178   -7.8218    2.7891 H   0  0  0  0  0  0  0  0  0  0  0  0
   -2.0910   -9.5091    3.1085 H   0  0  0  0  0  0  0  0  0  0  0  0
   -1.6013   -9.0182    1.4903 H   0  0  0  0  0  0  0  0  0  0  0  0
    1.4075   -8.7612    1.2710 H   0  0  0  0  0  0  0  0  0  0  0  0
    0.5505   -7.3304    1.8350 H   0  0  0  0  0  0  0  0  0  0  0  0
    2.8714   -8.8023    3.0658 H   0  0  0  0  0  0  0  0  0  0  0  0
    4.9143   -5.0868    2.3592 H   0  0  0  0  0  0  0  0  0  0  0  0
    3.5981   -4.7299    1.2286 H   0  0  0  0  0  0  0  0  0  0  0  0
    5.0901   -5.4857    0.6432 H   0  0  0  0  0  0  0  0  0  0  0  0
    3.5433   -8.5433    5.3420 H   0  0  0  0  0  0  0  0  0  0  0  0
    2.5763   -9.0194    7.7331 H   0  0  0  0  0  0  0  0  0  0  0  0
    3.0609   -7.4202    7.3027 H   0  0  0  0  0  0  0  0  0  0  0  0
    0.2303   -8.4825    7.1174 H   0  0  0  0  0  0  0  0  0  0  0  0
    1.0160   -8.4417    9.1564 H   0  0  0  0  0  0  0  0  0  0  0  0
   -0.5903   -6.5733    6.3849 H   0  0  0  0  0  0  0  0  0  0  0  0
    0.3664   -3.7968    8.9239 H   0  0  0  0  0  0  0  0  0  0  0  0
    1.3822   -5.2020    9.1618 H   0  0  0  0  0  0  0  0  0  0  0  0
   -0.3658   -5.3556    8.9481 H   0  0  0  0  0  0  0  0  0  0  0  0
   -0.4278   -4.1593    5.3439 H   0  0  0  0  0  0  0  0  0  0  0  0
   -1.8770   -5.0035    6.8925 H   0  0  0  0  0  0  0  0  0  0  0  0
   -0.6409   -1.9173    5.8859 H   0  0  0  0  0  0  0  0  0  0  0  0
    0.0356   -2.1026    7.4691 H   0  0  0  0  0  0  0  0  0  0  0  0
    1.4495   -2.6333    4.8119 H   0  0  0  0  0  0  0  0  0  0  0  0
    1.6653    1.7408    5.9300 H   0  0  0  0  0  0  0  0  0  0  0  0
    1.5506    1.9464    4.1787 H   0  0  0  0  0  0  0  0  0  0  0  0
    3.0396    1.3200    4.8975 H   0  0  0  0  0  0  0  0  0  0  0  0
    4.6931   -3.5685    6.2771 H   0  0  0  0  0  0  0  0  0  0  0  0
    4.2720   -1.9019    5.9210 H   0  0  0  0  0  0  0  0  0  0  0  0
    3.8448   -3.1562    4.7851 H   0  0  0  0  0  0  0  0  0  0  0  0
    3.4377   -3.2396    8.6058 H   0  0  0  0  0  0  0  0  0  0  0  0
    1.8974   -2.4033    8.5817 H   0  0  0  0  0  0  0  0  0  0  0  0
    3.3066   -1.6039    7.9953 H   0  0  0  0  0  0  0  0  0  0  0  0
    2.8051   -5.1344    7.3101 H   0  0  0  0  0  0  0  0  0  0  0  0
    2.2270   -4.6983    4.4041 H   0  0  0  0  0  0  0  0  0  0  0  0
    3.7379   -6.3466    4.3910 H   0  0  0  0  0  0  0  0  0  0  0  0
    0.7009   -6.0824    3.3216 H   0  0  0  0  0  0  0  0  0  0  0  0
  1  2  1  0
  1 40  1  0
  1 41  1  0
  1 42  1  0
  2  3  2  0
  2  4  1  0
  4  5  1  0
  5 17  1  0
  5  6  1  0
  5 43  1  1
  6  7  1  0
  6 44  1  0
  6 45  1  0
  7 16  1  0
  7  8  1  0
  7 46  1  1
  8  9  1  0
  8 10  1  0
  8 47  1  6
  9 48  1  0
  9 49  1  0
  9 50  1  0
 10 11  1  0
 10 51  1  0
 10 52  1  0
 11 12  1  0
 11 16  1  0
 11 53  1  1
 12 13  1  0
 13 14  1  0
 13 15  2  0
 14 54  1  0
 14 55  1  0
 14 56  1  0
 16 38  1  1
 16 17  1  0
 17 18  1  0
 17 57  1  6
 18 19  1  0
 18 58  1  0
 18 59  1  0
 19 20  1  0
 19 21  1  0
 19 60  1  6
 20 61  1  0
 21 38  1  0
 21 22  1  0
 21 62  1  6
 22 35  1  0
 22 23  1  1
 22 24  1  0
 23 63  1  0
 23 64  1  0
 23 65  1  0
 24 25  1  0
 24 26  1  0
 24 66  1  6
 25 67  1  0
 26 27  1  0
 26 68  1  0
 26 69  1  0
 27 28  1  0
 27 32  1  0
 27 70  1  6
 28 29  1  0
 29 30  1  0
 29 31  2  0
 30 71  1  0
 30 72  1  0
 30 73  1  0
 32 33  1  0
 32 34  1  0
 32 35  1  0
 33 74  1  0
 33 75  1  0
 33 76  1  0
 34 77  1  0
 34 78  1  0
 34 79  1  0
 35 36  1  0
 35 80  1  1
 36 37  1  0
 36 38  1  0
 36 81  1  6
 37 82  1  0
 38 39  1  6
 39 83  1  0
M  END
>  <i_m_ct_stereo_status>  (294) 
1

>  <s_m_source_file>  (294) 
/var/tmp/pbs.5076255.sched01/tmpo609hgx5/90rinj4u0e.sdf

>  <i_m_source_file_index>  (294) 
34

>  <i_lp_mmshare_version>  (294) 
48012

>  <i_f3d_flags>  (294) 
0

>  <s_epik_input>  (294) 
W0NIM11DKD1PKU9bQ0BASF0xW0NIMl1bQ0BIXShbQ0gzXSlbQ0BIXShbQ0BdMTIzKVtDSDJdW0NAQEhdKE9DKD1PKVtDSDNdKVtDQEBIXTJbQ0gyXVtDQEBIXShbT0hdKVtDQEhdNFtDQEBdNShbQ0gzXSlbQ0BASF0oW0NAQEhdKFtPSF0pW0NAQF0zNFtPSF0pQyhbQ0gzXSkoW0NIM10pW0NAQEhdKFtDSDJdW0NAQEhdNVtPSF0pT0MoPU8pW0NIM10=

>  <s_epik_cmdline>  (294) 
J2VwaWtfcHl0aG9uJywgJy1waHQnLCAnMi4wJywgJy1waCcsICc3LjAnLCAnLXRuJywgJzgnLCAnLW1hJywgJzIwMCcsICctaW1hZScsICc8aW5maWxlLm1hZT4nLCAnLW9tYWUnLCAnPG91dGZpbGUubWFlPic=

>  <r_lp_tautomer_probability>  (294) 
1

>  <r_epik_Ionization_Penalty>  (294) 
1.06175e-06

>  <r_epik_Ionization_Penalty_Charging>  (294) 
0

>  <r_epik_Ionization_Penalty_Neutral>  (294) 
1.06175e-06

>  <r_epik_State_Penalty>  (294) 
-0

>  <r_epik_Charging_Adjusted_Penalty>  (294) 
0

>  <i_epik_Tot_Q>  (294) 
0

>  <i_epik_Tot_abs_Q>  (294) 
0

>  <s_epik_Chemistry_Notes>  (294) 
This compound has an ester and may undergo hydrolysis at high or low pH.

>  <s_lp_Force_Field>  (294) 
OPLS3e

>  <r_lp_Energy>  (294) 
63.9522

>  <b_lp_Chiralities_Consistent>  (294) 
1

>  <s_lp_Variant>  (294) 
81:0-1

>  <s_i_glide_gridfile>  (294) 
pfpi4k_grid

>  <i_i_glide_lignum>  (294) 
34

>  <i_i_glide_rotatable_bonds>  (294) 
10

>  <r_i_docking_score>  (294) 
-2.62375

>  <r_i_glide_ligand_efficiency>  (294) 
-0.0672756

>  <r_i_glide_ligand_efficiency_sa>  (294) 
-0.228146

>  <r_i_glide_ligand_efficiency_ln>  (294) 
-0.562606

>  <r_i_glide_gscore>  (294) 
-2.62375

>  <r_i_glide_lipo>  (294) 
-0.127258

>  <r_i_glide_hbond>  (294) 
0

>  <r_i_glide_metal>  (294) 
-0

>  <r_i_glide_rewards>  (294) 
-0.562099

>  <r_i_glide_evdw>  (294) 
-32.8062

>  <r_i_glide_ecoul>  (294) 
-2.70859

>  <r_i_glide_erotb>  (294) 
0.132245

>  <r_i_glide_esite>  (294) 
-0.0200375

>  <r_i_glide_emodel>  (294) 
-43.1717

>  <r_i_glide_energy>  (294) 
-35.5148

>  <r_i_glide_einternal>  (294) 
6.86347

>  <r_i_glide_intrahb_reward>  (294) 
-0.5

>  <i_i_glide_confnum>  (294) 
3

>  <i_i_glide_posenum>  (294) 
11

>  <r_i_glide_eff_state_penalty>  (294) 
0

>  <ligand_id>  (294) 
81

>  <original_smiles>  (294) 
CC(=O)OC1CC2C(C)CC(OC(C)=O)C23C1CC(O)C1C2(C)C(O)CC(OC(C)=O)C(C)(C)C2C(O)C13O

>  <smiles>  (294) 
[H]OC1([H])C([H])([H])C2([H])C([H])(OC(=O)C([H])([H])[H])C([H])([H])C3([H])C([H])(C([H])([H])[H])C([H])([H])C([H])(OC(=O)C([H])([H])[H])C23C2(O[H])C([H])(O[H])C3([H])C(C([H])([H])[H])(C([H])([H])[H])C([H])(OC(=O)C([H])([H])[H])C([H])([H])C([H])(O[H])C3(C([H])([H])[H])C12[H]

$$$$
82:0:0
     RDKit          3D

 74 78  0  0  1  0  0  0  0  0999 V2000
   -1.2531   -7.9780    3.3070 C   0  0  0  0  0  0  0  0  0  0  0  0
    0.0430   -7.3640    3.8789 C   0  0  2  0  0  0  0  0  0  0  0  0
   -0.3080   -6.3212    4.9392 C   0  0  0  0  0  0  0  0  0  0  0  0
    0.9465   -5.7666    5.6056 C   0  0  0  0  0  0  0  0  0  0  0  0
    1.8750   -5.0873    4.5937 C   0  0  0  0  0  0  0  0  0  0  0  0
    2.2680   -3.7862    4.6988 C   0  0  0  0  0  0  0  0  0  0  0  0
    1.6944   -2.8091    5.7206 C   0  0  0  0  0  0  0  0  0  0  0  0
    0.7133   -1.9289    4.9576 C   0  0  0  0  0  0  0  0  0  0  0  0
   -0.4572   -1.8522    5.3244 O   0  0  0  0  0  0  0  0  0  0  0  0
    1.2314   -1.1866    3.7069 C   0  0  2  0  0  0  0  0  0  0  0  0
    2.3471   -2.0093    2.9269 C   0  0  1  0  0  0  0  0  0  0  0  0
    3.0785   -1.2138    1.7946 C   0  0  0  0  0  0  0  0  0  0  0  0
    3.2490    0.2984    2.0094 C   0  0  0  0  0  0  0  0  0  0  0  0
    1.9287    0.8828    2.5086 C   0  0  2  0  0  0  0  0  0  0  0  0
    1.7851    2.4020    2.5269 C   0  0  0  0  0  0  0  0  0  0  0  0
    0.7740    2.6906    3.6519 C   0  0  1  0  0  0  0  0  0  0  0  0
   -0.2478    3.6038    3.2842 O   0  0  0  0  0  0  0  0  0  0  0  0
    0.2568    1.3132    4.1716 C   0  0  0  0  0  0  0  0  0  0  0  0
   -0.1465    1.4644    5.6595 C   0  0  0  0  0  0  0  0  0  0  0  0
   -1.0180    0.8917    3.3937 C   0  0  0  0  0  0  0  0  0  0  0  0
    1.4932    0.3603    3.8926 C   0  0  1  0  0  0  0  0  0  0  0  0
    2.5917    0.6278    4.9659 C   0  0  0  0  0  0  0  0  0  0  0  0
    3.2137   -3.0758    3.7114 C   0  0  1  0  0  0  0  0  0  0  0  0
    4.4113   -2.4140    4.4430 C   0  0  0  0  0  0  0  0  0  0  0  0
    3.8792   -4.1381    2.7876 C   0  0  0  0  0  0  0  0  0  0  0  0
    2.9210   -5.2089    2.2816 C   0  0  0  0  0  0  0  0  0  0  0  0
    2.2539   -6.0232    3.4183 C   0  0  1  0  0  0  0  0  0  0  0  0
    3.2587   -7.0836    3.9346 C   0  0  0  0  0  0  0  0  0  0  0  0
    0.9679   -6.7116    2.8175 C   0  0  1  0  0  0  0  0  0  0  0  0
    1.2749   -7.6979    1.6723 C   0  0  0  0  0  0  0  0  0  0  0  0
   -1.8230   -7.2640    2.7140 H   0  0  0  0  0  0  0  0  0  0  0  0
   -1.8993   -8.3352    4.1101 H   0  0  0  0  0  0  0  0  0  0  0  0
   -1.0441   -8.8486    2.6845 H   0  0  0  0  0  0  0  0  0  0  0  0
    0.5796   -8.1773    4.3674 H   0  0  0  0  0  0  0  0  0  0  0  0
   -0.8543   -5.4969    4.4858 H   0  0  0  0  0  0  0  0  0  0  0  0
   -0.9693   -6.7615    5.6840 H   0  0  0  0  0  0  0  0  0  0  0  0
    0.6377   -5.1319    6.4290 H   0  0  0  0  0  0  0  0  0  0  0  0
    1.4911   -6.5832    6.0771 H   0  0  0  0  0  0  0  0  0  0  0  0
    1.1794   -3.2809    6.5498 H   0  0  0  0  0  0  0  0  0  0  0  0
    2.4633   -2.2084    6.1948 H   0  0  0  0  0  0  0  0  0  0  0  0
    0.3823   -1.2362    3.0281 H   0  0  0  0  0  0  0  0  0  0  0  0
    1.7174   -2.6689    2.3331 H   0  0  0  0  0  0  0  0  0  0  0  0
    4.0606   -1.6249    1.5718 H   0  0  0  0  0  0  0  0  0  0  0  0
    2.5026   -1.3384    0.8757 H   0  0  0  0  0  0  0  0  0  0  0  0
    4.0793    0.5093    2.6803 H   0  0  0  0  0  0  0  0  0  0  0  0
    3.5223    0.7624    1.0613 H   0  0  0  0  0  0  0  0  0  0  0  0
    1.1913    0.5423    1.7807 H   0  0  0  0  0  0  0  0  0  0  0  0
    2.7377    2.8980    2.7241 H   0  0  0  0  0  0  0  0  0  0  0  0
    1.4368    2.7457    1.5536 H   0  0  0  0  0  0  0  0  0  0  0  0
    1.3281    3.1940    4.4453 H   0  0  0  0  0  0  0  0  0  0  0  0
   -0.1131    3.8642    2.3640 H   0  0  0  0  0  0  0  0  0  0  0  0
   -0.4611    0.5268    6.1075 H   0  0  0  0  0  0  0  0  0  0  0  0
   -0.9810    2.1571    5.7556 H   0  0  0  0  0  0  0  0  0  0  0  0
    0.6541    1.8708    6.2736 H   0  0  0  0  0  0  0  0  0  0  0  0
   -1.3916   -0.0786    3.7142 H   0  0  0  0  0  0  0  0  0  0  0  0
   -0.8805    0.8537    2.3133 H   0  0  0  0  0  0  0  0  0  0  0  0
   -1.8374    1.5886    3.5715 H   0  0  0  0  0  0  0  0  0  0  0  0
    2.7806    1.6897    5.1168 H   0  0  0  0  0  0  0  0  0  0  0  0
    3.5572    0.2164    4.6979 H   0  0  0  0  0  0  0  0  0  0  0  0
    2.3262    0.2143    5.9395 H   0  0  0  0  0  0  0  0  0  0  0  0
    5.0569   -1.8814    3.7404 H   0  0  0  0  0  0  0  0  0  0  0  0
    5.0318   -3.1563    4.9485 H   0  0  0  0  0  0  0  0  0  0  0  0
    4.1261   -1.7027    5.2092 H   0  0  0  0  0  0  0  0  0  0  0  0
    4.3977   -3.6871    1.9436 H   0  0  0  0  0  0  0  0  0  0  0  0
    4.6674   -4.6560    3.3376 H   0  0  0  0  0  0  0  0  0  0  0  0
    2.1706   -4.7338    1.6535 H   0  0  0  0  0  0  0  0  0  0  0  0
    3.4765   -5.8726    1.6200 H   0  0  0  0  0  0  0  0  0  0  0  0
    3.6640   -7.6920    3.1261 H   0  0  0  0  0  0  0  0  0  0  0  0
    2.8130   -7.7732    4.6497 H   0  0  0  0  0  0  0  0  0  0  0  0
    4.1073   -6.6196    4.4369 H   0  0  0  0  0  0  0  0  0  0  0  0
    0.3796   -5.9121    2.3675 H   0  0  0  0  0  0  0  0  0  0  0  0
    1.7528   -8.6140    2.0218 H   0  0  0  0  0  0  0  0  0  0  0  0
    1.9094   -7.2591    0.9058 H   0  0  0  0  0  0  0  0  0  0  0  0
    0.3591   -7.9823    1.1591 H   0  0  0  0  0  0  0  0  0  0  0  0
  1  2  1  0
  1 31  1  0
  1 32  1  0
  1 33  1  0
  2 29  1  0
  2  3  1  0
  2 34  1  1
  3  4  1  0
  3 35  1  0
  3 36  1  0
  4  5  1  0
  4 37  1  0
  4 38  1  0
  5 27  1  0
  5  6  2  0
  6 23  1  0
  6  7  1  0
  7  8  1  0
  7 39  1  0
  7 40  1  0
  8  9  2  0
  8 10  1  0
 10 21  1  0
 10 11  1  0
 10 41  1  6
 11 12  1  0
 11 23  1  0
 11 42  1  6
 12 13  1  0
 12 43  1  0
 12 44  1  0
 13 14  1  0
 13 45  1  0
 13 46  1  0
 14 21  1  0
 14 15  1  0
 14 47  1  6
 15 16  1  0
 15 48  1  0
 15 49  1  0
 16 17  1  0
 16 18  1  0
 16 50  1  1
 17 51  1  0
 18 19  1  0
 18 20  1  0
 18 21  1  0
 19 52  1  0
 19 53  1  0
 19 54  1  0
 20 55  1  0
 20 56  1  0
 20 57  1  0
 21 22  1  1
 22 58  1  0
 22 59  1  0
 22 60  1  0
 23 24  1  1
 23 25  1  0
 24 61  1  0
 24 62  1  0
 24 63  1  0
 25 26  1  0
 25 64  1  0
 25 65  1  0
 26 27  1  0
 26 66  1  0
 26 67  1  0
 27 28  1  1
 27 29  1  0
 28 68  1  0
 28 69  1  0
 28 70  1  0
 29 30  1  0
 29 71  1  6
 30 72  1  0
 30 73  1  0
 30 74  1  0
M  END
>  <i_m_ct_stereo_status>  (295) 
1

>  <s_m_source_file>  (295) 
/var/tmp/pbs.5076255.sched01/tmpo609hgx5/90rinj4u0e.sdf

>  <i_m_source_file_index>  (295) 
35

>  <i_lp_mmshare_version>  (295) 
48012

>  <i_f3d_flags>  (295) 
0

>  <s_epik_input>  (295) 
W0NIMl0xW0NIMl1bQ0BASF0oW0NIM10pW0NASF0oW0NIM10pW0NAQF0oW0NIM10pKFtDSDJdW0NIMl0yKUMxPUMoW0NIMl1DMz1PKVtDQF0yKFtDSDNdKVtDQEBIXShbQ0BASF0zW0NAQF00NVtDSDNdKVtDSDJdW0NIMl1bQ0BASF00W0NIMl1bQ0BASF0oW09IXSlDNShbQ0gzXSlbQ0gzXQ==

>  <s_epik_cmdline>  (295) 
J2VwaWtfcHl0aG9uJywgJy1waHQnLCAnMi4wJywgJy1waCcsICc3LjAnLCAnLXRuJywgJzgnLCAnLW1hJywgJzIwMCcsICctaW1hZScsICc8aW5maWxlLm1hZT4nLCAnLW9tYWUnLCAnPG91dGZpbGUubWFlPic=

>  <r_lp_tautomer_probability>  (295) 
1

>  <r_epik_Ionization_Penalty>  (295) 
2.11173e-06

>  <r_epik_Ionization_Penalty_Charging>  (295) 
0

>  <r_epik_Ionization_Penalty_Neutral>  (295) 
2.11173e-06

>  <r_epik_State_Penalty>  (295) 
-0

>  <r_epik_Charging_Adjusted_Penalty>  (295) 
0

>  <i_epik_Tot_Q>  (295) 
0

>  <i_epik_Tot_abs_Q>  (295) 
0

>  <s_lp_Force_Field>  (295) 
OPLS3e

>  <r_lp_Energy>  (295) 
82.8835

>  <b_lp_Chiralities_Consistent>  (295) 
1

>  <s_lp_Variant>  (295) 
82:0-1

>  <s_i_glide_gridfile>  (295) 
pfpi4k_grid

>  <i_i_glide_lignum>  (295) 
35

>  <i_i_glide_rotatable_bonds>  (295) 
1

>  <r_i_docking_score>  (295) 
-3.12284

>  <r_i_glide_ligand_efficiency>  (295) 
-0.104095

>  <r_i_glide_ligand_efficiency_sa>  (295) 
-0.323447

>  <r_i_glide_ligand_efficiency_ln>  (295) 
-0.709544

>  <r_i_glide_gscore>  (295) 
-3.12284

>  <r_i_glide_lipo>  (295) 
-0.0745143

>  <r_i_glide_hbond>  (295) 
-0.16

>  <r_i_glide_metal>  (295) 
-0

>  <r_i_glide_rewards>  (295) 
-0.595583

>  <r_i_glide_evdw>  (295) 
-27.9021

>  <r_i_glide_ecoul>  (295) 
-5.97835

>  <r_i_glide_erotb>  (295) 
0

>  <r_i_glide_esite>  (295) 
-0.000886609

>  <r_i_glide_emodel>  (295) 
-40.487

>  <r_i_glide_energy>  (295) 
-33.8805

>  <r_i_glide_einternal>  (295) 
1.4434

>  <r_i_glide_intrahb_reward>  (295) 
-0

>  <i_i_glide_confnum>  (295) 
2

>  <i_i_glide_posenum>  (295) 
1

>  <r_i_glide_eff_state_penalty>  (295) 
0

>  <ligand_id>  (295) 
82

>  <original_smiles>  (295) 
CC1CCC2=C3CC(=O)C4C(CCC5CC(O)C(C)(C)C54C)C3(C)CCC2(C)C1C

>  <smiles>  (295) 
[H]OC1([H])C([H])([H])C2([H])C([H])([H])C([H])([H])C3([H])C([H])(C(=O)C([H])([H])C4=C5C([H])([H])C([H])([H])C([H])(C([H])([H])[H])C([H])(C([H])([H])[H])C5(C([H])([H])[H])C([H])([H])C([H])([H])C43C([H])([H])[H])C2(C([H])([H])[H])C1(C([H])([H])[H])C([H])([H])[H]

$$$$
82:0:1
     RDKit          3D

 74 78  0  0  1  0  0  0  0  0999 V2000
    1.3777   -6.3892    2.5747 C   0  0  0  0  0  0  0  0  0  0  0  0
    1.8489   -5.6013    3.8134 C   0  0  2  0  0  0  0  0  0  0  0  0
    0.6513   -4.8984    4.4651 C   0  0  0  0  0  0  0  0  0  0  0  0
    1.0640   -4.1963    5.7543 C   0  0  0  0  0  0  0  0  0  0  0  0
    2.1380   -3.1357    5.5025 C   0  0  0  0  0  0  0  0  0  0  0  0
    1.9832   -1.8201    5.8431 C   0  0  0  0  0  0  0  0  0  0  0  0
    0.6647   -1.2248    6.3240 C   0  0  0  0  0  0  0  0  0  0  0  0
    0.0702   -0.4739    5.1404 C   0  0  0  0  0  0  0  0  0  0  0  0
   -1.0613   -0.7487    4.7446 O   0  0  0  0  0  0  0  0  0  0  0  0
    0.9511    0.5947    4.4533 C   0  0  2  0  0  0  0  0  0  0  0  0
    2.4983    0.2275    4.4879 C   0  0  1  0  0  0  0  0  0  0  0  0
    3.4525    1.3816    4.0424 C   0  0  0  0  0  0  0  0  0  0  0  0
    2.9976    2.8223    4.3272 C   0  0  0  0  0  0  0  0  0  0  0  0
    1.5282    2.9690    3.9314 C   0  0  2  0  0  0  0  0  0  0  0  0
    0.9420    4.3803    3.8723 C   0  0  0  0  0  0  0  0  0  0  0  0
   -0.5527    4.1909    4.1724 C   0  0  1  0  0  0  0  0  0  0  0  0
   -1.3768    4.9097    3.2750 O   0  0  0  0  0  0  0  0  0  0  0  0
   -0.8229    2.6558    4.2568 C   0  0  0  0  0  0  0  0  0  0  0  0
   -2.0166    2.4216    5.2126 C   0  0  0  0  0  0  0  0  0  0  0  0
   -1.2316    2.0882    2.8688 C   0  0  0  0  0  0  0  0  0  0  0  0
    0.5698    2.0975    4.7728 C   0  0  1  0  0  0  0  0  0  0  0  0
    0.7172    2.4065    6.2950 C   0  0  0  0  0  0  0  0  0  0  0  0
    3.0457   -0.7256    5.6267 C   0  0  1  0  0  0  0  0  0  0  0  0
    3.3372    0.0507    6.9376 C   0  0  0  0  0  0  0  0  0  0  0  0
    4.4048   -1.3994    5.2754 C   0  0  0  0  0  0  0  0  0  0  0  0
    4.2922   -2.5517    4.2843 C   0  0  0  0  0  0  0  0  0  0  0  0
    3.3868   -3.7071    4.7816 C   0  0  1  0  0  0  0  0  0  0  0  0
    4.1851   -4.5730    5.7906 C   0  0  0  0  0  0  0  0  0  0  0  0
    2.9615   -4.5561    3.5185 C   0  0  1  0  0  0  0  0  0  0  0  0
    4.1569   -5.1999    2.7709 C   0  0  0  0  0  0  0  0  0  0  0  0
    1.0686   -5.7271    1.7673 H   0  0  0  0  0  0  0  0  0  0  0  0
    0.5345   -7.0350    2.8217 H   0  0  0  0  0  0  0  0  0  0  0  0
    2.1609   -7.0440    2.1937 H   0  0  0  0  0  0  0  0  0  0  0  0
    2.2328   -6.3368    4.5205 H   0  0  0  0  0  0  0  0  0  0  0  0
    0.2296   -4.1614    3.7774 H   0  0  0  0  0  0  0  0  0  0  0  0
   -0.1403   -5.6187    4.6779 H   0  0  0  0  0  0  0  0  0  0  0  0
    0.1648   -3.8254    6.2315 H   0  0  0  0  0  0  0  0  0  0  0  0
    1.4625   -4.9325    6.4508 H   0  0  0  0  0  0  0  0  0  0  0  0
   -0.0557   -1.9562    6.6686 H   0  0  0  0  0  0  0  0  0  0  0  0
    0.7943   -0.5581    7.1706 H   0  0  0  0  0  0  0  0  0  0  0  0
    0.7060    0.4733    3.3987 H   0  0  0  0  0  0  0  0  0  0  0  0
    2.5600   -0.4353    3.6265 H   0  0  0  0  0  0  0  0  0  0  0  0
    4.4578    1.2684    4.4405 H   0  0  0  0  0  0  0  0  0  0  0  0
    3.5711    1.3053    2.9600 H   0  0  0  0  0  0  0  0  0  0  0  0
    3.1880    3.0990    5.3631 H   0  0  0  0  0  0  0  0  0  0  0  0
    3.6044    3.5089    3.7331 H   0  0  0  0  0  0  0  0  0  0  0  0
    1.4867    2.6053    2.9031 H   0  0  0  0  0  0  0  0  0  0  0  0
    1.4004    5.0368    4.6130 H   0  0  0  0  0  0  0  0  0  0  0  0
    1.1191    4.8156    2.8855 H   0  0  0  0  0  0  0  0  0  0  0  0
   -0.7410    4.6383    5.1472 H   0  0  0  0  0  0  0  0  0  0  0  0
   -1.0426    4.7414    2.3962 H   0  0  0  0  0  0  0  0  0  0  0  0
   -2.2051    1.3646    5.3750 H   0  0  0  0  0  0  0  0  0  0  0  0
   -2.9277    2.8515    4.7962 H   0  0  0  0  0  0  0  0  0  0  0  0
   -1.8806    2.8836    6.1893 H   0  0  0  0  0  0  0  0  0  0  0  0
   -1.3957    1.0123    2.8936 H   0  0  0  0  0  0  0  0  0  0  0  0
   -0.4979    2.2877    2.0888 H   0  0  0  0  0  0  0  0  0  0  0  0
   -2.1704    2.5206    2.5242 H   0  0  0  0  0  0  0  0  0  0  0  0
    0.4488    3.4318    6.5403 H   0  0  0  0  0  0  0  0  0  0  0  0
    1.7314    2.2961    6.6543 H   0  0  0  0  0  0  0  0  0  0  0  0
    0.0889    1.7604    6.9088 H   0  0  0  0  0  0  0  0  0  0  0  0
    4.0635    0.8463    6.7661 H   0  0  0  0  0  0  0  0  0  0  0  0
    3.7523   -0.6054    7.7055 H   0  0  0  0  0  0  0  0  0  0  0  0
    2.4656    0.5102    7.3871 H   0  0  0  0  0  0  0  0  0  0  0  0
    5.1393   -0.6831    4.9150 H   0  0  0  0  0  0  0  0  0  0  0  0
    4.8539   -1.8079    6.1830 H   0  0  0  0  0  0  0  0  0  0  0  0
    3.9294   -2.1603    3.3356 H   0  0  0  0  0  0  0  0  0  0  0  0
    5.2973   -2.9228    4.0807 H   0  0  0  0  0  0  0  0  0  0  0  0
    5.1418   -4.8988    5.3823 H   0  0  0  0  0  0  0  0  0  0  0  0
    3.6491   -5.4726    6.0879 H   0  0  0  0  0  0  0  0  0  0  0  0
    4.4033   -4.0233    6.7057 H   0  0  0  0  0  0  0  0  0  0  0  0
    2.5199   -3.8498    2.8133 H   0  0  0  0  0  0  0  0  0  0  0  0
    4.6035   -6.0154    3.3398 H   0  0  0  0  0  0  0  0  0  0  0  0
    4.9421   -4.4826    2.5379 H   0  0  0  0  0  0  0  0  0  0  0  0
    3.8456   -5.6061    1.8093 H   0  0  0  0  0  0  0  0  0  0  0  0
  1  2  1  0
  1 31  1  0
  1 32  1  0
  1 33  1  0
  2 29  1  0
  2  3  1  0
  2 34  1  1
  3  4  1  0
  3 35  1  0
  3 36  1  0
  4  5  1  0
  4 37  1  0
  4 38  1  0
  5 27  1  0
  5  6  2  0
  6 23  1  0
  6  7  1  0
  7  8  1  0
  7 39  1  0
  7 40  1  0
  8  9  2  0
  8 10  1  0
 10 21  1  0
 10 11  1  0
 10 41  1  6
 11 12  1  0
 11 23  1  0
 11 42  1  6
 12 13  1  0
 12 43  1  0
 12 44  1  0
 13 14  1  0
 13 45  1  0
 13 46  1  0
 14 21  1  0
 14 15  1  0
 14 47  1  6
 15 16  1  0
 15 48  1  0
 15 49  1  0
 16 17  1  0
 16 18  1  0
 16 50  1  1
 17 51  1  0
 18 19  1  0
 18 20  1  0
 18 21  1  0
 19 52  1  0
 19 53  1  0
 19 54  1  0
 20 55  1  0
 20 56  1  0
 20 57  1  0
 21 22  1  1
 22 58  1  0
 22 59  1  0
 22 60  1  0
 23 24  1  1
 23 25  1  0
 24 61  1  0
 24 62  1  0
 24 63  1  0
 25 26  1  0
 25 64  1  0
 25 65  1  0
 26 27  1  0
 26 66  1  0
 26 67  1  0
 27 28  1  1
 27 29  1  0
 28 68  1  0
 28 69  1  0
 28 70  1  0
 29 30  1  0
 29 71  1  6
 30 72  1  0
 30 73  1  0
 30 74  1  0
M  END
>  <i_m_ct_stereo_status>  (296) 
1

>  <s_m_source_file>  (296) 
/var/tmp/pbs.5076255.sched01/tmpo609hgx5/90rinj4u0e.sdf

>  <i_m_source_file_index>  (296) 
35

>  <i_lp_mmshare_version>  (296) 
48012

>  <i_f3d_flags>  (296) 
0

>  <s_epik_input>  (296) 
W0NIMl0xW0NIMl1bQ0BASF0oW0NIM10pW0NASF0oW0NIM10pW0NAQF0oW0NIM10pKFtDSDJdW0NIMl0yKUMxPUMoW0NIMl1DMz1PKVtDQF0yKFtDSDNdKVtDQEBIXShbQ0BASF0zW0NAQF00NVtDSDNdKVtDSDJdW0NIMl1bQ0BASF00W0NIMl1bQ0BASF0oW09IXSlDNShbQ0gzXSlbQ0gzXQ==

>  <s_epik_cmdline>  (296) 
J2VwaWtfcHl0aG9uJywgJy1waHQnLCAnMi4wJywgJy1waCcsICc3LjAnLCAnLXRuJywgJzgnLCAnLW1hJywgJzIwMCcsICctaW1hZScsICc8aW5maWxlLm1hZT4nLCAnLW9tYWUnLCAnPG91dGZpbGUubWFlPic=

>  <r_lp_tautomer_probability>  (296) 
1

>  <r_epik_Ionization_Penalty>  (296) 
2.11173e-06

>  <r_epik_Ionization_Penalty_Charging>  (296) 
0

>  <r_epik_Ionization_Penalty_Neutral>  (296) 
2.11173e-06

>  <r_epik_State_Penalty>  (296) 
-0

>  <r_epik_Charging_Adjusted_Penalty>  (296) 
0

>  <i_epik_Tot_Q>  (296) 
0

>  <i_epik_Tot_abs_Q>  (296) 
0

>  <s_lp_Force_Field>  (296) 
OPLS3e

>  <r_lp_Energy>  (296) 
82.8835

>  <b_lp_Chiralities_Consistent>  (296) 
1

>  <s_lp_Variant>  (296) 
82:0-1

>  <s_i_glide_gridfile>  (296) 
pfpi4k_grid

>  <i_i_glide_lignum>  (296) 
35

>  <i_i_glide_rotatable_bonds>  (296) 
1

>  <r_i_docking_score>  (296) 
-2.96271

>  <r_i_glide_ligand_efficiency>  (296) 
-0.0987569

>  <r_i_glide_ligand_efficiency_sa>  (296) 
-0.306861

>  <r_i_glide_ligand_efficiency_ln>  (296) 
-0.673159

>  <r_i_glide_gscore>  (296) 
-2.96271

>  <r_i_glide_lipo>  (296) 
-0.0245542

>  <r_i_glide_hbond>  (296) 
-0.32

>  <r_i_glide_metal>  (296) 
-0

>  <r_i_glide_rewards>  (296) 
-0.595583

>  <r_i_glide_evdw>  (296) 
-23.4642

>  <r_i_glide_ecoul>  (296) 
-5.57767

>  <r_i_glide_erotb>  (296) 
0

>  <r_i_glide_esite>  (296) 
-0.0127082

>  <r_i_glide_emodel>  (296) 
-35.8395

>  <r_i_glide_energy>  (296) 
-29.0419

>  <r_i_glide_einternal>  (296) 
0.233342

>  <r_i_glide_intrahb_reward>  (296) 
-0

>  <i_i_glide_confnum>  (296) 
1

>  <i_i_glide_posenum>  (296) 
11

>  <r_i_glide_eff_state_penalty>  (296) 
0

>  <ligand_id>  (296) 
82

>  <original_smiles>  (296) 
CC1CCC2=C3CC(=O)C4C(CCC5CC(O)C(C)(C)C54C)C3(C)CCC2(C)C1C

>  <smiles>  (296) 
[H]OC1([H])C([H])([H])C2([H])C([H])([H])C([H])([H])C3([H])C([H])(C(=O)C([H])([H])C4=C5C([H])([H])C([H])([H])C([H])(C([H])([H])[H])C([H])(C([H])([H])[H])C5(C([H])([H])[H])C([H])([H])C([H])([H])C43C([H])([H])[H])C2(C([H])([H])[H])C1(C([H])([H])[H])C([H])([H])[H]

$$$$
82:0:2
     RDKit          3D

 74 78  0  0  1  0  0  0  0  0999 V2000
   -1.2945   -8.0401    3.1470 C   0  0  0  0  0  0  0  0  0  0  0  0
    0.0316   -7.4383    3.6563 C   0  0  2  0  0  0  0  0  0  0  0  0
   -0.2410   -6.5483    4.8741 C   0  0  0  0  0  0  0  0  0  0  0  0
    1.0580   -6.0137    5.4680 C   0  0  0  0  0  0  0  0  0  0  0  0
    1.8428   -5.1761    4.4561 C   0  0  0  0  0  0  0  0  0  0  0  0
    2.2069   -3.8773    4.6830 C   0  0  0  0  0  0  0  0  0  0  0  0
    1.7085   -3.0588    5.8697 C   0  0  0  0  0  0  0  0  0  0  0  0
    0.6201   -2.1362    5.3336 C   0  0  0  0  0  0  0  0  0  0  0  0
   -0.5092   -2.1550    5.8229 O   0  0  0  0  0  0  0  0  0  0  0  0
    0.9790   -1.2304    4.1354 C   0  0  2  0  0  0  0  0  0  0  0  0
    2.0293   -1.8998    3.1468 C   0  0  1  0  0  0  0  0  0  0  0  0
    2.6141   -0.9352    2.0639 C   0  0  0  0  0  0  0  0  0  0  0  0
    2.7493    0.5482    2.4420 C   0  0  0  0  0  0  0  0  0  0  0  0
    1.4656    1.0051    3.1370 C   0  0  2  0  0  0  0  0  0  0  0  0
    1.2673    2.5037    3.3611 C   0  0  0  0  0  0  0  0  0  0  0  0
    0.3751    2.5999    4.6086 C   0  0  1  0  0  0  0  0  0  0  0  0
   -0.7000    3.5065    4.4392 O   0  0  0  0  0  0  0  0  0  0  0  0
   -0.0359    1.1447    5.0006 C   0  0  0  0  0  0  0  0  0  0  0  0
   -0.2778    1.0978    6.5306 C   0  0  0  0  0  0  0  0  0  0  0  0
   -1.3744    0.7542    4.3142 C   0  0  0  0  0  0  0  0  0  0  0  0
    1.2018    0.2961    4.4842 C   0  0  1  0  0  0  0  0  0  0  0  0
    2.4004    0.4832    5.4646 C   0  0  0  0  0  0  0  0  0  0  0  0
    3.0151   -3.0070    3.7005 C   0  0  1  0  0  0  0  0  0  0  0  0
    4.2590   -2.3816    4.3843 C   0  0  0  0  0  0  0  0  0  0  0  0
    3.6125   -3.9189    2.5889 C   0  0  0  0  0  0  0  0  0  0  0  0
    2.6454   -4.9678    2.0539 C   0  0  0  0  0  0  0  0  0  0  0  0
    2.1324   -5.9461    3.1410 C   0  0  1  0  0  0  0  0  0  0  0  0
    3.2250   -7.0096    3.4187 C   0  0  0  0  0  0  0  0  0  0  0  0
    0.8165   -6.6228    2.5919 C   0  0  1  0  0  0  0  0  0  0  0  0
    1.0267   -7.4405    1.2966 C   0  0  0  0  0  0  0  0  0  0  0  0
   -1.9488   -7.2859    2.7099 H   0  0  0  0  0  0  0  0  0  0  0  0
   -1.8384   -8.5202    3.9617 H   0  0  0  0  0  0  0  0  0  0  0  0
   -1.1223   -8.8158    2.4012 H   0  0  0  0  0  0  0  0  0  0  0  0
    0.6466   -8.2764    3.9846 H   0  0  0  0  0  0  0  0  0  0  0  0
   -0.8812   -5.7120    4.5919 H   0  0  0  0  0  0  0  0  0  0  0  0
   -0.7792   -7.1114    5.6364 H   0  0  0  0  0  0  0  0  0  0  0  0
    0.8156   -5.4980    6.3895 H   0  0  0  0  0  0  0  0  0  0  0  0
    1.6800   -6.8521    5.7766 H   0  0  0  0  0  0  0  0  0  0  0  0
    1.3011   -3.6487    6.6816 H   0  0  0  0  0  0  0  0  0  0  0  0
    2.5013   -2.4829    6.3361 H   0  0  0  0  0  0  0  0  0  0  0  0
    0.0648   -1.2397    3.5440 H   0  0  0  0  0  0  0  0  0  0  0  0
    1.3630   -2.5113    2.5413 H   0  0  0  0  0  0  0  0  0  0  0  0
    3.5751   -1.2708    1.6817 H   0  0  0  0  0  0  0  0  0  0  0  0
    1.9417   -0.9722    1.2071 H   0  0  0  0  0  0  0  0  0  0  0  0
    3.6408    0.7217    3.0423 H   0  0  0  0  0  0  0  0  0  0  0  0
    2.9019    1.1341    1.5331 H   0  0  0  0  0  0  0  0  0  0  0  0
    0.6703    0.7148    2.4482 H   0  0  0  0  0  0  0  0  0  0  0  0
    2.2174    3.0151    3.5223 H   0  0  0  0  0  0  0  0  0  0  0  0
    0.7984    2.9476    2.4809 H   0  0  0  0  0  0  0  0  0  0  0  0
    0.9873    3.0271    5.4034 H   0  0  0  0  0  0  0  0  0  0  0  0
   -1.0488    3.3826    3.5690 H   0  0  0  0  0  0  0  0  0  0  0  0
   -0.5041    0.0988    6.8915 H   0  0  0  0  0  0  0  0  0  0  0  0
   -1.1204    1.7347    6.8003 H   0  0  0  0  0  0  0  0  0  0  0  0
    0.5726    1.4681    7.1026 H   0  0  0  0  0  0  0  0  0  0  0  0
   -1.6763   -0.2647    4.5462 H   0  0  0  0  0  0  0  0  0  0  0  0
   -1.3472    0.8498    3.2297 H   0  0  0  0  0  0  0  0  0  0  0  0
   -2.1871    1.3909    4.6584 H   0  0  0  0  0  0  0  0  0  0  0  0
    2.5656    1.5264    5.7264 H   0  0  0  0  0  0  0  0  0  0  0  0
    3.3435    0.1522    5.0499 H   0  0  0  0  0  0  0  0  0  0  0  0
    2.2545   -0.0580    6.4000 H   0  0  0  0  0  0  0  0  0  0  0  0
    4.8031   -1.7391    3.6907 H   0  0  0  0  0  0  0  0  0  0  0  0
    4.9551   -3.1508    4.7259 H   0  0  0  0  0  0  0  0  0  0  0  0
    4.0325   -1.7840    5.2589 H   0  0  0  0  0  0  0  0  0  0  0  0
    4.0173   -3.3444    1.7595 H   0  0  0  0  0  0  0  0  0  0  0  0
    4.4740   -4.4598    2.9860 H   0  0  0  0  0  0  0  0  0  0  0  0
    1.8144   -4.4567    1.5733 H   0  0  0  0  0  0  0  0  0  0  0  0
    3.1486   -5.5197    1.2589 H   0  0  0  0  0  0  0  0  0  0  0  0
    3.5616   -7.4968    2.5034 H   0  0  0  0  0  0  0  0  0  0  0  0
    2.8806   -7.7993    4.0847 H   0  0  0  0  0  0  0  0  0  0  0  0
    4.1048   -6.5674    3.8850 H   0  0  0  0  0  0  0  0  0  0  0  0
    0.1606   -5.8027    2.3100 H   0  0  0  0  0  0  0  0  0  0  0  0
    1.5803   -8.3619    1.4813 H   0  0  0  0  0  0  0  0  0  0  0  0
    1.5501   -6.8780    0.5263 H   0  0  0  0  0  0  0  0  0  0  0  0
    0.0718   -7.7217    0.8557 H   0  0  0  0  0  0  0  0  0  0  0  0
  1  2  1  0
  1 31  1  0
  1 32  1  0
  1 33  1  0
  2 29  1  0
  2  3  1  0
  2 34  1  1
  3  4  1  0
  3 35  1  0
  3 36  1  0
  4  5  1  0
  4 37  1  0
  4 38  1  0
  5 27  1  0
  5  6  2  0
  6 23  1  0
  6  7  1  0
  7  8  1  0
  7 39  1  0
  7 40  1  0
  8  9  2  0
  8 10  1  0
 10 21  1  0
 10 11  1  0
 10 41  1  6
 11 12  1  0
 11 23  1  0
 11 42  1  6
 12 13  1  0
 12 43  1  0
 12 44  1  0
 13 14  1  0
 13 45  1  0
 13 46  1  0
 14 21  1  0
 14 15  1  0
 14 47  1  6
 15 16  1  0
 15 48  1  0
 15 49  1  0
 16 17  1  0
 16 18  1  0
 16 50  1  1
 17 51  1  0
 18 19  1  0
 18 20  1  0
 18 21  1  0
 19 52  1  0
 19 53  1  0
 19 54  1  0
 20 55  1  0
 20 56  1  0
 20 57  1  0
 21 22  1  1
 22 58  1  0
 22 59  1  0
 22 60  1  0
 23 24  1  1
 23 25  1  0
 24 61  1  0
 24 62  1  0
 24 63  1  0
 25 26  1  0
 25 64  1  0
 25 65  1  0
 26 27  1  0
 26 66  1  0
 26 67  1  0
 27 28  1  1
 27 29  1  0
 28 68  1  0
 28 69  1  0
 28 70  1  0
 29 30  1  0
 29 71  1  6
 30 72  1  0
 30 73  1  0
 30 74  1  0
M  END
>  <i_m_ct_stereo_status>  (297) 
1

>  <s_m_source_file>  (297) 
/var/tmp/pbs.5076255.sched01/tmpo609hgx5/90rinj4u0e.sdf

>  <i_m_source_file_index>  (297) 
35

>  <i_lp_mmshare_version>  (297) 
48012

>  <i_f3d_flags>  (297) 
0

>  <s_epik_input>  (297) 
W0NIMl0xW0NIMl1bQ0BASF0oW0NIM10pW0NASF0oW0NIM10pW0NAQF0oW0NIM10pKFtDSDJdW0NIMl0yKUMxPUMoW0NIMl1DMz1PKVtDQF0yKFtDSDNdKVtDQEBIXShbQ0BASF0zW0NAQF00NVtDSDNdKVtDSDJdW0NIMl1bQ0BASF00W0NIMl1bQ0BASF0oW09IXSlDNShbQ0gzXSlbQ0gzXQ==

>  <s_epik_cmdline>  (297) 
J2VwaWtfcHl0aG9uJywgJy1waHQnLCAnMi4wJywgJy1waCcsICc3LjAnLCAnLXRuJywgJzgnLCAnLW1hJywgJzIwMCcsICctaW1hZScsICc8aW5maWxlLm1hZT4nLCAnLW9tYWUnLCAnPG91dGZpbGUubWFlPic=

>  <r_lp_tautomer_probability>  (297) 
1

>  <r_epik_Ionization_Penalty>  (297) 
2.11173e-06

>  <r_epik_Ionization_Penalty_Charging>  (297) 
0

>  <r_epik_Ionization_Penalty_Neutral>  (297) 
2.11173e-06

>  <r_epik_State_Penalty>  (297) 
-0

>  <r_epik_Charging_Adjusted_Penalty>  (297) 
0

>  <i_epik_Tot_Q>  (297) 
0

>  <i_epik_Tot_abs_Q>  (297) 
0

>  <s_lp_Force_Field>  (297) 
OPLS3e

>  <r_lp_Energy>  (297) 
82.8835

>  <b_lp_Chiralities_Consistent>  (297) 
1

>  <s_lp_Variant>  (297) 
82:0-1

>  <s_i_glide_gridfile>  (297) 
pfpi4k_grid

>  <i_i_glide_lignum>  (297) 
35

>  <i_i_glide_rotatable_bonds>  (297) 
1

>  <r_i_docking_score>  (297) 
-2.48903

>  <r_i_glide_ligand_efficiency>  (297) 
-0.0829677

>  <r_i_glide_ligand_efficiency_sa>  (297) 
-0.2578

>  <r_i_glide_ligand_efficiency_ln>  (297) 
-0.565535

>  <r_i_glide_gscore>  (297) 
-2.48903

>  <r_i_glide_lipo>  (297) 
-0.0389111

>  <r_i_glide_hbond>  (297) 
0

>  <r_i_glide_metal>  (297) 
-0

>  <r_i_glide_rewards>  (297) 
-0.595583

>  <r_i_glide_evdw>  (297) 
-28.5916

>  <r_i_glide_ecoul>  (297) 
-2.80135

>  <r_i_glide_erotb>  (297) 
0

>  <r_i_glide_esite>  (297) 
-0.00475356

>  <r_i_glide_emodel>  (297) 
-36.9836

>  <r_i_glide_energy>  (297) 
-31.393

>  <r_i_glide_einternal>  (297) 
0.323805

>  <r_i_glide_intrahb_reward>  (297) 
-0

>  <i_i_glide_confnum>  (297) 
1

>  <i_i_glide_posenum>  (297) 
20

>  <r_i_glide_eff_state_penalty>  (297) 
0

>  <ligand_id>  (297) 
82

>  <original_smiles>  (297) 
CC1CCC2=C3CC(=O)C4C(CCC5CC(O)C(C)(C)C54C)C3(C)CCC2(C)C1C

>  <smiles>  (297) 
[H]OC1([H])C([H])([H])C2([H])C([H])([H])C([H])([H])C3([H])C([H])(C(=O)C([H])([H])C4=C5C([H])([H])C([H])([H])C([H])(C([H])([H])[H])C([H])(C([H])([H])[H])C5(C([H])([H])[H])C([H])([H])C([H])([H])C43C([H])([H])[H])C2(C([H])([H])[H])C1(C([H])([H])[H])C([H])([H])[H]

$$$$
83:0:0
     RDKit          3D

 63 67  0  0  1  0  0  0  0  0999 V2000
    6.1959   -8.4866    1.7471 C   0  0  0  0  0  0  0  0  0  0  0  0
    5.2244   -9.4031    2.4704 C   0  0  0  0  0  0  0  0  0  0  0  0
    4.7270   -9.2487    3.7248 C   0  0  0  0  0  0  0  0  0  0  0  0
    3.7852  -10.2862    4.3142 C   0  0  0  0  0  0  0  0  0  0  0  0
    2.3710   -9.7582    4.5970 C   0  0  2  0  0  0  0  0  0  0  0  0
    1.6378   -9.2779    3.3382 C   0  0  0  0  0  0  0  0  0  0  0  0
    2.0658   -7.9111    2.7476 C   0  0  1  0  0  0  0  0  0  0  0  0
    0.9769   -7.5433    1.7078 C   0  0  0  0  0  0  0  0  0  0  0  0
    2.4587   -6.7806    3.8034 C   0  0  1  0  0  0  0  0  0  0  0  0
    1.2957   -5.9385    4.3139 C   0  0  0  0  0  0  0  0  0  0  0  0
    0.2197   -5.7728    3.7654 O   0  0  0  0  0  0  0  0  0  0  0  0
    1.7793   -5.2876    5.5112 C   0  0  0  0  0  0  0  0  0  0  0  0
    2.5217   -6.2126    6.1326 C   0  0  0  0  0  0  0  0  0  0  0  0
    2.9330   -7.3727    5.2152 C   0  0  2  0  0  0  0  0  0  0  0  0
    4.3688   -7.4468    5.3344 O   0  0  0  0  0  0  0  0  0  0  0  0
    5.2602   -8.2259    4.6491 C   0  0  0  0  0  0  0  0  0  0  0  0
    6.4877   -8.0637    4.8280 O   0  0  0  0  0  0  0  0  0  0  0  0
    2.2728   -8.7137    5.7234 C   0  0  0  0  0  0  0  0  0  0  0  0
    0.7714   -8.5661    6.1236 C   0  0  0  0  0  0  0  0  0  0  0  0
    2.9367   -9.2438    7.0229 C   0  0  0  0  0  0  0  0  0  0  0  0
    2.4758   -3.9984    5.1026 C   0  0  0  0  0  0  0  0  0  0  0  0
    3.6709   -4.3069    4.1343 C   0  0  2  0  0  0  0  0  0  0  0  0
    4.7610   -4.5306    5.0110 O   0  0  0  0  0  0  0  0  0  0  0  0
    4.0410   -3.0248    3.3053 C   0  0  1  0  0  0  0  0  0  0  0  0
    5.3717   -3.1114    2.8132 O   0  0  0  0  0  0  0  0  0  0  0  0
    3.0805   -2.8108    2.1106 C   0  0  1  0  0  0  0  0  0  0  0  0
    3.4571   -1.6762    1.3531 O   0  0  0  0  0  0  0  0  0  0  0  0
    2.9783   -4.0615    1.2591 C   0  0  0  0  0  0  0  0  0  0  0  0
    2.6595   -3.8662   -0.2162 C   0  0  0  0  0  0  0  0  0  0  0  0
    3.1871   -5.2846    1.7770 C   0  0  0  0  0  0  0  0  0  0  0  0
    3.4692   -5.6376    3.2375 C   0  0  2  0  0  0  0  0  0  0  0  0
    5.7757   -8.2310    0.7738 H   0  0  0  0  0  0  0  0  0  0  0  0
    7.1472   -8.9955    1.5934 H   0  0  0  0  0  0  0  0  0  0  0  0
    6.3859   -7.5496    2.2698 H   0  0  0  0  0  0  0  0  0  0  0  0
    4.8790  -10.2351    1.8749 H   0  0  0  0  0  0  0  0  0  0  0  0
    3.6995  -11.1134    3.6086 H   0  0  0  0  0  0  0  0  0  0  0  0
    4.2407  -10.7432    5.1922 H   0  0  0  0  0  0  0  0  0  0  0  0
    1.8344  -10.6439    4.9321 H   0  0  0  0  0  0  0  0  0  0  0  0
    1.8021  -10.0207    2.5586 H   0  0  0  0  0  0  0  0  0  0  0  0
    0.5636   -9.3145    3.4960 H   0  0  0  0  0  0  0  0  0  0  0  0
    2.9598   -8.0795    2.1596 H   0  0  0  0  0  0  0  0  0  0  0  0
   -0.0255   -7.6344    2.1255 H   0  0  0  0  0  0  0  0  0  0  0  0
    1.0201   -8.2440    0.8779 H   0  0  0  0  0  0  0  0  0  0  0  0
    1.0422   -6.5450    1.2863 H   0  0  0  0  0  0  0  0  0  0  0  0
    3.2598   -5.9070    6.8612 H   0  0  0  0  0  0  0  0  0  0  0  0
    0.6366   -7.9196    6.9907 H   0  0  0  0  0  0  0  0  0  0  0  0
    0.3529   -9.5375    6.3947 H   0  0  0  0  0  0  0  0  0  0  0  0
    0.1420   -8.1770    5.3271 H   0  0  0  0  0  0  0  0  0  0  0  0
    2.7834   -8.5744    7.8696 H   0  0  0  0  0  0  0  0  0  0  0  0
    4.0117   -9.3999    6.9360 H   0  0  0  0  0  0  0  0  0  0  0  0
    2.5142  -10.2095    7.3014 H   0  0  0  0  0  0  0  0  0  0  0  0
    1.7266   -3.4030    4.5802 H   0  0  0  0  0  0  0  0  0  0  0  0
    2.7848   -3.3987    5.9643 H   0  0  0  0  0  0  0  0  0  0  0  0
    4.5898   -5.3088    5.5191 H   0  0  0  0  0  0  0  0  0  0  0  0
    4.0092   -2.1505    3.9569 H   0  0  0  0  0  0  0  0  0  0  0  0
    5.4335   -3.8406    2.2171 H   0  0  0  0  0  0  0  0  0  0  0  0
    2.0799   -2.6060    2.4895 H   0  0  0  0  0  0  0  0  0  0  0  0
    2.7648   -1.4599    0.7410 H   0  0  0  0  0  0  0  0  0  0  0  0
    1.7580   -3.2742   -0.3423 H   0  0  0  0  0  0  0  0  0  0  0  0
    2.5010   -4.8262   -0.7101 H   0  0  0  0  0  0  0  0  0  0  0  0
    3.4616   -3.3458   -0.7387 H   0  0  0  0  0  0  0  0  0  0  0  0
    3.1738   -6.1233    1.1008 H   0  0  0  0  0  0  0  0  0  0  0  0
    4.4575   -6.0849    3.1432 H   0  0  0  0  0  0  0  0  0  0  0  0
  1  2  1  0
  1 32  1  0
  1 33  1  0
  1 34  1  0
  2  3  2  3
  2 35  1  0
  3 16  1  0
  3  4  1  0
  4  5  1  0
  4 36  1  0
  4 37  1  0
  5 18  1  0
  5  6  1  0
  5 38  1  1
  6  7  1  0
  6 39  1  0
  6 40  1  0
  7  8  1  0
  7  9  1  0
  7 41  1  6
  8 42  1  0
  8 43  1  0
  8 44  1  0
  9 14  1  0
  9 31  1  0
  9 10  1  1
 10 11  2  0
 10 12  1  0
 12 13  2  0
 12 21  1  0
 13 14  1  0
 13 45  1  0
 14 15  1  6
 14 18  1  0
 15 16  1  0
 16 17  2  0
 18 19  1  0
 18 20  1  0
 19 46  1  0
 19 47  1  0
 19 48  1  0
 20 49  1  0
 20 50  1  0
 20 51  1  0
 21 22  1  0
 21 52  1  0
 21 53  1  0
 22 31  1  0
 22 23  1  1
 22 24  1  0
 23 54  1  0
 24 25  1  0
 24 26  1  0
 24 55  1  1
 25 56  1  0
 26 27  1  0
 26 28  1  0
 26 57  1  1
 27 58  1  0
 28 29  1  0
 28 30  2  0
 29 59  1  0
 29 60  1  0
 29 61  1  0
 30 31  1  0
 30 62  1  0
 31 63  1  6
M  END
>  <i_m_ct_stereo_status>  (298) 
1

>  <s_m_source_file>  (298) 
/var/tmp/pbs.5076255.sched01/tmpo609hgx5/90rinj4u0e.sdf

>  <i_m_source_file_index>  (298) 
36

>  <i_lp_mmshare_version>  (298) 
48012

>  <i_f3d_flags>  (298) 
0

>  <s_epik_input>  (298) 
W0NIM11bQ0BASF0xW0NIMl1bQ0BIXShDMihbQ0gzXSlbQ0gzXSlbQ0gyXVxDKD1bQ0hdXFtDSDNdKUMoPU8pT1tDQF0yKFtDQEBdMTM0KVtDSF09QyhDMz1PKVtDSDJdW0NAQF01KFtPSF0pW0NAQEhdNFtDSF09QyhbQ0gzXSlbQ0BIXShbT0hdKVtDQEBIXTVbT0hd

>  <s_epik_cmdline>  (298) 
J2VwaWtfcHl0aG9uJywgJy1waHQnLCAnMi4wJywgJy1waCcsICc3LjAnLCAnLXRuJywgJzgnLCAnLW1hJywgJzIwMCcsICctaW1hZScsICc8aW5maWxlLm1hZT4nLCAnLW9tYWUnLCAnPG91dGZpbGUubWFlPic=

>  <r_lp_tautomer_probability>  (298) 
1

>  <r_epik_Ionization_Penalty>  (298) 
1.05538e-06

>  <r_epik_Ionization_Penalty_Charging>  (298) 
0

>  <r_epik_Ionization_Penalty_Neutral>  (298) 
1.05538e-06

>  <r_epik_State_Penalty>  (298) 
-0

>  <r_epik_Charging_Adjusted_Penalty>  (298) 
0

>  <i_epik_Tot_Q>  (298) 
0

>  <i_epik_Tot_abs_Q>  (298) 
0

>  <s_epik_Chemistry_Notes>  (298) 
This compound has an ester and may undergo hydrolysis at high or low pH.

>  <s_lp_Force_Field>  (298) 
OPLS3e

>  <r_lp_Energy>  (298) 
118.703

>  <b_lp_Chiralities_Consistent>  (298) 
1

>  <s_lp_Variant>  (298) 
83:0-1

>  <s_i_glide_gridfile>  (298) 
pfpi4k_grid

>  <i_i_glide_lignum>  (298) 
36

>  <i_i_glide_rotatable_bonds>  (298) 
3

>  <r_i_docking_score>  (298) 
-2.68023

>  <r_i_glide_ligand_efficiency>  (298) 
-0.086459

>  <r_i_glide_ligand_efficiency_sa>  (298) 
-0.271601

>  <r_i_glide_ligand_efficiency_ln>  (298) 
-0.604474

>  <r_i_glide_gscore>  (298) 
-2.68023

>  <r_i_glide_lipo>  (298) 
-0.0975714

>  <r_i_glide_hbond>  (298) 
-0.0314316

>  <r_i_glide_metal>  (298) 
-0

>  <r_i_glide_rewards>  (298) 
-0.987377

>  <r_i_glide_evdw>  (298) 
-20.7245

>  <r_i_glide_ecoul>  (298) 
-3.47734

>  <r_i_glide_erotb>  (298) 
0

>  <r_i_glide_esite>  (298) 
-0.00602407

>  <r_i_glide_emodel>  (298) 
-33.2332

>  <r_i_glide_energy>  (298) 
-24.2018

>  <r_i_glide_einternal>  (298) 
0.354928

>  <r_i_glide_intrahb_reward>  (298) 
-0.5

>  <i_i_glide_confnum>  (298) 
1

>  <i_i_glide_posenum>  (298) 
19

>  <r_i_glide_eff_state_penalty>  (298) 
0

>  <ligand_id>  (298) 
83

>  <original_smiles>  (298) 
CC=C1CC2CC(C)C34C(=O)C(=CC3(OC1=O)C2(C)C)CC1(O)C(O)C(O)C(C)=CC14

>  <smiles>  (298) 
[H]OC1([H])C(C([H])([H])[H])=C([H])C2([H])C(O[H])(C([H])([H])C3=C([H])C45OC(=O)C(=C([H])C([H])([H])[H])C([H])([H])C([H])(C([H])([H])C([H])(C([H])([H])[H])C24C3=O)C5(C([H])([H])[H])C([H])([H])[H])C1([H])O[H]

$$$$
83:0:1
     RDKit          3D

 63 67  0  0  1  0  0  0  0  0999 V2000
    1.7392   -2.6399    4.6721 C   0  0  0  0  0  0  0  0  0  0  0  0
    2.0416   -2.0766    3.2923 C   0  0  0  0  0  0  0  0  0  0  0  0
    3.2480   -2.0044    2.6746 C   0  0  0  0  0  0  0  0  0  0  0  0
    3.3823   -1.3748    1.2991 C   0  0  0  0  0  0  0  0  0  0  0  0
    3.8206   -2.3553    0.1996 C   0  0  2  0  0  0  0  0  0  0  0  0
    2.8361   -3.5083   -0.0184 C   0  0  0  0  0  0  0  0  0  0  0  0
    2.8165   -4.6374    1.0458 C   0  0  1  0  0  0  0  0  0  0  0  0
    1.9718   -5.7866    0.4471 C   0  0  0  0  0  0  0  0  0  0  0  0
    4.2315   -5.0454    1.6519 C   0  0  1  0  0  0  0  0  0  0  0  0
    5.0005   -6.1050    0.8696 C   0  0  0  0  0  0  0  0  0  0  0  0
    4.5401   -6.9484    0.1158 O   0  0  0  0  0  0  0  0  0  0  0  0
    6.3630   -6.0179    1.3282 C   0  0  0  0  0  0  0  0  0  0  0  0
    6.5976   -4.7077    1.4783 C   0  0  0  0  0  0  0  0  0  0  0  0
    5.3146   -3.8676    1.5590 C   0  0  2  0  0  0  0  0  0  0  0  0
    5.4119   -3.1037    2.7799 O   0  0  0  0  0  0  0  0  0  0  0  0
    4.5017   -2.2996    3.3943 C   0  0  0  0  0  0  0  0  0  0  0  0
    4.7563   -1.8147    4.5168 O   0  0  0  0  0  0  0  0  0  0  0  0
    5.2583   -2.8836    0.3265 C   0  0  0  0  0  0  0  0  0  0  0  0
    5.6544   -3.5472   -1.0278 C   0  0  0  0  0  0  0  0  0  0  0  0
    6.2658   -1.7070    0.4572 C   0  0  0  0  0  0  0  0  0  0  0  0
    6.5026   -6.9049    2.5562 C   0  0  0  0  0  0  0  0  0  0  0  0
    5.5139   -6.4313    3.6775 C   0  0  2  0  0  0  0  0  0  0  0  0
    6.2577   -5.4553    4.3773 O   0  0  0  0  0  0  0  0  0  0  0  0
    5.2503   -7.6044    4.6862 C   0  0  1  0  0  0  0  0  0  0  0  0
    4.7712   -7.1112    5.9243 O   0  0  0  0  0  0  0  0  0  0  0  0
    4.2096   -8.6095    4.1480 C   0  0  1  0  0  0  0  0  0  0  0  0
    3.9675   -9.5986    5.1281 O   0  0  0  0  0  0  0  0  0  0  0  0
    2.9376   -7.9105    3.7088 C   0  0  0  0  0  0  0  0  0  0  0  0
    1.6455   -8.7172    3.7622 C   0  0  0  0  0  0  0  0  0  0  0  0
    2.9505   -6.6294    3.3011 C   0  0  0  0  0  0  0  0  0  0  0  0
    4.1694   -5.7215    3.1297 C   0  0  2  0  0  0  0  0  0  0  0  0
    0.9218   -3.3635    4.6027 H   0  0  0  0  0  0  0  0  0  0  0  0
    1.4312   -1.8357    5.3410 H   0  0  0  0  0  0  0  0  0  0  0  0
    2.5870   -3.1548    5.1247 H   0  0  0  0  0  0  0  0  0  0  0  0
    1.1702   -1.7410    2.7551 H   0  0  0  0  0  0  0  0  0  0  0  0
    2.4131   -0.9646    1.0131 H   0  0  0  0  0  0  0  0  0  0  0  0
    4.0236   -0.4960    1.3567 H   0  0  0  0  0  0  0  0  0  0  0  0
    3.7725   -1.7529   -0.7053 H   0  0  0  0  0  0  0  0  0  0  0  0
    1.8417   -3.0651   -0.0410 H   0  0  0  0  0  0  0  0  0  0  0  0
    2.9538   -3.9174   -1.0176 H   0  0  0  0  0  0  0  0  0  0  0  0
    2.2345   -4.2824    1.8860 H   0  0  0  0  0  0  0  0  0  0  0  0
    2.3004   -6.0001   -0.5593 H   0  0  0  0  0  0  0  0  0  0  0  0
    0.9447   -5.4825    0.3207 H   0  0  0  0  0  0  0  0  0  0  0  0
    1.9787   -6.7365    0.9759 H   0  0  0  0  0  0  0  0  0  0  0  0
    7.4168   -4.3771    2.0962 H   0  0  0  0  0  0  0  0  0  0  0  0
    6.7005   -3.8521   -1.0449 H   0  0  0  0  0  0  0  0  0  0  0  0
    5.5193   -2.8472   -1.8532 H   0  0  0  0  0  0  0  0  0  0  0  0
    5.0623   -4.4269   -1.2724 H   0  0  0  0  0  0  0  0  0  0  0  0
    7.3015   -2.0496    0.4367 H   0  0  0  0  0  0  0  0  0  0  0  0
    6.1481   -1.1262    1.3730 H   0  0  0  0  0  0  0  0  0  0  0  0
    6.1363   -1.0023   -0.3640 H   0  0  0  0  0  0  0  0  0  0  0  0
    6.2311   -7.9115    2.2357 H   0  0  0  0  0  0  0  0  0  0  0  0
    7.5359   -6.9759    2.9090 H   0  0  0  0  0  0  0  0  0  0  0  0
    7.0172   -5.8745    4.7490 H   0  0  0  0  0  0  0  0  0  0  0  0
    6.1792   -8.1312    4.8979 H   0  0  0  0  0  0  0  0  0  0  0  0
    4.6359   -7.8691    6.4772 H   0  0  0  0  0  0  0  0  0  0  0  0
    4.6102   -9.1174    3.2708 H   0  0  0  0  0  0  0  0  0  0  0  0
    3.4339  -10.2810    4.7429 H   0  0  0  0  0  0  0  0  0  0  0  0
    1.7421   -9.6389    3.1865 H   0  0  0  0  0  0  0  0  0  0  0  0
    0.8150   -8.1508    3.3382 H   0  0  0  0  0  0  0  0  0  0  0  0
    1.3796   -8.9764    4.7881 H   0  0  0  0  0  0  0  0  0  0  0  0
    2.0039   -6.1721    3.0711 H   0  0  0  0  0  0  0  0  0  0  0  0
    3.9329   -4.9412    3.8498 H   0  0  0  0  0  0  0  0  0  0  0  0
  1  2  1  0
  1 32  1  0
  1 33  1  0
  1 34  1  0
  2  3  2  3
  2 35  1  0
  3 16  1  0
  3  4  1  0
  4  5  1  0
  4 36  1  0
  4 37  1  0
  5 18  1  0
  5  6  1  0
  5 38  1  6
  6  7  1  0
  6 39  1  0
  6 40  1  0
  7  8  1  0
  7  9  1  0
  7 41  1  1
  8 42  1  0
  8 43  1  0
  8 44  1  0
  9 14  1  0
  9 31  1  0
  9 10  1  6
 10 11  2  0
 10 12  1  0
 12 13  2  0
 12 21  1  0
 13 14  1  0
 13 45  1  0
 14 15  1  1
 14 18  1  0
 15 16  1  0
 16 17  2  0
 18 19  1  0
 18 20  1  0
 19 46  1  0
 19 47  1  0
 19 48  1  0
 20 49  1  0
 20 50  1  0
 20 51  1  0
 21 22  1  0
 21 52  1  0
 21 53  1  0
 22 31  1  0
 22 23  1  1
 22 24  1  0
 23 54  1  0
 24 25  1  0
 24 26  1  0
 24 55  1  1
 25 56  1  0
 26 27  1  0
 26 28  1  0
 26 57  1  6
 27 58  1  0
 28 29  1  0
 28 30  2  0
 29 59  1  0
 29 60  1  0
 29 61  1  0
 30 31  1  0
 30 62  1  0
 31 63  1  1
M  END
>  <i_m_ct_stereo_status>  (299) 
1

>  <s_m_source_file>  (299) 
/var/tmp/pbs.5076255.sched01/tmpo609hgx5/90rinj4u0e.sdf

>  <i_m_source_file_index>  (299) 
36

>  <i_lp_mmshare_version>  (299) 
48012

>  <i_f3d_flags>  (299) 
0

>  <s_epik_input>  (299) 
W0NIM11bQ0BASF0xW0NIMl1bQ0BIXShDMihbQ0gzXSlbQ0gzXSlbQ0gyXVxDKD1bQ0hdXFtDSDNdKUMoPU8pT1tDQF0yKFtDQEBdMTM0KVtDSF09QyhDMz1PKVtDSDJdW0NAQF01KFtPSF0pW0NAQEhdNFtDSF09QyhbQ0gzXSlbQ0BIXShbT0hdKVtDQEBIXTVbT0hd

>  <s_epik_cmdline>  (299) 
J2VwaWtfcHl0aG9uJywgJy1waHQnLCAnMi4wJywgJy1waCcsICc3LjAnLCAnLXRuJywgJzgnLCAnLW1hJywgJzIwMCcsICctaW1hZScsICc8aW5maWxlLm1hZT4nLCAnLW9tYWUnLCAnPG91dGZpbGUubWFlPic=

>  <r_lp_tautomer_probability>  (299) 
1

>  <r_epik_Ionization_Penalty>  (299) 
1.05538e-06

>  <r_epik_Ionization_Penalty_Charging>  (299) 
0

>  <r_epik_Ionization_Penalty_Neutral>  (299) 
1.05538e-06

>  <r_epik_State_Penalty>  (299) 
-0

>  <r_epik_Charging_Adjusted_Penalty>  (299) 
0

>  <i_epik_Tot_Q>  (299) 
0

>  <i_epik_Tot_abs_Q>  (299) 
0

>  <s_epik_Chemistry_Notes>  (299) 
This compound has an ester and may undergo hydrolysis at high or low pH.

>  <s_lp_Force_Field>  (299) 
OPLS3e

>  <r_lp_Energy>  (299) 
118.703

>  <b_lp_Chiralities_Consistent>  (299) 
1

>  <s_lp_Variant>  (299) 
83:0-1

>  <s_i_glide_gridfile>  (299) 
pfpi4k_grid

>  <i_i_glide_lignum>  (299) 
36

>  <i_i_glide_rotatable_bonds>  (299) 
3

>  <r_i_docking_score>  (299) 
-2.46212

>  <r_i_glide_ligand_efficiency>  (299) 
-0.0794231

>  <r_i_glide_ligand_efficiency_sa>  (299) 
-0.249498

>  <r_i_glide_ligand_efficiency_ln>  (299) 
-0.555283

>  <r_i_glide_gscore>  (299) 
-2.46212

>  <r_i_glide_lipo>  (299) 
-0.446318

>  <r_i_glide_hbond>  (299) 
0

>  <r_i_glide_metal>  (299) 
-0

>  <r_i_glide_rewards>  (299) 
-0.671337

>  <r_i_glide_evdw>  (299) 
-22.7739

>  <r_i_glide_ecoul>  (299) 
-1.37178

>  <r_i_glide_erotb>  (299) 
0

>  <r_i_glide_esite>  (299) 
0

>  <r_i_glide_emodel>  (299) 
-27.5515

>  <r_i_glide_energy>  (299) 
-24.1456

>  <r_i_glide_einternal>  (299) 
0.691269

>  <r_i_glide_intrahb_reward>  (299) 
-0

>  <i_i_glide_confnum>  (299) 
1

>  <i_i_glide_posenum>  (299) 
11

>  <r_i_glide_eff_state_penalty>  (299) 
0

>  <ligand_id>  (299) 
83

>  <original_smiles>  (299) 
CC=C1CC2CC(C)C34C(=O)C(=CC3(OC1=O)C2(C)C)CC1(O)C(O)C(O)C(C)=CC14

>  <smiles>  (299) 
[H]OC1([H])C(C([H])([H])[H])=C([H])C2([H])C(O[H])(C([H])([H])C3=C([H])C45OC(=O)C(=C([H])C([H])([H])[H])C([H])([H])C([H])(C([H])([H])C([H])(C([H])([H])[H])C24C3=O)C5(C([H])([H])[H])C([H])([H])[H])C1([H])O[H]

$$$$
83:0:2
     RDKit          3D

 63 67  0  0  1  0  0  0  0  0999 V2000
    1.7843   -2.5890    4.6741 C   0  0  0  0  0  0  0  0  0  0  0  0
    2.0835   -2.0439    3.2862 C   0  0  0  0  0  0  0  0  0  0  0  0
    3.2879   -1.9832    2.6637 C   0  0  0  0  0  0  0  0  0  0  0  0
    3.4179   -1.3706    1.2792 C   0  0  0  0  0  0  0  0  0  0  0  0
    3.8485   -2.3681    0.1899 C   0  0  2  0  0  0  0  0  0  0  0  0
    2.8582   -3.5206   -0.0077 C   0  0  0  0  0  0  0  0  0  0  0  0
    2.8371   -4.6420    1.0666 C   0  0  1  0  0  0  0  0  0  0  0  0
    1.9834   -5.7901    0.4834 C   0  0  0  0  0  0  0  0  0  0  0  0
    4.2532   -5.0491    1.6736 C   0  0  1  0  0  0  0  0  0  0  0  0
    5.0119   -6.1205    0.8997 C   0  0  0  0  0  0  0  0  0  0  0  0
    4.5447   -6.9732    0.1605 O   0  0  0  0  0  0  0  0  0  0  0  0
    6.3765   -6.0359    1.3578 C   0  0  0  0  0  0  0  0  0  0  0  0
    6.6155   -4.7248    1.4911 C   0  0  0  0  0  0  0  0  0  0  0  0
    5.3366   -3.8791    1.5620 C   0  0  2  0  0  0  0  0  0  0  0  0
    5.4439   -3.1069    2.7778 O   0  0  0  0  0  0  0  0  0  0  0  0
    4.5420   -2.2842    3.3807 C   0  0  0  0  0  0  0  0  0  0  0  0
    4.8015   -1.7956    4.4996 O   0  0  0  0  0  0  0  0  0  0  0  0
    5.2827   -2.9050    0.3197 C   0  0  0  0  0  0  0  0  0  0  0  0
    5.6667   -3.5836   -1.0299 C   0  0  0  0  0  0  0  0  0  0  0  0
    6.2976   -1.7341    0.4306 C   0  0  0  0  0  0  0  0  0  0  0  0
    6.5135   -6.9124    2.5916 C   0  0  0  0  0  0  0  0  0  0  0  0
    5.5333   -6.4179    3.7117 C   0  0  2  0  0  0  0  0  0  0  0  0
    6.2919   -5.4566    4.4227 O   0  0  0  0  0  0  0  0  0  0  0  0
    5.2577   -7.5623    4.7380 C   0  0  1  0  0  0  0  0  0  0  0  0
    4.7827   -6.9706    5.9400 O   0  0  0  0  0  0  0  0  0  0  0  0
    4.2119   -8.5789    4.2167 C   0  0  1  0  0  0  0  0  0  0  0  0
    3.9726   -9.5821    5.1832 O   0  0  0  0  0  0  0  0  0  0  0  0
    2.9420   -7.8789    3.7711 C   0  0  0  0  0  0  0  0  0  0  0  0
    1.6472   -8.6757    3.8373 C   0  0  0  0  0  0  0  0  0  0  0  0
    2.9636   -6.6035    3.3459 C   0  0  0  0  0  0  0  0  0  0  0  0
    4.1893   -5.7059    3.1577 C   0  0  2  0  0  0  0  0  0  0  0  0
    0.9633   -3.3072    4.6151 H   0  0  0  0  0  0  0  0  0  0  0  0
    1.4839   -1.7757    5.3345 H   0  0  0  0  0  0  0  0  0  0  0  0
    2.6303   -3.1043    5.1304 H   0  0  0  0  0  0  0  0  0  0  0  0
    1.2109   -1.7077    2.7480 H   0  0  0  0  0  0  0  0  0  0  0  0
    2.4509   -0.9583    0.9899 H   0  0  0  0  0  0  0  0  0  0  0  0
    4.0681   -0.4962    1.3203 H   0  0  0  0  0  0  0  0  0  0  0  0
    3.7999   -1.7791   -0.7235 H   0  0  0  0  0  0  0  0  0  0  0  0
    1.8723   -3.0713   -0.0316 H   0  0  0  0  0  0  0  0  0  0  0  0
    2.9657   -3.9390   -1.0071 H   0  0  0  0  0  0  0  0  0  0  0  0
    2.2595   -4.2716    1.9063 H   0  0  0  0  0  0  0  0  0  0  0  0
    2.3083   -6.0251   -0.5208 H   0  0  0  0  0  0  0  0  0  0  0  0
    0.9588   -5.4788    0.3564 H   0  0  0  0  0  0  0  0  0  0  0  0
    1.9826   -6.7327    1.0262 H   0  0  0  0  0  0  0  0  0  0  0  0
    7.4411   -4.3897    2.0863 H   0  0  0  0  0  0  0  0  0  0  0  0
    6.7157   -3.8761   -1.0461 H   0  0  0  0  0  0  0  0  0  0  0  0
    5.5325   -2.8962   -1.8657 H   0  0  0  0  0  0  0  0  0  0  0  0
    5.0746   -4.4668   -1.2614 H   0  0  0  0  0  0  0  0  0  0  0  0
    7.3322   -2.0822    0.4096 H   0  0  0  0  0  0  0  0  0  0  0  0
    6.1895   -1.1413    1.3393 H   0  0  0  0  0  0  0  0  0  0  0  0
    6.1725   -1.0379   -0.3989 H   0  0  0  0  0  0  0  0  0  0  0  0
    6.2348   -7.9204    2.2858 H   0  0  0  0  0  0  0  0  0  0  0  0
    7.5448   -6.9810    2.9487 H   0  0  0  0  0  0  0  0  0  0  0  0
    5.7395   -5.1228    5.1193 H   0  0  0  0  0  0  0  0  0  0  0  0
    6.1795   -8.0972    4.9669 H   0  0  0  0  0  0  0  0  0  0  0  0
    5.5311   -6.6164    6.4012 H   0  0  0  0  0  0  0  0  0  0  0  0
    4.6094   -9.0913    3.3419 H   0  0  0  0  0  0  0  0  0  0  0  0
    3.4234  -10.2548    4.8017 H   0  0  0  0  0  0  0  0  0  0  0  0
    1.7373   -9.6047    3.2719 H   0  0  0  0  0  0  0  0  0  0  0  0
    0.8186   -8.1096    3.4091 H   0  0  0  0  0  0  0  0  0  0  0  0
    1.3838   -8.9217    4.8677 H   0  0  0  0  0  0  0  0  0  0  0  0
    2.0178   -6.1445    3.1130 H   0  0  0  0  0  0  0  0  0  0  0  0
    3.9542   -4.9116    3.8651 H   0  0  0  0  0  0  0  0  0  0  0  0
  1  2  1  0
  1 32  1  0
  1 33  1  0
  1 34  1  0
  2  3  2  3
  2 35  1  0
  3 16  1  0
  3  4  1  0
  4  5  1  0
  4 36  1  0
  4 37  1  0
  5 18  1  0
  5  6  1  0
  5 38  1  6
  6  7  1  0
  6 39  1  0
  6 40  1  0
  7  8  1  0
  7  9  1  0
  7 41  1  1
  8 42  1  0
  8 43  1  0
  8 44  1  0
  9 14  1  0
  9 31  1  0
  9 10  1  6
 10 11  2  0
 10 12  1  0
 12 13  2  0
 12 21  1  0
 13 14  1  0
 13 45  1  0
 14 15  1  1
 14 18  1  0
 15 16  1  0
 16 17  2  0
 18 19  1  0
 18 20  1  0
 19 46  1  0
 19 47  1  0
 19 48  1  0
 20 49  1  0
 20 50  1  0
 20 51  1  0
 21 22  1  0
 21 52  1  0
 21 53  1  0
 22 31  1  0
 22 23  1  1
 22 24  1  0
 23 54  1  0
 24 25  1  0
 24 26  1  0
 24 55  1  1
 25 56  1  0
 26 27  1  0
 26 28  1  0
 26 57  1  6
 27 58  1  0
 28 29  1  0
 28 30  2  0
 29 59  1  0
 29 60  1  0
 29 61  1  0
 30 31  1  0
 30 62  1  0
 31 63  1  1
M  END
>  <i_m_ct_stereo_status>  (300) 
1

>  <s_m_source_file>  (300) 
/var/tmp/pbs.5076255.sched01/tmpo609hgx5/90rinj4u0e.sdf

>  <i_m_source_file_index>  (300) 
36

>  <i_lp_mmshare_version>  (300) 
48012

>  <i_f3d_flags>  (300) 
0

>  <s_epik_input>  (300) 
W0NIM11bQ0BASF0xW0NIMl1bQ0BIXShDMihbQ0gzXSlbQ0gzXSlbQ0gyXVxDKD1bQ0hdXFtDSDNdKUMoPU8pT1tDQF0yKFtDQEBdMTM0KVtDSF09QyhDMz1PKVtDSDJdW0NAQF01KFtPSF0pW0NAQEhdNFtDSF09QyhbQ0gzXSlbQ0BIXShbT0hdKVtDQEBIXTVbT0hd

>  <s_epik_cmdline>  (300) 
J2VwaWtfcHl0aG9uJywgJy1waHQnLCAnMi4wJywgJy1waCcsICc3LjAnLCAnLXRuJywgJzgnLCAnLW1hJywgJzIwMCcsICctaW1hZScsICc8aW5maWxlLm1hZT4nLCAnLW9tYWUnLCAnPG91dGZpbGUubWFlPic=

>  <r_lp_tautomer_probability>  (300) 
1

>  <r_epik_Ionization_Penalty>  (300) 
1.05538e-06

>  <r_epik_Ionization_Penalty_Charging>  (300) 
0

>  <r_epik_Ionization_Penalty_Neutral>  (300) 
1.05538e-06

>  <r_epik_State_Penalty>  (300) 
-0

>  <r_epik_Charging_Adjusted_Penalty>  (300) 
0

>  <i_epik_Tot_Q>  (300) 
0

>  <i_epik_Tot_abs_Q>  (300) 
0

>  <s_epik_Chemistry_Notes>  (300) 
This compound has an ester and may undergo hydrolysis at high or low pH.

>  <s_lp_Force_Field>  (300) 
OPLS3e

>  <r_lp_Energy>  (300) 
118.703

>  <b_lp_Chiralities_Consistent>  (300) 
1

>  <s_lp_Variant>  (300) 
83:0-1

>  <s_i_glide_gridfile>  (300) 
pfpi4k_grid

>  <i_i_glide_lignum>  (300) 
36

>  <i_i_glide_rotatable_bonds>  (300) 
3

>  <r_i_docking_score>  (300) 
-2.41507

>  <r_i_glide_ligand_efficiency>  (300) 
-0.0779054

>  <r_i_glide_ligand_efficiency_sa>  (300) 
-0.244731

>  <r_i_glide_ligand_efficiency_ln>  (300) 
-0.544672

>  <r_i_glide_gscore>  (300) 
-2.41507

>  <r_i_glide_lipo>  (300) 
-0.437885

>  <r_i_glide_hbond>  (300) 
0

>  <r_i_glide_metal>  (300) 
-0

>  <r_i_glide_rewards>  (300) 
-0.673707

>  <r_i_glide_evdw>  (300) 
-22.7843

>  <r_i_glide_ecoul>  (300) 
-1.09508

>  <r_i_glide_erotb>  (300) 
0

>  <r_i_glide_esite>  (300) 
0

>  <r_i_glide_emodel>  (300) 
-27.2348

>  <r_i_glide_energy>  (300) 
-23.8794

>  <r_i_glide_einternal>  (300) 
0.687872

>  <r_i_glide_intrahb_reward>  (300) 
-0

>  <i_i_glide_confnum>  (300) 
1

>  <i_i_glide_posenum>  (300) 
18

>  <r_i_glide_eff_state_penalty>  (300) 
0

>  <ligand_id>  (300) 
83

>  <original_smiles>  (300) 
CC=C1CC2CC(C)C34C(=O)C(=CC3(OC1=O)C2(C)C)CC1(O)C(O)C(O)C(C)=CC14

>  <smiles>  (300) 
[H]OC1([H])C(C([H])([H])[H])=C([H])C2([H])C(O[H])(C([H])([H])C3=C([H])C45OC(=O)C(=C([H])C([H])([H])[H])C([H])([H])C([H])(C([H])([H])C([H])(C([H])([H])[H])C24C3=O)C5(C([H])([H])[H])C([H])([H])[H])C1([H])O[H]

$$$$
83:1:0
     RDKit          3D

 63 67  0  0  1  0  0  0  0  0999 V2000
    4.9853   -8.9803    0.9228 C   0  0  0  0  0  0  0  0  0  0  0  0
    5.7415   -7.7238    1.2988 C   0  0  0  0  0  0  0  0  0  0  0  0
    5.7437   -7.0738    2.4884 C   0  0  0  0  0  0  0  0  0  0  0  0
    5.0721   -7.5838    3.7519 C   0  0  0  0  0  0  0  0  0  0  0  0
    3.9174   -6.7012    4.2446 C   0  0  2  0  0  0  0  0  0  0  0  0
    2.7781   -6.5845    3.2322 C   0  0  0  0  0  0  0  0  0  0  0  0
    3.0197   -5.6674    2.0124 C   0  0  1  0  0  0  0  0  0  0  0  0
    1.6407   -5.5282    1.3701 C   0  0  0  0  0  0  0  0  0  0  0  0
    3.8192   -4.3120    2.2763 C   0  0  1  0  0  0  0  0  0  0  0  0
    2.9978   -3.1128    2.7399 C   0  0  0  0  0  0  0  0  0  0  0  0
    1.7971   -2.9544    2.6334 O   0  0  0  0  0  0  0  0  0  0  0  0
    3.9535   -2.1935    3.3179 C   0  0  0  0  0  0  0  0  0  0  0  0
    4.8365   -2.9571    3.9675 C   0  0  0  0  0  0  0  0  0  0  0  0
    4.7863   -4.4327    3.5458 C   0  0  2  0  0  0  0  0  0  0  0  0
    6.1297   -4.7715    3.1656 O   0  0  0  0  0  0  0  0  0  0  0  0
    6.6316   -5.9058    2.6005 C   0  0  0  0  0  0  0  0  0  0  0  0
    7.8027   -5.9243    2.1790 O   0  0  0  0  0  0  0  0  0  0  0  0
    4.3268   -5.3146    4.7708 C   0  0  0  0  0  0  0  0  0  0  0  0
    3.1219   -4.7142    5.5587 C   0  0  0  0  0  0  0  0  0  0  0  0
    5.4310   -5.4495    5.8560 C   0  0  0  0  0  0  0  0  0  0  0  0
    4.4807   -1.3059    2.2023 C   0  0  0  0  0  0  0  0  0  0  0  0
    5.1544   -2.1852    1.0894 C   0  0  2  0  0  0  0  0  0  0  0  0
    6.4957   -2.2962    1.5002 O   0  0  0  0  0  0  0  0  0  0  0  0
    5.2155   -1.3929   -0.2642 C   0  0  1  0  0  0  0  0  0  0  0  0
    6.2484   -1.8842   -1.1134 O   0  0  0  0  0  0  0  0  0  0  0  0
    3.8705   -1.4658   -1.0188 C   0  0  1  0  0  0  0  0  0  0  0  0
    3.9633   -0.8031   -2.2654 O   0  0  0  0  0  0  0  0  0  0  0  0
    3.3934   -2.8936   -1.1755 C   0  0  0  0  0  0  0  0  0  0  0  0
    2.5018   -3.1812   -2.3737 C   0  0  0  0  0  0  0  0  0  0  0  0
    3.7500   -3.8576   -0.3084 C   0  0  0  0  0  0  0  0  0  0  0  0
    4.5678   -3.6890    0.9718 C   0  0  2  0  0  0  0  0  0  0  0  0
    4.4704   -8.8145   -0.0243 H   0  0  0  0  0  0  0  0  0  0  0  0
    4.2247   -9.2819    1.6416 H   0  0  0  0  0  0  0  0  0  0  0  0
    5.6784   -9.8132    0.7927 H   0  0  0  0  0  0  0  0  0  0  0  0
    6.3277   -7.2785    0.5105 H   0  0  0  0  0  0  0  0  0  0  0  0
    4.6863   -8.5875    3.5916 H   0  0  0  0  0  0  0  0  0  0  0  0
    5.8302   -7.7329    4.5194 H   0  0  0  0  0  0  0  0  0  0  0  0
    3.5096   -7.2616    5.0823 H   0  0  0  0  0  0  0  0  0  0  0  0
    2.5800   -7.5791    2.8347 H   0  0  0  0  0  0  0  0  0  0  0  0
    1.8544   -6.3283    3.7457 H   0  0  0  0  0  0  0  0  0  0  0  0
    3.5966   -6.2148    1.2769 H   0  0  0  0  0  0  0  0  0  0  0  0
    0.9017   -5.2235    2.1155 H   0  0  0  0  0  0  0  0  0  0  0  0
    1.2940   -6.4742    0.9553 H   0  0  0  0  0  0  0  0  0  0  0  0
    1.6064   -4.7972    0.5698 H   0  0  0  0  0  0  0  0  0  0  0  0
    5.8105   -2.5616    4.2143 H   0  0  0  0  0  0  0  0  0  0  0  0
    3.3742   -3.7711    6.0437 H   0  0  0  0  0  0  0  0  0  0  0  0
    2.8083   -5.3929    6.3529 H   0  0  0  0  0  0  0  0  0  0  0  0
    2.2443   -4.5351    4.9428 H   0  0  0  0  0  0  0  0  0  0  0  0
    5.6507   -4.5004    6.3447 H   0  0  0  0  0  0  0  0  0  0  0  0
    6.3788   -5.8309    5.4764 H   0  0  0  0  0  0  0  0  0  0  0  0
    5.1192   -6.1421    6.6383 H   0  0  0  0  0  0  0  0  0  0  0  0
    3.6122   -0.7968    1.7831 H   0  0  0  0  0  0  0  0  0  0  0  0
    5.1405   -0.5118    2.5656 H   0  0  0  0  0  0  0  0  0  0  0  0
    6.5144   -2.7211    2.3430 H   0  0  0  0  0  0  0  0  0  0  0  0
    5.4575   -0.3478   -0.0603 H   0  0  0  0  0  0  0  0  0  0  0  0
    6.0469   -2.7847   -1.3242 H   0  0  0  0  0  0  0  0  0  0  0  0
    3.1080   -0.9510   -0.4341 H   0  0  0  0  0  0  0  0  0  0  0  0
    3.0829   -0.5479   -2.5064 H   0  0  0  0  0  0  0  0  0  0  0  0
    1.6270   -2.5362   -2.3779 H   0  0  0  0  0  0  0  0  0  0  0  0
    2.1200   -4.1993   -2.3309 H   0  0  0  0  0  0  0  0  0  0  0  0
    3.0426   -3.0602   -3.3128 H   0  0  0  0  0  0  0  0  0  0  0  0
    3.4399   -4.8655   -0.5253 H   0  0  0  0  0  0  0  0  0  0  0  0
    5.4192   -4.3258    0.7404 H   0  0  0  0  0  0  0  0  0  0  0  0
  1  2  1  0
  1 32  1  0
  1 33  1  0
  1 34  1  0
  2  3  2  3
  2 35  1  0
  3 16  1  0
  3  4  1  0
  4  5  1  0
  4 36  1  0
  4 37  1  0
  5 18  1  0
  5  6  1  0
  5 38  1  1
  6  7  1  0
  6 39  1  0
  6 40  1  0
  7  8  1  0
  7  9  1  0
  7 41  1  6
  8 42  1  0
  8 43  1  0
  8 44  1  0
  9 14  1  0
  9 31  1  0
  9 10  1  1
 10 11  2  0
 10 12  1  0
 12 13  2  0
 12 21  1  0
 13 14  1  0
 13 45  1  0
 14 15  1  6
 14 18  1  0
 15 16  1  0
 16 17  2  0
 18 19  1  0
 18 20  1  0
 19 46  1  0
 19 47  1  0
 19 48  1  0
 20 49  1  0
 20 50  1  0
 20 51  1  0
 21 22  1  0
 21 52  1  0
 21 53  1  0
 22 31  1  0
 22 23  1  1
 22 24  1  0
 23 54  1  0
 24 25  1  0
 24 26  1  0
 24 55  1  1
 25 56  1  0
 26 27  1  0
 26 28  1  0
 26 57  1  1
 27 58  1  0
 28 29  1  0
 28 30  2  0
 29 59  1  0
 29 60  1  0
 29 61  1  0
 30 31  1  0
 30 62  1  0
 31 63  1  6
M  END
>  <i_m_ct_stereo_status>  (301) 
1

>  <s_m_source_file>  (301) 
/var/tmp/pbs.5076255.sched01/tmpo609hgx5/90rinj4u0e.sdf

>  <i_m_source_file_index>  (301) 
37

>  <i_lp_mmshare_version>  (301) 
48012

>  <i_f3d_flags>  (301) 
0

>  <s_epik_input>  (301) 
W0NIM11bQ0BASF0xW0NIMl1bQ0BIXShDMihbQ0gzXSlbQ0gzXSlbQ0gyXVxDKD1bQ0hdXFtDSDNdKUMoPU8pT1tDQF0yKFtDQEBdMTM0KVtDSF09QyhDMz1PKVtDSDJdW0NAQF01KFtPSF0pW0NAQEhdNFtDSF09QyhbQ0gzXSlbQ0BIXShbT0hdKVtDQEBIXTVbT0hd

>  <s_epik_cmdline>  (301) 
J2VwaWtfcHl0aG9uJywgJy1waHQnLCAnMi4wJywgJy1waCcsICc3LjAnLCAnLXRuJywgJzgnLCAnLW1hJywgJzIwMCcsICctaW1hZScsICc8aW5maWxlLm1hZT4nLCAnLW9tYWUnLCAnPG91dGZpbGUubWFlPic=

>  <r_lp_tautomer_probability>  (301) 
1

>  <r_epik_Ionization_Penalty>  (301) 
1.05538e-06

>  <r_epik_Ionization_Penalty_Charging>  (301) 
0

>  <r_epik_Ionization_Penalty_Neutral>  (301) 
1.05538e-06

>  <r_epik_State_Penalty>  (301) 
-0

>  <r_epik_Charging_Adjusted_Penalty>  (301) 
0

>  <i_epik_Tot_Q>  (301) 
0

>  <i_epik_Tot_abs_Q>  (301) 
0

>  <s_epik_Chemistry_Notes>  (301) 
This compound has an ester and may undergo hydrolysis at high or low pH.

>  <s_lp_Force_Field>  (301) 
OPLS3e

>  <r_lp_Energy>  (301) 
118.341

>  <b_lp_Chiralities_Consistent>  (301) 
1

>  <s_lp_Variant>  (301) 
83:0-2

>  <s_i_glide_gridfile>  (301) 
pfpi4k_grid

>  <i_i_glide_lignum>  (301) 
37

>  <i_i_glide_rotatable_bonds>  (301) 
3

>  <r_i_docking_score>  (301) 
-2.70007

>  <r_i_glide_ligand_efficiency>  (301) 
-0.0870991

>  <r_i_glide_ligand_efficiency_sa>  (301) 
-0.273612

>  <r_i_glide_ligand_efficiency_ln>  (301) 
-0.608949

>  <r_i_glide_gscore>  (301) 
-2.70007

>  <r_i_glide_lipo>  (301) 
-0.339514

>  <r_i_glide_hbond>  (301) 
0

>  <r_i_glide_metal>  (301) 
-0

>  <r_i_glide_rewards>  (301) 
-1.01545

>  <r_i_glide_evdw>  (301) 
-19.5188

>  <r_i_glide_ecoul>  (301) 
-2.45829

>  <r_i_glide_erotb>  (301) 
0

>  <r_i_glide_esite>  (301) 
-0.000426986

>  <r_i_glide_emodel>  (301) 
-30.2402

>  <r_i_glide_energy>  (301) 
-21.9771

>  <r_i_glide_einternal>  (301) 
0.434102

>  <r_i_glide_intrahb_reward>  (301) 
-0.5

>  <i_i_glide_confnum>  (301) 
1

>  <i_i_glide_posenum>  (301) 
1

>  <r_i_glide_eff_state_penalty>  (301) 
0

>  <ligand_id>  (301) 
83

>  <original_smiles>  (301) 
CC=C1CC2CC(C)C34C(=O)C(=CC3(OC1=O)C2(C)C)CC1(O)C(O)C(O)C(C)=CC14

>  <smiles>  (301) 
[H]OC1([H])C(C([H])([H])[H])=C([H])C2([H])C(O[H])(C([H])([H])C3=C([H])C45OC(=O)C(=C([H])C([H])([H])[H])C([H])([H])C([H])(C([H])([H])C([H])(C([H])([H])[H])C24C3=O)C5(C([H])([H])[H])C([H])([H])[H])C1([H])O[H]

$$$$
83:1:1
     RDKit          3D

 63 67  0  0  1  0  0  0  0  0999 V2000
    2.2146    2.2495    3.6222 C   0  0  0  0  0  0  0  0  0  0  0  0
    1.7389    0.8083    3.5175 C   0  0  0  0  0  0  0  0  0  0  0  0
    2.0970   -0.2370    4.3035 C   0  0  0  0  0  0  0  0  0  0  0  0
    2.9583   -0.1422    5.5443 C   0  0  0  0  0  0  0  0  0  0  0  0
    4.3039   -0.8797    5.4488 C   0  0  2  0  0  0  0  0  0  0  0  0
    5.1775   -0.3242    4.3117 C   0  0  0  0  0  0  0  0  0  0  0  0
    4.8209   -0.7838    2.8688 C   0  0  1  0  0  0  0  0  0  0  0  0
    6.0362   -0.4846    2.0021 C   0  0  0  0  0  0  0  0  0  0  0  0
    4.2720   -2.2341    2.6662 C   0  0  1  0  0  0  0  0  0  0  0  0
    5.3227   -3.2971    2.4114 C   0  0  0  0  0  0  0  0  0  0  0  0
    6.4256   -3.1724    1.8470 O   0  0  0  0  0  0  0  0  0  0  0  0
    4.6829   -4.5347    2.6667 C   0  0  0  0  0  0  0  0  0  0  0  0
    3.8684   -4.3237    3.7285 C   0  0  0  0  0  0  0  0  0  0  0  0
    3.6049   -2.8409    3.9834 C   0  0  2  0  0  0  0  0  0  0  0  0
    2.1759   -2.6784    3.9982 O   0  0  0  0  0  0  0  0  0  0  0  0
    1.4101   -1.5359    4.0190 C   0  0  0  0  0  0  0  0  0  0  0  0
    0.2181   -1.5980    3.8481 O   0  0  0  0  0  0  0  0  0  0  0  0
    4.1943   -2.4244    5.3919 C   0  0  0  0  0  0  0  0  0  0  0  0
    5.5888   -3.0155    5.6800 C   0  0  0  0  0  0  0  0  0  0  0  0
    3.3626   -2.9653    6.5740 C   0  0  0  0  0  0  0  0  0  0  0  0
    4.0948   -4.9820    1.3445 C   0  0  0  0  0  0  0  0  0  0  0  0
    3.0534   -3.8897    0.8701 C   0  0  2  0  0  0  0  0  0  0  0  0
    1.9382   -4.3438    1.5988 O   0  0  0  0  0  0  0  0  0  0  0  0
    2.7841   -3.9983   -0.6726 C   0  0  1  0  0  0  0  0  0  0  0  0
    1.5785   -3.4479   -1.1895 O   0  0  0  0  0  0  0  0  0  0  0  0
    3.9405   -3.3994   -1.5092 C   0  0  1  0  0  0  0  0  0  0  0  0
    3.6979   -3.5003   -2.9038 O   0  0  0  0  0  0  0  0  0  0  0  0
    4.1501   -1.9615   -1.0985 C   0  0  0  0  0  0  0  0  0  0  0  0
    4.6798   -1.0202   -2.1653 C   0  0  0  0  0  0  0  0  0  0  0  0
    3.8557   -1.5396    0.1428 C   0  0  0  0  0  0  0  0  0  0  0  0
    3.3660   -2.3883    1.3320 C   0  0  2  0  0  0  0  0  0  0  0  0
    2.5105    2.5974    2.6318 H   0  0  0  0  0  0  0  0  0  0  0  0
    3.0697    2.3864    4.2804 H   0  0  0  0  0  0  0  0  0  0  0  0
    1.3991    2.8839    3.9690 H   0  0  0  0  0  0  0  0  0  0  0  0
    1.0423    0.6449    2.7104 H   0  0  0  0  0  0  0  0  0  0  0  0
    3.1616    0.8988    5.7885 H   0  0  0  0  0  0  0  0  0  0  0  0
    2.3880   -0.4835    6.4080 H   0  0  0  0  0  0  0  0  0  0  0  0
    4.8218   -0.6228    6.3747 H   0  0  0  0  0  0  0  0  0  0  0  0
    5.1588    0.7652    4.3515 H   0  0  0  0  0  0  0  0  0  0  0  0
    6.2091   -0.5488    4.5473 H   0  0  0  0  0  0  0  0  0  0  0  0
    4.0426   -0.1000    2.5304 H   0  0  0  0  0  0  0  0  0  0  0  0
    6.9946   -0.7733    2.4337 H   0  0  0  0  0  0  0  0  0  0  0  0
    6.0849    0.5571    2.0114 H   0  0  0  0  0  0  0  0  0  0  0  0
    6.0224   -0.7179    0.9386 H   0  0  0  0  0  0  0  0  0  0  0  0
    3.0348   -4.9791    3.8961 H   0  0  0  0  0  0  0  0  0  0  0  0
    5.6221   -4.1050    5.7211 H   0  0  0  0  0  0  0  0  0  0  0  0
    6.0355   -2.6350    6.5991 H   0  0  0  0  0  0  0  0  0  0  0  0
    6.2155   -2.7257    4.8512 H   0  0  0  0  0  0  0  0  0  0  0  0
    3.4026   -4.0547    6.6175 H   0  0  0  0  0  0  0  0  0  0  0  0
    2.3130   -2.6850    6.5292 H   0  0  0  0  0  0  0  0  0  0  0  0
    3.7545   -2.5927    7.5206 H   0  0  0  0  0  0  0  0  0  0  0  0
    4.9023   -5.0669    0.6149 H   0  0  0  0  0  0  0  0  0  0  0  0
    3.6533   -5.9830    1.3997 H   0  0  0  0  0  0  0  0  0  0  0  0
    1.2975   -3.6391    1.5977 H   0  0  0  0  0  0  0  0  0  0  0  0
    2.7183   -5.0569   -0.8305 H   0  0  0  0  0  0  0  0  0  0  0  0
    1.5706   -2.4925   -1.1164 H   0  0  0  0  0  0  0  0  0  0  0  0
    4.8698   -3.9398   -1.3323 H   0  0  0  0  0  0  0  0  0  0  0  0
    3.4585   -4.4090   -3.0759 H   0  0  0  0  0  0  0  0  0  0  0  0
    5.6118   -1.4214   -2.5594 H   0  0  0  0  0  0  0  0  0  0  0  0
    4.8755   -0.0395   -1.7433 H   0  0  0  0  0  0  0  0  0  0  0  0
    3.9718   -0.8957   -2.9875 H   0  0  0  0  0  0  0  0  0  0  0  0
    3.9609   -0.4838    0.3327 H   0  0  0  0  0  0  0  0  0  0  0  0
    2.4046   -1.9108    1.5132 H   0  0  0  0  0  0  0  0  0  0  0  0
  1  2  1  0
  1 32  1  0
  1 33  1  0
  1 34  1  0
  2  3  2  3
  2 35  1  0
  3 16  1  0
  3  4  1  0
  4  5  1  0
  4 36  1  0
  4 37  1  0
  5 18  1  0
  5  6  1  0
  5 38  1  1
  6  7  1  0
  6 39  1  0
  6 40  1  0
  7  8  1  0
  7  9  1  0
  7 41  1  6
  8 42  1  0
  8 43  1  0
  8 44  1  0
  9 14  1  0
  9 31  1  0
  9 10  1  6
 10 11  2  0
 10 12  1  0
 12 13  2  0
 12 21  1  0
 13 14  1  0
 13 45  1  0
 14 15  1  1
 14 18  1  0
 15 16  1  0
 16 17  2  0
 18 19  1  0
 18 20  1  0
 19 46  1  0
 19 47  1  0
 19 48  1  0
 20 49  1  0
 20 50  1  0
 20 51  1  0
 21 22  1  0
 21 52  1  0
 21 53  1  0
 22 31  1  0
 22 23  1  1
 22 24  1  0
 23 54  1  0
 24 25  1  0
 24 26  1  0
 24 55  1  6
 25 56  1  0
 26 27  1  0
 26 28  1  0
 26 57  1  6
 27 58  1  0
 28 29  1  0
 28 30  2  0
 29 59  1  0
 29 60  1  0
 29 61  1  0
 30 31  1  0
 30 62  1  0
 31 63  1  1
M  END
>  <i_m_ct_stereo_status>  (302) 
1

>  <s_m_source_file>  (302) 
/var/tmp/pbs.5076255.sched01/tmpo609hgx5/90rinj4u0e.sdf

>  <i_m_source_file_index>  (302) 
37

>  <i_lp_mmshare_version>  (302) 
48012

>  <i_f3d_flags>  (302) 
0

>  <s_epik_input>  (302) 
W0NIM11bQ0BASF0xW0NIMl1bQ0BIXShDMihbQ0gzXSlbQ0gzXSlbQ0gyXVxDKD1bQ0hdXFtDSDNdKUMoPU8pT1tDQF0yKFtDQEBdMTM0KVtDSF09QyhDMz1PKVtDSDJdW0NAQF01KFtPSF0pW0NAQEhdNFtDSF09QyhbQ0gzXSlbQ0BIXShbT0hdKVtDQEBIXTVbT0hd

>  <s_epik_cmdline>  (302) 
J2VwaWtfcHl0aG9uJywgJy1waHQnLCAnMi4wJywgJy1waCcsICc3LjAnLCAnLXRuJywgJzgnLCAnLW1hJywgJzIwMCcsICctaW1hZScsICc8aW5maWxlLm1hZT4nLCAnLW9tYWUnLCAnPG91dGZpbGUubWFlPic=

>  <r_lp_tautomer_probability>  (302) 
1

>  <r_epik_Ionization_Penalty>  (302) 
1.05538e-06

>  <r_epik_Ionization_Penalty_Charging>  (302) 
0

>  <r_epik_Ionization_Penalty_Neutral>  (302) 
1.05538e-06

>  <r_epik_State_Penalty>  (302) 
-0

>  <r_epik_Charging_Adjusted_Penalty>  (302) 
0

>  <i_epik_Tot_Q>  (302) 
0

>  <i_epik_Tot_abs_Q>  (302) 
0

>  <s_epik_Chemistry_Notes>  (302) 
This compound has an ester and may undergo hydrolysis at high or low pH.

>  <s_lp_Force_Field>  (302) 
OPLS3e

>  <r_lp_Energy>  (302) 
118.341

>  <b_lp_Chiralities_Consistent>  (302) 
1

>  <s_lp_Variant>  (302) 
83:0-2

>  <s_i_glide_gridfile>  (302) 
pfpi4k_grid

>  <i_i_glide_lignum>  (302) 
37

>  <i_i_glide_rotatable_bonds>  (302) 
3

>  <r_i_docking_score>  (302) 
-2.42418

>  <r_i_glide_ligand_efficiency>  (302) 
-0.0781993

>  <r_i_glide_ligand_efficiency_sa>  (302) 
-0.245654

>  <r_i_glide_ligand_efficiency_ln>  (302) 
-0.546726

>  <r_i_glide_gscore>  (302) 
-2.42418

>  <r_i_glide_lipo>  (302) 
-0.251043

>  <r_i_glide_hbond>  (302) 
0

>  <r_i_glide_metal>  (302) 
-0

>  <r_i_glide_rewards>  (302) 
-0.540961

>  <r_i_glide_evdw>  (302) 
-1.91389

>  <r_i_glide_ecoul>  (302) 
-10.2379

>  <r_i_glide_erotb>  (302) 
0

>  <r_i_glide_esite>  (302) 
-0.000793451

>  <r_i_glide_emodel>  (302) 
-13.0515

>  <r_i_glide_energy>  (302) 
-12.1518

>  <r_i_glide_einternal>  (302) 
1.22805

>  <r_i_glide_intrahb_reward>  (302) 
-0

>  <i_i_glide_confnum>  (302) 
1

>  <i_i_glide_posenum>  (302) 
2

>  <r_i_glide_eff_state_penalty>  (302) 
0

>  <ligand_id>  (302) 
83

>  <original_smiles>  (302) 
CC=C1CC2CC(C)C34C(=O)C(=CC3(OC1=O)C2(C)C)CC1(O)C(O)C(O)C(C)=CC14

>  <smiles>  (302) 
[H]OC1([H])C(C([H])([H])[H])=C([H])C2([H])C(O[H])(C([H])([H])C3=C([H])C45OC(=O)C(=C([H])C([H])([H])[H])C([H])([H])C([H])(C([H])([H])C([H])(C([H])([H])[H])C24C3=O)C5(C([H])([H])[H])C([H])([H])[H])C1([H])O[H]

$$$$
83:1:2
     RDKit          3D

 63 67  0  0  1  0  0  0  0  0999 V2000
    1.7558    1.4679    4.4367 C   0  0  0  0  0  0  0  0  0  0  0  0
    1.3921    0.0263    4.1266 C   0  0  0  0  0  0  0  0  0  0  0  0
    1.8219   -1.0942    4.7520 C   0  0  0  0  0  0  0  0  0  0  0  0
    2.6745   -1.1157    6.0097 C   0  0  0  0  0  0  0  0  0  0  0  0
    4.0688   -1.7278    5.8136 C   0  0  2  0  0  0  0  0  0  0  0  0
    4.9105   -0.9567    4.7874 C   0  0  0  0  0  0  0  0  0  0  0  0
    4.5797   -1.1872    3.2894 C   0  0  1  0  0  0  0  0  0  0  0  0
    5.7620   -0.5649    2.5142 C   0  0  0  0  0  0  0  0  0  0  0  0
    4.1137   -2.6528    2.8742 C   0  0  1  0  0  0  0  0  0  0  0  0
    5.2341   -3.5975    2.4915 C   0  0  0  0  0  0  0  0  0  0  0  0
    6.3032   -3.2861    2.0180 O   0  0  0  0  0  0  0  0  0  0  0  0
    4.6930   -4.9293    2.5659 C   0  0  0  0  0  0  0  0  0  0  0  0
    3.8788   -4.9128    3.6269 C   0  0  0  0  0  0  0  0  0  0  0  0
    3.5134   -3.4948    4.0821 C   0  0  2  0  0  0  0  0  0  0  0  0
    2.0708   -3.4486    4.1000 O   0  0  0  0  0  0  0  0  0  0  0  0
    1.2386   -2.3768    4.3148 C   0  0  0  0  0  0  0  0  0  0  0  0
    0.0223   -2.5039    4.1620 O   0  0  0  0  0  0  0  0  0  0  0  0
    4.0828   -3.2458    5.5335 C   0  0  0  0  0  0  0  0  0  0  0  0
    5.5336   -3.7550    5.7343 C   0  0  0  0  0  0  0  0  0  0  0  0
    3.2906   -4.0126    6.6225 C   0  0  0  0  0  0  0  0  0  0  0  0
    4.1184   -5.2291    1.1987 C   0  0  0  0  0  0  0  0  0  0  0  0
    3.0157   -4.1567    0.8535 C   0  0  2  0  0  0  0  0  0  0  0  0
    1.8767   -4.8280    1.4227 O   0  0  0  0  0  0  0  0  0  0  0  0
    2.7899   -4.0471   -0.6829 C   0  0  1  0  0  0  0  0  0  0  0  0
    1.5258   -3.5598   -1.1128 O   0  0  0  0  0  0  0  0  0  0  0  0
    3.8868   -3.2850   -1.4218 C   0  0  1  0  0  0  0  0  0  0  0  0
    3.6247   -3.2555   -2.8188 O   0  0  0  0  0  0  0  0  0  0  0  0
    4.0014   -1.9048   -0.8134 C   0  0  0  0  0  0  0  0  0  0  0  0
    4.4644   -0.8007   -1.7438 C   0  0  0  0  0  0  0  0  0  0  0  0
    3.6683   -1.6734    0.4737 C   0  0  0  0  0  0  0  0  0  0  0  0
    3.2202   -2.7064    1.5259 C   0  0  2  0  0  0  0  0  0  0  0  0
    2.0236    1.9710    3.5079 H   0  0  0  0  0  0  0  0  0  0  0  0
    2.6001    1.5710    5.1162 H   0  0  0  0  0  0  0  0  0  0  0  0
    0.8961    1.9859    4.8624 H   0  0  0  0  0  0  0  0  0  0  0  0
    0.6966   -0.0793    3.3032 H   0  0  0  0  0  0  0  0  0  0  0  0
    2.7984   -0.1097    6.3973 H   0  0  0  0  0  0  0  0  0  0  0  0
    2.1223   -1.6143    6.8079 H   0  0  0  0  0  0  0  0  0  0  0  0
    4.5518   -1.5690    6.7759 H   0  0  0  0  0  0  0  0  0  0  0  0
    4.7921    0.1022    4.9902 H   0  0  0  0  0  0  0  0  0  0  0  0
    5.9659   -1.1278    5.0048 H   0  0  0  0  0  0  0  0  0  0  0  0
    3.7391   -0.5360    3.0499 H   0  0  0  0  0  0  0  0  0  0  0  0
    6.7220   -0.9220    2.8718 H   0  0  0  0  0  0  0  0  0  0  0  0
    5.7819    0.5056    2.6885 H   0  0  0  0  0  0  0  0  0  0  0  0
    5.7745   -0.7251    1.4367 H   0  0  0  0  0  0  0  0  0  0  0  0
    3.0936   -5.6453    3.6995 H   0  0  0  0  0  0  0  0  0  0  0  0
    5.6249   -4.8381    5.6319 H   0  0  0  0  0  0  0  0  0  0  0  0
    5.9130   -3.5039    6.7261 H   0  0  0  0  0  0  0  0  0  0  0  0
    6.2080   -3.3055    5.0149 H   0  0  0  0  0  0  0  0  0  0  0  0
    3.4018   -5.0931    6.5224 H   0  0  0  0  0  0  0  0  0  0  0  0
    2.2236   -3.8053    6.6176 H   0  0  0  0  0  0  0  0  0  0  0  0
    3.6483   -3.7510    7.6178 H   0  0  0  0  0  0  0  0  0  0  0  0
    4.9272   -5.1531    0.4839 H   0  0  0  0  0  0  0  0  0  0  0  0
    3.7556   -6.2573    1.1124 H   0  0  0  0  0  0  0  0  0  0  0  0
    2.0057   -4.8457    2.3685 H   0  0  0  0  0  0  0  0  0  0  0  0
    2.7930   -5.0619   -0.9946 H   0  0  0  0  0  0  0  0  0  0  0  0
    1.4974   -2.6057   -1.1151 H   0  0  0  0  0  0  0  0  0  0  0  0
    4.8447   -3.7818   -1.2977 H   0  0  0  0  0  0  0  0  0  0  0  0
    3.3117   -4.1203   -3.0640 H   0  0  0  0  0  0  0  0  0  0  0  0
    5.4192   -1.0612   -2.2004 H   0  0  0  0  0  0  0  0  0  0  0  0
    4.6003    0.1237   -1.1714 H   0  0  0  0  0  0  0  0  0  0  0  0
    3.7291   -0.6079   -2.5318 H   0  0  0  0  0  0  0  0  0  0  0  0
    3.6873   -0.6534    0.8192 H   0  0  0  0  0  0  0  0  0  0  0  0
    2.2226   -2.3403    1.7721 H   0  0  0  0  0  0  0  0  0  0  0  0
  1  2  1  0
  1 32  1  0
  1 33  1  0
  1 34  1  0
  2  3  2  3
  2 35  1  0
  3 16  1  0
  3  4  1  0
  4  5  1  0
  4 36  1  0
  4 37  1  0
  5 18  1  0
  5  6  1  0
  5 38  1  1
  6  7  1  0
  6 39  1  0
  6 40  1  0
  7  8  1  0
  7  9  1  0
  7 41  1  6
  8 42  1  0
  8 43  1  0
  8 44  1  0
  9 14  1  0
  9 31  1  0
  9 10  1  6
 10 11  2  0
 10 12  1  0
 12 13  2  0
 12 21  1  0
 13 14  1  0
 13 45  1  0
 14 15  1  1
 14 18  1  0
 15 16  1  0
 16 17  2  0
 18 19  1  0
 18 20  1  0
 19 46  1  0
 19 47  1  0
 19 48  1  0
 20 49  1  0
 20 50  1  0
 20 51  1  0
 21 22  1  0
 21 52  1  0
 21 53  1  0
 22 31  1  0
 22 23  1  1
 22 24  1  0
 23 54  1  0
 24 25  1  0
 24 26  1  0
 24 55  1  6
 25 56  1  0
 26 27  1  0
 26 28  1  0
 26 57  1  6
 27 58  1  0
 28 29  1  0
 28 30  2  0
 29 59  1  0
 29 60  1  0
 29 61  1  0
 30 31  1  0
 30 62  1  0
 31 63  1  1
M  END
>  <i_m_ct_stereo_status>  (303) 
1

>  <s_m_source_file>  (303) 
/var/tmp/pbs.5076255.sched01/tmpo609hgx5/90rinj4u0e.sdf

>  <i_m_source_file_index>  (303) 
37

>  <i_lp_mmshare_version>  (303) 
48012

>  <i_f3d_flags>  (303) 
0

>  <s_epik_input>  (303) 
W0NIM11bQ0BASF0xW0NIMl1bQ0BIXShDMihbQ0gzXSlbQ0gzXSlbQ0gyXVxDKD1bQ0hdXFtDSDNdKUMoPU8pT1tDQF0yKFtDQEBdMTM0KVtDSF09QyhDMz1PKVtDSDJdW0NAQF01KFtPSF0pW0NAQEhdNFtDSF09QyhbQ0gzXSlbQ0BIXShbT0hdKVtDQEBIXTVbT0hd

>  <s_epik_cmdline>  (303) 
J2VwaWtfcHl0aG9uJywgJy1waHQnLCAnMi4wJywgJy1waCcsICc3LjAnLCAnLXRuJywgJzgnLCAnLW1hJywgJzIwMCcsICctaW1hZScsICc8aW5maWxlLm1hZT4nLCAnLW9tYWUnLCAnPG91dGZpbGUubWFlPic=

>  <r_lp_tautomer_probability>  (303) 
1

>  <r_epik_Ionization_Penalty>  (303) 
1.05538e-06

>  <r_epik_Ionization_Penalty_Charging>  (303) 
0

>  <r_epik_Ionization_Penalty_Neutral>  (303) 
1.05538e-06

>  <r_epik_State_Penalty>  (303) 
-0

>  <r_epik_Charging_Adjusted_Penalty>  (303) 
0

>  <i_epik_Tot_Q>  (303) 
0

>  <i_epik_Tot_abs_Q>  (303) 
0

>  <s_epik_Chemistry_Notes>  (303) 
This compound has an ester and may undergo hydrolysis at high or low pH.

>  <s_lp_Force_Field>  (303) 
OPLS3e

>  <r_lp_Energy>  (303) 
118.341

>  <b_lp_Chiralities_Consistent>  (303) 
1

>  <s_lp_Variant>  (303) 
83:0-2

>  <s_i_glide_gridfile>  (303) 
pfpi4k_grid

>  <i_i_glide_lignum>  (303) 
37

>  <i_i_glide_rotatable_bonds>  (303) 
3

>  <r_i_docking_score>  (303) 
-2.0357

>  <r_i_glide_ligand_efficiency>  (303) 
-0.0656676

>  <r_i_glide_ligand_efficiency_sa>  (303) 
-0.206287

>  <r_i_glide_ligand_efficiency_ln>  (303) 
-0.459112

>  <r_i_glide_gscore>  (303) 
-2.0357

>  <r_i_glide_lipo>  (303) 
-0.194911

>  <r_i_glide_hbond>  (303) 
0

>  <r_i_glide_metal>  (303) 
-0

>  <r_i_glide_rewards>  (303) 
-0.546213

>  <r_i_glide_evdw>  (303) 
-8.01031

>  <r_i_glide_ecoul>  (303) 
-5.96038

>  <r_i_glide_erotb>  (303) 
0

>  <r_i_glide_esite>  (303) 
0

>  <r_i_glide_emodel>  (303) 
-15.363

>  <r_i_glide_energy>  (303) 
-13.9707

>  <r_i_glide_einternal>  (303) 
1.14802

>  <r_i_glide_intrahb_reward>  (303) 
-0

>  <i_i_glide_confnum>  (303) 
1

>  <i_i_glide_posenum>  (303) 
11

>  <r_i_glide_eff_state_penalty>  (303) 
0

>  <ligand_id>  (303) 
83

>  <original_smiles>  (303) 
CC=C1CC2CC(C)C34C(=O)C(=CC3(OC1=O)C2(C)C)CC1(O)C(O)C(O)C(C)=CC14

>  <smiles>  (303) 
[H]OC1([H])C(C([H])([H])[H])=C([H])C2([H])C(O[H])(C([H])([H])C3=C([H])C45OC(=O)C(=C([H])C([H])([H])[H])C([H])([H])C([H])(C([H])([H])C([H])(C([H])([H])[H])C24C3=O)C5(C([H])([H])[H])C([H])([H])[H])C1([H])O[H]

$$$$
84:0:0
     RDKit          3D

 61 64  0  0  1  0  0  0  0  0999 V2000
    4.2538   -1.9248    3.4661 C   0  0  0  0  0  0  0  0  0  0  0  0
    3.9396   -3.2510    2.7304 C   0  0  1  0  0  0  0  0  0  0  0  0
    2.8210   -3.9929    3.5023 C   0  0  0  0  0  0  0  0  0  0  0  0
    2.5829   -3.7175    4.6812 O   0  0  0  0  0  0  0  0  0  0  0  0
    2.1429   -4.9515    2.8585 N   0  0  0  0  0  0  0  0  0  0  0  0
    1.1342   -5.7874    3.4993 C   0  0  2  0  0  0  0  0  0  0  0  0
    1.6978   -7.0445    4.1938 C   0  0  0  0  0  0  0  0  0  0  0  0
    0.9423   -8.0747    3.3519 C   0  0  2  0  0  0  0  0  0  0  0  0
    1.1483   -7.6543    1.8934 C   0  0  0  0  0  0  0  0  0  0  0  0
    0.2930   -6.5159    2.4630 C   0  0  1  0  0  0  0  0  0  0  0  0
   -0.5389   -7.6424    3.1368 C   0  0  0  0  0  0  0  0  0  0  0  0
   -1.5185   -8.5125    2.3060 C   0  0  0  0  0  0  0  0  0  0  0  0
   -1.3519   -7.2974    4.3944 C   0  0  0  0  0  0  0  0  0  0  0  0
    3.5667   -2.8818    1.2879 C   0  0  0  0  0  0  0  0  0  0  0  0
    4.2673   -3.1614    0.1635 C   0  0  0  0  0  0  0  0  0  0  0  0
    5.6215   -3.8802    0.2227 C   0  0  1  0  0  0  0  0  0  0  0  0
    5.4347   -5.3630   -0.1754 C   0  0  0  0  0  0  0  0  0  0  0  0
    6.6222   -3.1653   -0.7205 C   0  0  0  0  0  0  0  0  0  0  0  0
    6.1949   -3.1118   -2.1934 C   0  0  0  0  0  0  0  0  0  0  0  0
    4.6835   -3.0743   -2.4034 C   0  0  0  0  0  0  0  0  0  0  0  0
    4.2410   -3.2971   -3.5311 O   0  0  0  0  0  0  0  0  0  0  0  0
    3.7582   -2.6777   -1.2205 C   0  0  0  0  0  0  0  0  0  0  0  0
    2.3588   -3.2877   -1.4669 C   0  0  0  0  0  0  0  0  0  0  0  0
    3.6927   -1.1394   -1.2364 C   0  0  0  0  0  0  0  0  0  0  0  0
    6.2104   -3.8114    1.6554 C   0  0  0  0  0  0  0  0  0  0  0  0
    5.1907   -4.1666    2.7464 C   0  0  0  0  0  0  0  0  0  0  0  0
    3.3660   -1.2910    3.5169 H   0  0  0  0  0  0  0  0  0  0  0  0
    5.0370   -1.3504    2.9705 H   0  0  0  0  0  0  0  0  0  0  0  0
    4.5812   -2.1009    4.4933 H   0  0  0  0  0  0  0  0  0  0  0  0
    2.3884   -5.1494    1.8976 H   0  0  0  0  0  0  0  0  0  0  0  0
    0.5129   -5.1904    4.1709 H   0  0  0  0  0  0  0  0  0  0  0  0
    2.7808   -7.1509    4.0964 H   0  0  0  0  0  0  0  0  0  0  0  0
    1.4462   -7.1172    5.2530 H   0  0  0  0  0  0  0  0  0  0  0  0
    1.1024   -9.1354    3.5645 H   0  0  0  0  0  0  0  0  0  0  0  0
    2.1819   -7.3959    1.6544 H   0  0  0  0  0  0  0  0  0  0  0  0
    0.7276   -8.2429    1.0907 H   0  0  0  0  0  0  0  0  0  0  0  0
   -0.2167   -5.9329    1.6990 H   0  0  0  0  0  0  0  0  0  0  0  0
   -2.4472   -7.9746    2.1146 H   0  0  0  0  0  0  0  0  0  0  0  0
   -1.7850   -9.4258    2.8442 H   0  0  0  0  0  0  0  0  0  0  0  0
   -1.1719   -8.8302    1.3263 H   0  0  0  0  0  0  0  0  0  0  0  0
   -2.2202   -6.6789    4.1607 H   0  0  0  0  0  0  0  0  0  0  0  0
   -0.7753   -6.7537    5.1454 H   0  0  0  0  0  0  0  0  0  0  0  0
   -1.7090   -8.2059    4.8838 H   0  0  0  0  0  0  0  0  0  0  0  0
    2.6395   -2.3357    1.2037 H   0  0  0  0  0  0  0  0  0  0  0  0
    6.3754   -5.9031   -0.0888 H   0  0  0  0  0  0  0  0  0  0  0  0
    5.0678   -5.4838   -1.1941 H   0  0  0  0  0  0  0  0  0  0  0  0
    4.7071   -5.8640    0.4610 H   0  0  0  0  0  0  0  0  0  0  0  0
    6.7569   -2.1387   -0.3793 H   0  0  0  0  0  0  0  0  0  0  0  0
    7.6070   -3.6310   -0.6581 H   0  0  0  0  0  0  0  0  0  0  0  0
    6.6473   -2.2610   -2.6971 H   0  0  0  0  0  0  0  0  0  0  0  0
    6.5656   -3.9905   -2.7168 H   0  0  0  0  0  0  0  0  0  0  0  0
    2.4145   -4.3678   -1.4492 H   0  0  0  0  0  0  0  0  0  0  0  0
    1.9251   -2.9906   -2.4235 H   0  0  0  0  0  0  0  0  0  0  0  0
    1.6433   -3.0548   -0.6874 H   0  0  0  0  0  0  0  0  0  0  0  0
    4.6687   -0.6988   -1.0325 H   0  0  0  0  0  0  0  0  0  0  0  0
    3.0118   -0.7562   -0.4808 H   0  0  0  0  0  0  0  0  0  0  0  0
    3.3561   -0.7624   -2.2031 H   0  0  0  0  0  0  0  0  0  0  0  0
    7.0748   -4.4719    1.7311 H   0  0  0  0  0  0  0  0  0  0  0  0
    6.5874   -2.8062    1.8484 H   0  0  0  0  0  0  0  0  0  0  0  0
    5.6739   -4.1185    3.7232 H   0  0  0  0  0  0  0  0  0  0  0  0
    4.9044   -5.2119    2.6228 H   0  0  0  0  0  0  0  0  0  0  0  0
  2  1  1  1
  1 27  1  0
  1 28  1  0
  1 29  1  0
  2 26  1  0
  2  3  1  0
  2 14  1  0
  3  4  2  0
  3  5  1  0
  5  6  1  0
  5 30  1  0
  6 10  1  0
  6  7  1  0
  6 31  1  1
  7  8  1  0
  7 32  1  0
  7 33  1  0
  8 11  1  0
  8  9  1  0
  8 34  1  6
  9 10  1  0
  9 35  1  0
  9 36  1  0
 10 11  1  0
 10 37  1  6
 11 12  1  0
 11 13  1  0
 12 38  1  0
 12 39  1  0
 12 40  1  0
 13 41  1  0
 13 42  1  0
 13 43  1  0
 14 15  2  0
 14 44  1  0
 15 22  1  0
 15 16  1  0
 16 17  1  6
 16 18  1  0
 16 25  1  0
 17 45  1  0
 17 46  1  0
 17 47  1  0
 18 19  1  0
 18 48  1  0
 18 49  1  0
 19 20  1  0
 19 50  1  0
 19 51  1  0
 20 21  2  0
 20 22  1  0
 22 23  1  0
 22 24  1  0
 23 52  1  0
 23 53  1  0
 23 54  1  0
 24 55  1  0
 24 56  1  0
 24 57  1  0
 25 26  1  0
 25 58  1  0
 25 59  1  0
 26 60  1  0
 26 61  1  0
M  END
>  <i_m_ct_stereo_status>  (304) 
1

>  <s_m_source_file>  (304) 
/var/tmp/pbs.5076255.sched01/tmpo609hgx5/90rinj4u0e.sdf

>  <i_m_source_file_index>  (304) 
38

>  <i_lp_mmshare_version>  (304) 
48012

>  <i_f3d_flags>  (304) 
0

>  <s_epik_input>  (304) 
W0NIMl0xW0NIMl1DKD1PKUMoW0NIM10pKFtDSDNdKUMoW0NAQF0xMltDSDNdKT1bQ0hdW0NAXShbQ0gzXSkoW0NIMl1bQ0gyXTIpQyg9TylbTkhdW0NASF0oW0NIMl1bQ0BIXTM0KVtDQEBIXShbQ0gyXTMpQzQoW0NIM10pW0NIM10=

>  <s_epik_cmdline>  (304) 
J2VwaWtfcHl0aG9uJywgJy1waHQnLCAnMi4wJywgJy1waCcsICc3LjAnLCAnLXRuJywgJzgnLCAnLW1hJywgJzIwMCcsICctaW1hZScsICc8aW5maWxlLm1hZT4nLCAnLW9tYWUnLCAnPG91dGZpbGUubWFlPic=

>  <r_lp_tautomer_probability>  (304) 
1

>  <r_epik_Ionization_Penalty>  (304) 
6.1924e-08

>  <r_epik_Ionization_Penalty_Charging>  (304) 
0

>  <r_epik_Ionization_Penalty_Neutral>  (304) 
6.1924e-08

>  <r_epik_State_Penalty>  (304) 
-0

>  <r_epik_Charging_Adjusted_Penalty>  (304) 
0

>  <i_epik_Tot_Q>  (304) 
0

>  <i_epik_Tot_abs_Q>  (304) 
0

>  <s_lp_Force_Field>  (304) 
OPLS3e

>  <r_lp_Energy>  (304) 
70.4096

>  <b_lp_Chiralities_Consistent>  (304) 
1

>  <s_lp_Variant>  (304) 
84:0-1

>  <s_i_glide_gridfile>  (304) 
pfpi4k_grid

>  <i_i_glide_lignum>  (304) 
38

>  <i_i_glide_rotatable_bonds>  (304) 
3

>  <r_i_docking_score>  (304) 
-2.69172

>  <r_i_glide_ligand_efficiency>  (304) 
-0.103528

>  <r_i_glide_ligand_efficiency_sa>  (304) 
-0.306701

>  <r_i_glide_ligand_efficiency_ln>  (304) 
-0.632142

>  <r_i_glide_gscore>  (304) 
-2.69172

>  <r_i_glide_lipo>  (304) 
-0.627692

>  <r_i_glide_hbond>  (304) 
0

>  <r_i_glide_metal>  (304) 
-0

>  <r_i_glide_rewards>  (304) 
-1.06416

>  <r_i_glide_evdw>  (304) 
-25.9946

>  <r_i_glide_ecoul>  (304) 
-0.948311

>  <r_i_glide_erotb>  (304) 
0.449321

>  <r_i_glide_esite>  (304) 
-0.00721677

>  <r_i_glide_emodel>  (304) 
-30.8179

>  <r_i_glide_energy>  (304) 
-26.9429

>  <r_i_glide_einternal>  (304) 
1.37898

>  <r_i_glide_intrahb_reward>  (304) 
-0

>  <i_i_glide_confnum>  (304) 
1

>  <i_i_glide_posenum>  (304) 
14

>  <r_i_glide_eff_state_penalty>  (304) 
0

>  <ligand_id>  (304) 
84

>  <original_smiles>  (304) 
CC1(C(=O)NC2CC3CC2C3(C)C)C=C2C(C)(CCC(=O)C2(C)C)CC1

>  <smiles>  (304) 
[H]C1=C2C(C([H])([H])[H])(C([H])([H])[H])C(=O)C([H])([H])C([H])([H])C2(C([H])([H])[H])C([H])([H])C([H])([H])C1(C(=O)N([H])C1([H])C([H])([H])C2([H])C([H])([H])C1([H])C2(C([H])([H])[H])C([H])([H])[H])C([H])([H])[H]

$$$$
84:0:1
     RDKit          3D

 61 64  0  0  1  0  0  0  0  0999 V2000
    5.6059   -8.2477    3.6404 C   0  0  0  0  0  0  0  0  0  0  0  0
    4.8148   -6.9485    3.3685 C   0  0  1  0  0  0  0  0  0  0  0  0
    5.6564   -6.0553    2.4336 C   0  0  0  0  0  0  0  0  0  0  0  0
    6.8253   -5.7963    2.7378 O   0  0  0  0  0  0  0  0  0  0  0  0
    5.0824   -5.5680    1.3267 N   0  0  0  0  0  0  0  0  0  0  0  0
    5.7270   -4.6360    0.4071 C   0  0  2  0  0  0  0  0  0  0  0  0
    5.4739   -3.1570    0.7665 C   0  0  0  0  0  0  0  0  0  0  0  0
    4.7667   -2.7839   -0.5176 C   0  0  2  0  0  0  0  0  0  0  0  0
    3.6973   -3.8591   -0.7937 C   0  0  0  0  0  0  0  0  0  0  0  0
    5.0369   -4.6165   -0.9248 C   0  0  1  0  0  0  0  0  0  0  0  0
    5.4693   -3.3878   -1.7808 C   0  0  0  0  0  0  0  0  0  0  0  0
    4.9492   -3.1706   -3.2097 C   0  0  0  0  0  0  0  0  0  0  0  0
    6.9864   -3.1172   -1.8961 C   0  0  0  0  0  0  0  0  0  0  0  0
    3.4514   -7.3663    2.8046 C   0  0  0  0  0  0  0  0  0  0  0  0
    2.2401   -7.1924    3.3884 C   0  0  0  0  0  0  0  0  0  0  0  0
    2.0990   -6.6116    4.7933 C   0  0  1  0  0  0  0  0  0  0  0  0
    1.6262   -5.1352    4.7120 C   0  0  0  0  0  0  0  0  0  0  0  0
    1.0958   -7.4636    5.6096 C   0  0  0  0  0  0  0  0  0  0  0  0
   -0.3133   -7.5481    4.9971 C   0  0  0  0  0  0  0  0  0  0  0  0
   -0.3240   -7.4363    3.4801 C   0  0  0  0  0  0  0  0  0  0  0  0
   -1.3799   -7.1215    2.9117 O   0  0  0  0  0  0  0  0  0  0  0  0
    0.9650   -7.7011    2.6667 C   0  0  0  0  0  0  0  0  0  0  0  0
    0.8393   -6.9629    1.3135 C   0  0  0  0  0  0  0  0  0  0  0  0
    1.0536   -9.2229    2.4541 C   0  0  0  0  0  0  0  0  0  0  0  0
    3.4554   -6.6624    5.5403 C   0  0  0  0  0  0  0  0  0  0  0  0
    4.6292   -6.1599    4.6904 C   0  0  0  0  0  0  0  0  0  0  0  0
    5.7948   -8.7867    2.7086 H   0  0  0  0  0  0  0  0  0  0  0  0
    5.0652   -8.9210    4.3054 H   0  0  0  0  0  0  0  0  0  0  0  0
    6.5760   -8.0404    4.0953 H   0  0  0  0  0  0  0  0  0  0  0  0
    4.1283   -5.8364    1.1219 H   0  0  0  0  0  0  0  0  0  0  0  0
    6.7890   -4.8689    0.3188 H   0  0  0  0  0  0  0  0  0  0  0  0
    4.8414   -3.0293    1.6453 H   0  0  0  0  0  0  0  0  0  0  0  0
    6.3855   -2.5851    0.9219 H   0  0  0  0  0  0  0  0  0  0  0  0
    4.4069   -1.7474   -0.6475 H   0  0  0  0  0  0  0  0  0  0  0  0
    3.1110   -4.1132    0.1045 H   0  0  0  0  0  0  0  0  0  0  0  0
    3.0429   -3.7574   -1.6345 H   0  0  0  0  0  0  0  0  0  0  0  0
    4.9758   -5.5547   -1.5006 H   0  0  0  0  0  0  0  0  0  0  0  0
    5.4634   -3.8276   -3.9110 H   0  0  0  0  0  0  0  0  0  0  0  0
    5.1145   -2.1431   -3.5281 H   0  0  0  0  0  0  0  0  0  0  0  0
    3.8885   -3.3587   -3.3796 H   0  0  0  0  0  0  0  0  0  0  0  0
    7.4730   -3.8430   -2.5532 H   0  0  0  0  0  0  0  0  0  0  0  0
    7.5157   -3.1587   -0.9417 H   0  0  0  0  0  0  0  0  0  0  0  0
    7.1938   -2.1435   -2.3276 H   0  0  0  0  0  0  0  0  0  0  0  0
    3.5083   -7.8304    1.8329 H   0  0  0  0  0  0  0  0  0  0  0  0
    1.5610   -4.6777    5.6997 H   0  0  0  0  0  0  0  0  0  0  0  0
    0.6475   -5.0263    4.2426 H   0  0  0  0  0  0  0  0  0  0  0  0
    2.3134   -4.5373    4.1105 H   0  0  0  0  0  0  0  0  0  0  0  0
    1.4781   -8.4835    5.6861 H   0  0  0  0  0  0  0  0  0  0  0  0
    1.0190   -7.0957    6.6339 H   0  0  0  0  0  0  0  0  0  0  0  0
   -0.8131   -8.4669    5.3044 H   0  0  0  0  0  0  0  0  0  0  0  0
   -0.9181   -6.7275    5.3857 H   0  0  0  0  0  0  0  0  0  0  0  0
    0.7661   -5.8872    1.4884 H   0  0  0  0  0  0  0  0  0  0  0  0
   -0.0408   -7.2744    0.7479 H   0  0  0  0  0  0  0  0  0  0  0  0
    1.7022   -7.1127    0.6703 H   0  0  0  0  0  0  0  0  0  0  0  0
    1.1891   -9.7368    3.4083 H   0  0  0  0  0  0  0  0  0  0  0  0
    1.8789   -9.5102    1.8029 H   0  0  0  0  0  0  0  0  0  0  0  0
    0.1315   -9.6159    2.0288 H   0  0  0  0  0  0  0  0  0  0  0  0
    3.3979   -6.0842    6.4623 H   0  0  0  0  0  0  0  0  0  0  0  0
    3.6676   -7.6890    5.8432 H   0  0  0  0  0  0  0  0  0  0  0  0
    5.5470   -6.2090    5.2773 H   0  0  0  0  0  0  0  0  0  0  0  0
    4.4821   -5.0993    4.4751 H   0  0  0  0  0  0  0  0  0  0  0  0
  2  1  1  1
  1 27  1  0
  1 28  1  0
  1 29  1  0
  2 26  1  0
  2  3  1  0
  2 14  1  0
  3  4  2  0
  3  5  1  0
  5  6  1  0
  5 30  1  0
  6 10  1  0
  6  7  1  0
  6 31  1  6
  7  8  1  0
  7 32  1  0
  7 33  1  0
  8 11  1  0
  8  9  1  0
  8 34  1  6
  9 10  1  0
  9 35  1  0
  9 36  1  0
 10 11  1  0
 10 37  1  6
 11 12  1  0
 11 13  1  0
 12 38  1  0
 12 39  1  0
 12 40  1  0
 13 41  1  0
 13 42  1  0
 13 43  1  0
 14 15  2  0
 14 44  1  0
 15 22  1  0
 15 16  1  0
 16 17  1  6
 16 18  1  0
 16 25  1  0
 17 45  1  0
 17 46  1  0
 17 47  1  0
 18 19  1  0
 18 48  1  0
 18 49  1  0
 19 20  1  0
 19 50  1  0
 19 51  1  0
 20 21  2  0
 20 22  1  0
 22 23  1  0
 22 24  1  0
 23 52  1  0
 23 53  1  0
 23 54  1  0
 24 55  1  0
 24 56  1  0
 24 57  1  0
 25 26  1  0
 25 58  1  0
 25 59  1  0
 26 60  1  0
 26 61  1  0
M  END
>  <i_m_ct_stereo_status>  (305) 
1

>  <s_m_source_file>  (305) 
/var/tmp/pbs.5076255.sched01/tmpo609hgx5/90rinj4u0e.sdf

>  <i_m_source_file_index>  (305) 
38

>  <i_lp_mmshare_version>  (305) 
48012

>  <i_f3d_flags>  (305) 
0

>  <s_epik_input>  (305) 
W0NIMl0xW0NIMl1DKD1PKUMoW0NIM10pKFtDSDNdKUMoW0NAQF0xMltDSDNdKT1bQ0hdW0NAXShbQ0gzXSkoW0NIMl1bQ0gyXTIpQyg9TylbTkhdW0NASF0oW0NIMl1bQ0BIXTM0KVtDQEBIXShbQ0gyXTMpQzQoW0NIM10pW0NIM10=

>  <s_epik_cmdline>  (305) 
J2VwaWtfcHl0aG9uJywgJy1waHQnLCAnMi4wJywgJy1waCcsICc3LjAnLCAnLXRuJywgJzgnLCAnLW1hJywgJzIwMCcsICctaW1hZScsICc8aW5maWxlLm1hZT4nLCAnLW9tYWUnLCAnPG91dGZpbGUubWFlPic=

>  <r_lp_tautomer_probability>  (305) 
1

>  <r_epik_Ionization_Penalty>  (305) 
6.1924e-08

>  <r_epik_Ionization_Penalty_Charging>  (305) 
0

>  <r_epik_Ionization_Penalty_Neutral>  (305) 
6.1924e-08

>  <r_epik_State_Penalty>  (305) 
-0

>  <r_epik_Charging_Adjusted_Penalty>  (305) 
0

>  <i_epik_Tot_Q>  (305) 
0

>  <i_epik_Tot_abs_Q>  (305) 
0

>  <s_lp_Force_Field>  (305) 
OPLS3e

>  <r_lp_Energy>  (305) 
70.4096

>  <b_lp_Chiralities_Consistent>  (305) 
1

>  <s_lp_Variant>  (305) 
84:0-1

>  <s_i_glide_gridfile>  (305) 
pfpi4k_grid

>  <i_i_glide_lignum>  (305) 
38

>  <i_i_glide_rotatable_bonds>  (305) 
3

>  <r_i_docking_score>  (305) 
-2.67141

>  <r_i_glide_ligand_efficiency>  (305) 
-0.102747

>  <r_i_glide_ligand_efficiency_sa>  (305) 
-0.304387

>  <r_i_glide_ligand_efficiency_ln>  (305) 
-0.627373

>  <r_i_glide_gscore>  (305) 
-2.67141

>  <r_i_glide_lipo>  (305) 
-0.52964

>  <r_i_glide_hbond>  (305) 
-0.16

>  <r_i_glide_metal>  (305) 
-0

>  <r_i_glide_rewards>  (305) 
-0.986382

>  <r_i_glide_evdw>  (305) 
-22.9049

>  <r_i_glide_ecoul>  (305) 
-1.65568

>  <r_i_glide_erotb>  (305) 
0.449321

>  <r_i_glide_esite>  (305) 
-0.0511144

>  <r_i_glide_emodel>  (305) 
-29.0338

>  <r_i_glide_energy>  (305) 
-24.5606

>  <r_i_glide_einternal>  (305) 
0.352042

>  <r_i_glide_intrahb_reward>  (305) 
-0

>  <i_i_glide_confnum>  (305) 
1

>  <i_i_glide_posenum>  (305) 
27

>  <r_i_glide_eff_state_penalty>  (305) 
0

>  <ligand_id>  (305) 
84

>  <original_smiles>  (305) 
CC1(C(=O)NC2CC3CC2C3(C)C)C=C2C(C)(CCC(=O)C2(C)C)CC1

>  <smiles>  (305) 
[H]C1=C2C(C([H])([H])[H])(C([H])([H])[H])C(=O)C([H])([H])C([H])([H])C2(C([H])([H])[H])C([H])([H])C([H])([H])C1(C(=O)N([H])C1([H])C([H])([H])C2([H])C([H])([H])C1([H])C2(C([H])([H])[H])C([H])([H])[H])C([H])([H])[H]

$$$$
84:0:2
     RDKit          3D

 61 64  0  0  1  0  0  0  0  0999 V2000
    5.3105   -8.3075    2.5936 C   0  0  0  0  0  0  0  0  0  0  0  0
    4.4367   -7.0436    2.4138 C   0  0  1  0  0  0  0  0  0  0  0  0
    5.0288   -6.2154    1.2491 C   0  0  0  0  0  0  0  0  0  0  0  0
    6.2319   -6.2841    0.9924 O   0  0  0  0  0  0  0  0  0  0  0  0
    4.2002   -5.4329    0.5411 N   0  0  0  0  0  0  0  0  0  0  0  0
    4.6020   -4.6792   -0.6435 C   0  0  2  0  0  0  0  0  0  0  0  0
    5.7618   -3.6800   -0.4349 C   0  0  0  0  0  0  0  0  0  0  0  0
    4.9952   -2.4179   -0.8209 C   0  0  2  0  0  0  0  0  0  0  0  0
    3.6717   -2.4663   -0.0477 C   0  0  0  0  0  0  0  0  0  0  0  0
    3.5444   -3.6449   -1.0283 C   0  0  1  0  0  0  0  0  0  0  0  0
    4.1165   -2.6597   -2.0824 C   0  0  0  0  0  0  0  0  0  0  0  0
    3.2368   -1.5321   -2.6753 C   0  0  0  0  0  0  0  0  0  0  0  0
    4.8117   -3.2592   -3.3146 C   0  0  0  0  0  0  0  0  0  0  0  0
    3.0028   -7.5258    2.1703 C   0  0  0  0  0  0  0  0  0  0  0  0
    1.9337   -7.3660    2.9852 C   0  0  0  0  0  0  0  0  0  0  0  0
    2.0650   -6.6863    4.3567 C   0  0  1  0  0  0  0  0  0  0  0  0
    1.5180   -5.2380    4.2817 C   0  0  0  0  0  0  0  0  0  0  0  0
    1.2922   -7.5185    5.4097 C   0  0  0  0  0  0  0  0  0  0  0  0
   -0.2083   -7.6816    5.1261 C   0  0  0  0  0  0  0  0  0  0  0  0
   -0.5556   -7.6841    3.6393 C   0  0  0  0  0  0  0  0  0  0  0  0
   -1.7199   -7.4562    3.2969 O   0  0  0  0  0  0  0  0  0  0  0  0
    0.5548   -7.9577    2.5926 C   0  0  0  0  0  0  0  0  0  0  0  0
    0.1162   -7.3216    1.2541 C   0  0  0  0  0  0  0  0  0  0  0  0
    0.6628   -9.4904    2.4582 C   0  0  0  0  0  0  0  0  0  0  0  0
    3.5515   -6.6476    4.7950 C   0  0  0  0  0  0  0  0  0  0  0  0
    4.4996   -6.1655    3.6881 C   0  0  0  0  0  0  0  0  0  0  0  0
    5.3229   -8.8978    1.6752 H   0  0  0  0  0  0  0  0  0  0  0  0
    4.9466   -8.9499    3.3945 H   0  0  0  0  0  0  0  0  0  0  0  0
    6.3466   -8.0542    2.8242 H   0  0  0  0  0  0  0  0  0  0  0  0
    3.2303   -5.3854    0.8199 H   0  0  0  0  0  0  0  0  0  0  0  0
    4.8119   -5.3832   -1.4492 H   0  0  0  0  0  0  0  0  0  0  0  0
    6.1288   -3.6333    0.5914 H   0  0  0  0  0  0  0  0  0  0  0  0
    6.6112   -3.8638   -1.0896 H   0  0  0  0  0  0  0  0  0  0  0  0
    5.5204   -1.4631   -0.7791 H   0  0  0  0  0  0  0  0  0  0  0  0
    3.7810   -2.7494    1.0024 H   0  0  0  0  0  0  0  0  0  0  0  0
    2.9912   -1.6251   -0.1231 H   0  0  0  0  0  0  0  0  0  0  0  0
    2.5244   -3.9860   -1.2092 H   0  0  0  0  0  0  0  0  0  0  0  0
    2.5487   -1.9263   -3.4231 H   0  0  0  0  0  0  0  0  0  0  0  0
    3.8454   -0.7697   -3.1580 H   0  0  0  0  0  0  0  0  0  0  0  0
    2.6162   -0.9899   -1.9688 H   0  0  0  0  0  0  0  0  0  0  0  0
    4.0950   -3.7281   -3.9959 H   0  0  0  0  0  0  0  0  0  0  0  0
    5.5511   -4.0225   -3.0651 H   0  0  0  0  0  0  0  0  0  0  0  0
    5.3501   -2.4877   -3.8665 H   0  0  0  0  0  0  0  0  0  0  0  0
    2.8786   -8.0521    1.2359 H   0  0  0  0  0  0  0  0  0  0  0  0
    1.6410   -4.7161    5.2315 H   0  0  0  0  0  0  0  0  0  0  0  0
    0.4601   -5.1955    4.0257 H   0  0  0  0  0  0  0  0  0  0  0  0
    2.0358   -4.6625    3.5144 H   0  0  0  0  0  0  0  0  0  0  0  0
    1.7264   -8.5178    5.4642 H   0  0  0  0  0  0  0  0  0  0  0  0
    1.4170   -7.0837    6.4033 H   0  0  0  0  0  0  0  0  0  0  0  0
   -0.5946   -8.5904    5.5889 H   0  0  0  0  0  0  0  0  0  0  0  0
   -0.7497   -6.8502    5.5796 H   0  0  0  0  0  0  0  0  0  0  0  0
    0.0291   -6.2418    1.3685 H   0  0  0  0  0  0  0  0  0  0  0  0
   -0.8466   -7.7027    0.9060 H   0  0  0  0  0  0  0  0  0  0  0  0
    0.8358   -7.5005    0.4583 H   0  0  0  0  0  0  0  0  0  0  0  0
    1.0005   -9.9424    3.3908 H   0  0  0  0  0  0  0  0  0  0  0  0
    1.3622   -9.7866    1.6770 H   0  0  0  0  0  0  0  0  0  0  0  0
   -0.3005   -9.9396    2.2104 H   0  0  0  0  0  0  0  0  0  0  0  0
    3.6600   -6.0119    5.6742 H   0  0  0  0  0  0  0  0  0  0  0  0
    3.8666   -7.6443    5.1100 H   0  0  0  0  0  0  0  0  0  0  0  0
    5.5203   -6.1452    4.0705 H   0  0  0  0  0  0  0  0  0  0  0  0
    4.2611   -5.1274    3.4500 H   0  0  0  0  0  0  0  0  0  0  0  0
  2  1  1  1
  1 27  1  0
  1 28  1  0
  1 29  1  0
  2 26  1  0
  2  3  1  0
  2 14  1  0
  3  4  2  0
  3  5  1  0
  5  6  1  0
  5 30  1  0
  6 10  1  0
  6  7  1  0
  6 31  1  6
  7  8  1  0
  7 32  1  0
  7 33  1  0
  8 11  1  0
  8  9  1  0
  8 34  1  6
  9 10  1  0
  9 35  1  0
  9 36  1  0
 10 11  1  0
 10 37  1  6
 11 12  1  0
 11 13  1  0
 12 38  1  0
 12 39  1  0
 12 40  1  0
 13 41  1  0
 13 42  1  0
 13 43  1  0
 14 15  2  0
 14 44  1  0
 15 22  1  0
 15 16  1  0
 16 17  1  6
 16 18  1  0
 16 25  1  0
 17 45  1  0
 17 46  1  0
 17 47  1  0
 18 19  1  0
 18 48  1  0
 18 49  1  0
 19 20  1  0
 19 50  1  0
 19 51  1  0
 20 21  2  0
 20 22  1  0
 22 23  1  0
 22 24  1  0
 23 52  1  0
 23 53  1  0
 23 54  1  0
 24 55  1  0
 24 56  1  0
 24 57  1  0
 25 26  1  0
 25 58  1  0
 25 59  1  0
 26 60  1  0
 26 61  1  0
M  END
>  <i_m_ct_stereo_status>  (306) 
1

>  <s_m_source_file>  (306) 
/var/tmp/pbs.5076255.sched01/tmpo609hgx5/90rinj4u0e.sdf

>  <i_m_source_file_index>  (306) 
38

>  <i_lp_mmshare_version>  (306) 
48012

>  <i_f3d_flags>  (306) 
0

>  <s_epik_input>  (306) 
W0NIMl0xW0NIMl1DKD1PKUMoW0NIM10pKFtDSDNdKUMoW0NAQF0xMltDSDNdKT1bQ0hdW0NAXShbQ0gzXSkoW0NIMl1bQ0gyXTIpQyg9TylbTkhdW0NASF0oW0NIMl1bQ0BIXTM0KVtDQEBIXShbQ0gyXTMpQzQoW0NIM10pW0NIM10=

>  <s_epik_cmdline>  (306) 
J2VwaWtfcHl0aG9uJywgJy1waHQnLCAnMi4wJywgJy1waCcsICc3LjAnLCAnLXRuJywgJzgnLCAnLW1hJywgJzIwMCcsICctaW1hZScsICc8aW5maWxlLm1hZT4nLCAnLW9tYWUnLCAnPG91dGZpbGUubWFlPic=

>  <r_lp_tautomer_probability>  (306) 
1

>  <r_epik_Ionization_Penalty>  (306) 
6.1924e-08

>  <r_epik_Ionization_Penalty_Charging>  (306) 
0

>  <r_epik_Ionization_Penalty_Neutral>  (306) 
6.1924e-08

>  <r_epik_State_Penalty>  (306) 
-0

>  <r_epik_Charging_Adjusted_Penalty>  (306) 
0

>  <i_epik_Tot_Q>  (306) 
0

>  <i_epik_Tot_abs_Q>  (306) 
0

>  <s_lp_Force_Field>  (306) 
OPLS3e

>  <r_lp_Energy>  (306) 
70.4096

>  <b_lp_Chiralities_Consistent>  (306) 
1

>  <s_lp_Variant>  (306) 
84:0-1

>  <s_i_glide_gridfile>  (306) 
pfpi4k_grid

>  <i_i_glide_lignum>  (306) 
38

>  <i_i_glide_rotatable_bonds>  (306) 
3

>  <r_i_docking_score>  (306) 
-2.5753

>  <r_i_glide_ligand_efficiency>  (306) 
-0.0990501

>  <r_i_glide_ligand_efficiency_sa>  (306) 
-0.293436

>  <r_i_glide_ligand_efficiency_ln>  (306) 
-0.604801

>  <r_i_glide_gscore>  (306) 
-2.5753

>  <r_i_glide_lipo>  (306) 
-0.300047

>  <r_i_glide_hbond>  (306) 
0

>  <r_i_glide_metal>  (306) 
-0

>  <r_i_glide_rewards>  (306) 
-1.08831

>  <r_i_glide_evdw>  (306) 
-26.9223

>  <r_i_glide_ecoul>  (306) 
-1.57241

>  <r_i_glide_erotb>  (306) 
0.449321

>  <r_i_glide_esite>  (306) 
-0.0542925

>  <r_i_glide_emodel>  (306) 
-32.3767

>  <r_i_glide_energy>  (306) 
-28.4947

>  <r_i_glide_einternal>  (306) 
1.12766

>  <r_i_glide_intrahb_reward>  (306) 
-0

>  <i_i_glide_confnum>  (306) 
6

>  <i_i_glide_posenum>  (306) 
13

>  <r_i_glide_eff_state_penalty>  (306) 
0

>  <ligand_id>  (306) 
84

>  <original_smiles>  (306) 
CC1(C(=O)NC2CC3CC2C3(C)C)C=C2C(C)(CCC(=O)C2(C)C)CC1

>  <smiles>  (306) 
[H]C1=C2C(C([H])([H])[H])(C([H])([H])[H])C(=O)C([H])([H])C([H])([H])C2(C([H])([H])[H])C([H])([H])C([H])([H])C1(C(=O)N([H])C1([H])C([H])([H])C2([H])C([H])([H])C1([H])C2(C([H])([H])[H])C([H])([H])[H])C([H])([H])[H]

$$$$
85:0:0
     RDKit          3D

 59 65  0  0  1  0  0  0  0  0999 V2000
    5.8124   -3.1785    6.1362 C   0  0  0  0  0  0  0  0  0  0  0  0
    4.8218   -3.7868    5.3288 O   0  0  0  0  0  0  0  0  0  0  0  0
    5.3291   -4.2637    4.0805 C   0  0  0  0  0  0  0  0  0  0  0  0
    4.2180   -4.9523    3.2061 C   0  0  2  0  0  0  0  0  0  0  0  0
    3.7481   -6.2490    4.0731 C   0  0  2  0  0  0  0  0  0  0  0  0
    4.7454   -7.4103    4.0279 C   0  0  0  0  0  0  0  0  0  0  0  0
    4.8244   -8.1892    2.9578 C   0  0  0  0  0  0  0  0  0  0  0  0
    3.9682   -7.8740    1.7791 C   0  0  2  0  0  0  0  0  0  0  0  0
    2.5846   -8.4650    1.8751 C   0  0  0  0  0  0  0  0  0  0  0  0
    1.6929   -7.5286    2.7218 C   0  0  0  0  0  0  0  0  0  0  0  0
    2.3017   -6.9042    4.0349 C   0  0  0  0  0  0  0  0  0  0  0  0
    4.6307   -7.6243    0.5237 O   0  0  0  0  0  0  0  0  0  0  0  0
    4.0214   -6.4812    1.1554 C   0  0  2  0  0  0  0  0  0  0  0  0
    4.8730   -5.3291    1.7557 C   0  0  2  0  0  0  0  0  0  0  0  0
    6.3823   -5.7982    1.8482 C   0  0  0  0  0  0  0  0  0  0  0  0
    4.8816   -4.1047    0.7260 C   0  0  1  0  0  0  0  0  0  0  0  0
    5.9586   -3.2219    1.0288 O   0  0  0  0  0  0  0  0  0  0  0  0
    5.0839   -4.4242   -0.7585 C   0  0  0  0  0  0  0  0  0  0  0  0
    4.5790   -3.1842   -1.4505 C   0  0  2  0  0  0  0  0  0  0  0  0
    4.2927   -3.0741   -2.8402 O   0  0  0  0  0  0  0  0  0  0  0  0
    3.2020   -2.9551   -1.8863 C   0  0  2  0  0  0  0  0  0  0  0  0
    3.6904   -2.3729   -0.5655 C   0  0  2  0  0  0  0  0  0  0  0  0
    4.0203   -0.8942   -0.3791 C   0  0  0  0  0  0  0  0  0  0  0  0
    3.5932   -3.2283    0.6889 C   0  0  2  0  0  0  0  0  0  0  0  0
    3.2163   -2.6603    2.0885 C   0  0  0  0  0  0  0  0  0  0  0  0
    4.1819   -1.7886    2.6175 O   0  0  0  0  0  0  0  0  0  0  0  0
    2.0144   -1.9526    1.9694 O   0  0  0  0  0  0  0  0  0  0  0  0
    3.0271   -3.8877    3.0802 C   0  0  1  0  0  0  0  0  0  0  0  0
    1.8283   -4.5010    2.6839 O   0  0  0  0  0  0  0  0  0  0  0  0
    5.3684   -2.8952    7.0891 H   0  0  0  0  0  0  0  0  0  0  0  0
    6.2045   -2.2748    5.6651 H   0  0  0  0  0  0  0  0  0  0  0  0
    6.6376   -3.8639    6.3285 H   0  0  0  0  0  0  0  0  0  0  0  0
    5.7875   -3.4305    3.5526 H   0  0  0  0  0  0  0  0  0  0  0  0
    6.1307   -4.9726    4.2988 H   0  0  0  0  0  0  0  0  0  0  0  0
    3.7977   -5.9357    5.1194 H   0  0  0  0  0  0  0  0  0  0  0  0
    5.3731   -7.5710    4.9008 H   0  0  0  0  0  0  0  0  0  0  0  0
    5.5065   -9.0303    2.8892 H   0  0  0  0  0  0  0  0  0  0  0  0
    2.1656   -8.5874    0.8772 H   0  0  0  0  0  0  0  0  0  0  0  0
    2.6337   -9.4537    2.3221 H   0  0  0  0  0  0  0  0  0  0  0  0
    1.3258   -6.7521    2.0591 H   0  0  0  0  0  0  0  0  0  0  0  0
    0.7895   -8.0783    3.0014 H   0  0  0  0  0  0  0  0  0  0  0  0
    2.3232   -7.7198    4.7582 H   0  0  0  0  0  0  0  0  0  0  0  0
    1.5810   -6.2159    4.4727 H   0  0  0  0  0  0  0  0  0  0  0  0
    3.0913   -6.1515    0.6763 H   0  0  0  0  0  0  0  0  0  0  0  0
    6.7420   -6.1701    0.8848 H   0  0  0  0  0  0  0  0  0  0  0  0
    6.6144   -6.5798    2.5693 H   0  0  0  0  0  0  0  0  0  0  0  0
    7.0745   -5.0099    2.1418 H   0  0  0  0  0  0  0  0  0  0  0  0
    5.7724   -2.8008    1.8607 H   0  0  0  0  0  0  0  0  0  0  0  0
    6.1265   -4.5272   -1.0438 H   0  0  0  0  0  0  0  0  0  0  0  0
    4.4381   -5.2273   -1.1097 H   0  0  0  0  0  0  0  0  0  0  0  0
    2.3703   -3.7083   -1.8529 H   0  0  0  0  0  0  0  0  0  0  0  0
    3.2464   -0.3452    0.2038 H   0  0  0  0  0  0  0  0  0  0  0  0
    4.1280   -0.4083   -1.3670 H   0  0  0  0  0  0  0  0  0  0  0  0
    4.9645   -0.7966    0.1819 H   0  0  0  0  0  0  0  0  0  0  0  0
    2.7894   -3.9383    0.4521 H   0  0  0  0  0  0  0  0  0  0  0  0
    3.8857   -1.5059    3.4695 H   0  0  0  0  0  0  0  0  0  0  0  0
    2.0122   -1.4926    1.1434 H   0  0  0  0  0  0  0  0  0  0  0  0
    2.7925   -3.4941    4.0601 H   0  0  0  0  0  0  0  0  0  0  0  0
    1.6212   -5.1719    3.3122 H   0  0  0  0  0  0  0  0  0  0  0  0
  1  2  1  0
  1 30  1  0
  1 31  1  0
  1 32  1  0
  2  3  1  0
  4  3  1  1
  3 33  1  0
  3 34  1  0
  4 14  1  0
  4 28  1  0
  4  5  1  0
  5 11  1  0
  5  6  1  0
  5 35  1  1
  6  7  2  0
  6 36  1  0
  7  8  1  0
  7 37  1  0
  8 13  1  0
  8  9  1  0
  8 12  1  6
  9 10  1  0
  9 38  1  0
  9 39  1  0
 10 11  1  0
 10 40  1  0
 10 41  1  0
 11 42  1  0
 11 43  1  0
 12 13  1  0
 13 14  1  0
 13 44  1  6
 14 15  1  1
 14 16  1  0
 15 45  1  0
 15 46  1  0
 15 47  1  0
 16 24  1  0
 16 17  1  1
 16 18  1  0
 17 48  1  0
 18 19  1  0
 18 49  1  0
 18 50  1  0
 19 21  1  0
 19 22  1  0
 19 20  1  6
 20 21  1  0
 21 22  1  0
 21 51  1  6
 22 23  1  1
 22 24  1  0
 23 52  1  0
 23 53  1  0
 23 54  1  0
 24 25  1  0
 24 55  1  6
 25 26  1  0
 25 27  1  0
 25 28  1  0
 26 56  1  0
 27 57  1  0
 28 29  1  0
 28 58  1  1
 29 59  1  0
M  END
>  <i_m_ct_stereo_status>  (307) 
1

>  <s_m_source_file>  (307) 
/var/tmp/pbs.5076255.sched01/tmpo609hgx5/90rinj4u0e.sdf

>  <i_m_source_file_index>  (307) 
39

>  <i_lp_mmshare_version>  (307) 
48012

>  <i_f3d_flags>  (307) 
2

>  <s_epik_input>  (307) 
W0NIMl0xW0NIMl1bQ0gyXVtDSF0oW0NIXT1bQ0hdMilbQ0BdKFtDQF0zKFtDQEBIXShbQ0BdMTI0KU80KVtDSDNdKShbQ0gyXU9bQ0gzXSlbQ0BIXShbT0hdKUMoW09IXSkoW09IXSlbQ0BASF01W0NAXTMoW09IXSlbQ0gyXUM2N1tDQEhdKE82KVtDQF01N1tDSDNd

>  <s_epik_cmdline>  (307) 
J2VwaWtfcHl0aG9uJywgJy1waHQnLCAnMi4wJywgJy1waCcsICc3LjAnLCAnLXRuJywgJzgnLCAnLW1hJywgJzIwMCcsICctaW1hZScsICc8aW5maWxlLm1hZT4nLCAnLW9tYWUnLCAnPG91dGZpbGUubWFlPic=

>  <r_lp_tautomer_probability>  (307) 
1

>  <r_epik_Ionization_Penalty>  (307) 
3.19925e-07

>  <r_epik_Ionization_Penalty_Charging>  (307) 
0

>  <r_epik_Ionization_Penalty_Neutral>  (307) 
3.19925e-07

>  <r_epik_State_Penalty>  (307) 
-0

>  <r_epik_Charging_Adjusted_Penalty>  (307) 
0

>  <i_epik_Tot_Q>  (307) 
0

>  <i_epik_Tot_abs_Q>  (307) 
0

>  <s_lp_Force_Field>  (307) 
OPLS3e

>  <r_lp_Energy>  (307) 
99.7223

>  <b_lp_Chiralities_Consistent>  (307) 
0

>  <s_lp_Variant>  (307) 
85:0-1

>  <s_i_glide_gridfile>  (307) 
pfpi4k_grid

>  <i_i_glide_lignum>  (307) 
39

>  <i_i_glide_rotatable_bonds>  (307) 
6

>  <r_i_docking_score>  (307) 
-2.42391

>  <r_i_glide_ligand_efficiency>  (307) 
-0.083583

>  <r_i_glide_ligand_efficiency_sa>  (307) 
-0.256793

>  <r_i_glide_ligand_efficiency_ln>  (307) 
-0.555013

>  <r_i_glide_gscore>  (307) 
-2.42391

>  <r_i_glide_lipo>  (307) 
-0.27058

>  <r_i_glide_hbond>  (307) 
0

>  <r_i_glide_metal>  (307) 
-0

>  <r_i_glide_rewards>  (307) 
-1.13771

>  <r_i_glide_evdw>  (307) 
-19.3474

>  <r_i_glide_ecoul>  (307) 
-1.09739

>  <r_i_glide_erotb>  (307) 
0.11901

>  <r_i_glide_esite>  (307) 
-0.00265217

>  <r_i_glide_emodel>  (307) 
-27.742

>  <r_i_glide_energy>  (307) 
-20.4447

>  <r_i_glide_einternal>  (307) 
0.496562

>  <r_i_glide_intrahb_reward>  (307) 
-0.5

>  <i_i_glide_confnum>  (307) 
2

>  <i_i_glide_posenum>  (307) 
1

>  <r_i_glide_eff_state_penalty>  (307) 
0

>  <ligand_id>  (307) 
85

>  <original_smiles>  (307) 
COCC12C3C=CC4(CCC3)OC4C1(C)C1(O)CC34OC3C4(C)C1C(O)(O)C2O

>  <smiles>  (307) 
[H]OC1([H])C(O[H])(O[H])C2([H])C(O[H])(C([H])([H])C34OC3([H])C24C([H])([H])[H])C2(C([H])([H])[H])C3([H])OC34C([H])=C([H])C([H])(C([H])([H])C([H])([H])C4([H])[H])C12C([H])([H])OC([H])([H])[H]

$$$$
85:0:1
     RDKit          3D

 59 65  0  0  1  0  0  0  0  0999 V2000
    5.7896   -3.3669    6.1353 C   0  0  0  0  0  0  0  0  0  0  0  0
    4.7968   -3.9820    5.3357 O   0  0  0  0  0  0  0  0  0  0  0  0
    5.2928   -4.4278    4.0725 C   0  0  0  0  0  0  0  0  0  0  0  0
    4.1849   -5.1343    3.2062 C   0  0  2  0  0  0  0  0  0  0  0  0
    3.7720   -6.4573    4.0699 C   0  0  2  0  0  0  0  0  0  0  0  0
    4.8008   -7.5885    3.9951 C   0  0  0  0  0  0  0  0  0  0  0  0
    4.8848   -8.3530    2.9115 C   0  0  0  0  0  0  0  0  0  0  0  0
    3.9998   -8.0546    1.7505 C   0  0  2  0  0  0  0  0  0  0  0  0
    2.6403   -8.6815    1.8798 C   0  0  0  0  0  0  0  0  0  0  0  0
    1.7307   -7.7810    2.7416 C   0  0  0  0  0  0  0  0  0  0  0  0
    2.3434   -7.1544    4.0499 C   0  0  0  0  0  0  0  0  0  0  0  0
    4.6287   -7.7666    0.4829 O   0  0  0  0  0  0  0  0  0  0  0  0
    4.0016   -6.6501    1.1438 C   0  0  2  0  0  0  0  0  0  0  0  0
    4.8269   -5.4810    1.7440 C   0  0  2  0  0  0  0  0  0  0  0  0
    6.3519   -5.9045    1.8045 C   0  0  0  0  0  0  0  0  0  0  0  0
    4.7817   -4.2459    0.7314 C   0  0  1  0  0  0  0  0  0  0  0  0
    5.8384   -3.3343    1.0227 O   0  0  0  0  0  0  0  0  0  0  0  0
    4.9684   -4.5456   -0.7641 C   0  0  0  0  0  0  0  0  0  0  0  0
    4.4164   -3.3108   -1.4325 C   0  0  2  0  0  0  0  0  0  0  0  0
    4.0991   -3.1974   -2.8138 O   0  0  0  0  0  0  0  0  0  0  0  0
    3.0257   -3.1198   -1.8454 C   0  0  2  0  0  0  0  0  0  0  0  0
    3.5177   -2.5427   -0.5262 C   0  0  2  0  0  0  0  0  0  0  0  0
    3.8141   -1.0510   -0.3315 C   0  0  0  0  0  0  0  0  0  0  0  0
    3.4656   -3.4088    0.7213 C   0  0  2  0  0  0  0  0  0  0  0  0
    3.0983   -2.8624    2.1292 C   0  0  0  0  0  0  0  0  0  0  0  0
    4.0505   -1.9716    2.6415 O   0  0  0  0  0  0  0  0  0  0  0  0
    1.8820   -2.1829    2.0568 O   0  0  0  0  0  0  0  0  0  0  0  0
    2.9653   -4.0996    3.1168 C   0  0  1  0  0  0  0  0  0  0  0  0
    1.7762   -4.7399    2.7389 O   0  0  0  0  0  0  0  0  0  0  0  0
    5.3496   -3.0862    7.0911 H   0  0  0  0  0  0  0  0  0  0  0  0
    6.1731   -2.4607    5.6612 H   0  0  0  0  0  0  0  0  0  0  0  0
    6.6196   -4.0473    6.3224 H   0  0  0  0  0  0  0  0  0  0  0  0
    5.7174   -3.5761    3.5472 H   0  0  0  0  0  0  0  0  0  0  0  0
    6.1168   -5.1167    4.2671 H   0  0  0  0  0  0  0  0  0  0  0  0
    3.8305   -6.1539    5.1192 H   0  0  0  0  0  0  0  0  0  0  0  0
    5.4493   -7.7401    4.8553 H   0  0  0  0  0  0  0  0  0  0  0  0
    5.5861   -9.1749    2.8266 H   0  0  0  0  0  0  0  0  0  0  0  0
    2.1987   -8.8066    0.8834 H   0  0  0  0  0  0  0  0  0  0  0  0
    2.7186   -9.6768    2.3018 H   0  0  0  0  0  0  0  0  0  0  0  0
    1.3291   -7.0093    2.0947 H   0  0  0  0  0  0  0  0  0  0  0  0
    0.8484   -8.3618    3.0307 H   0  0  0  0  0  0  0  0  0  0  0  0
    2.4031   -7.9763    4.7629 H   0  0  0  0  0  0  0  0  0  0  0  0
    1.6117   -6.4915    4.5081 H   0  0  0  0  0  0  0  0  0  0  0  0
    3.0531   -6.3440    0.6896 H   0  0  0  0  0  0  0  0  0  0  0  0
    6.7045   -6.2558    0.8333 H   0  0  0  0  0  0  0  0  0  0  0  0
    6.6186   -6.6877    2.5130 H   0  0  0  0  0  0  0  0  0  0  0  0
    7.0246   -5.0992    2.0950 H   0  0  0  0  0  0  0  0  0  0  0  0
    5.6935   -2.9845    1.8923 H   0  0  0  0  0  0  0  0  0  0  0  0
    6.0069   -4.6163   -1.0685 H   0  0  0  0  0  0  0  0  0  0  0  0
    4.3413   -5.3627   -1.0975 H   0  0  0  0  0  0  0  0  0  0  0  0
    2.2182   -3.8953   -1.8050 H   0  0  0  0  0  0  0  0  0  0  0  0
    3.0345   -0.5335    0.2688 H   0  0  0  0  0  0  0  0  0  0  0  0
    3.8766   -0.5724   -1.3155 H   0  0  0  0  0  0  0  0  0  0  0  0
    4.7706   -0.9308    0.2056 H   0  0  0  0  0  0  0  0  0  0  0  0
    2.6790   -4.1396    0.4946 H   0  0  0  0  0  0  0  0  0  0  0  0
    4.1640   -1.2804    2.0128 H   0  0  0  0  0  0  0  0  0  0  0  0
    1.8337   -1.7102    1.2420 H   0  0  0  0  0  0  0  0  0  0  0  0
    2.7411   -3.7202    4.1006 H   0  0  0  0  0  0  0  0  0  0  0  0
    1.5979   -5.4304    3.3554 H   0  0  0  0  0  0  0  0  0  0  0  0
  1  2  1  0
  1 30  1  0
  1 31  1  0
  1 32  1  0
  2  3  1  0
  4  3  1  1
  3 33  1  0
  3 34  1  0
  4 14  1  0
  4 28  1  0
  4  5  1  0
  5 11  1  0
  5  6  1  0
  5 35  1  1
  6  7  2  0
  6 36  1  0
  7  8  1  0
  7 37  1  0
  8 13  1  0
  8  9  1  0
  8 12  1  6
  9 10  1  0
  9 38  1  0
  9 39  1  0
 10 11  1  0
 10 40  1  0
 10 41  1  0
 11 42  1  0
 11 43  1  0
 12 13  1  0
 13 14  1  0
 13 44  1  6
 14 15  1  1
 14 16  1  0
 15 45  1  0
 15 46  1  0
 15 47  1  0
 16 24  1  0
 16 17  1  1
 16 18  1  0
 17 48  1  0
 18 19  1  0
 18 49  1  0
 18 50  1  0
 19 21  1  0
 19 22  1  0
 19 20  1  6
 20 21  1  0
 21 22  1  0
 21 51  1  6
 22 23  1  1
 22 24  1  0
 23 52  1  0
 23 53  1  0
 23 54  1  0
 24 25  1  0
 24 55  1  6
 25 26  1  0
 25 27  1  0
 25 28  1  0
 26 56  1  0
 27 57  1  0
 28 29  1  0
 28 58  1  1
 29 59  1  0
M  END
>  <i_m_ct_stereo_status>  (308) 
1

>  <s_m_source_file>  (308) 
/var/tmp/pbs.5076255.sched01/tmpo609hgx5/90rinj4u0e.sdf

>  <i_m_source_file_index>  (308) 
39

>  <i_lp_mmshare_version>  (308) 
48012

>  <i_f3d_flags>  (308) 
2

>  <s_epik_input>  (308) 
W0NIMl0xW0NIMl1bQ0gyXVtDSF0oW0NIXT1bQ0hdMilbQ0BdKFtDQF0zKFtDQEBIXShbQ0BdMTI0KU80KVtDSDNdKShbQ0gyXU9bQ0gzXSlbQ0BIXShbT0hdKUMoW09IXSkoW09IXSlbQ0BASF01W0NAXTMoW09IXSlbQ0gyXUM2N1tDQEhdKE82KVtDQF01N1tDSDNd

>  <s_epik_cmdline>  (308) 
J2VwaWtfcHl0aG9uJywgJy1waHQnLCAnMi4wJywgJy1waCcsICc3LjAnLCAnLXRuJywgJzgnLCAnLW1hJywgJzIwMCcsICctaW1hZScsICc8aW5maWxlLm1hZT4nLCAnLW9tYWUnLCAnPG91dGZpbGUubWFlPic=

>  <r_lp_tautomer_probability>  (308) 
1

>  <r_epik_Ionization_Penalty>  (308) 
3.19925e-07

>  <r_epik_Ionization_Penalty_Charging>  (308) 
0

>  <r_epik_Ionization_Penalty_Neutral>  (308) 
3.19925e-07

>  <r_epik_State_Penalty>  (308) 
-0

>  <r_epik_Charging_Adjusted_Penalty>  (308) 
0

>  <i_epik_Tot_Q>  (308) 
0

>  <i_epik_Tot_abs_Q>  (308) 
0

>  <s_lp_Force_Field>  (308) 
OPLS3e

>  <r_lp_Energy>  (308) 
99.7223

>  <b_lp_Chiralities_Consistent>  (308) 
0

>  <s_lp_Variant>  (308) 
85:0-1

>  <s_i_glide_gridfile>  (308) 
pfpi4k_grid

>  <i_i_glide_lignum>  (308) 
39

>  <i_i_glide_rotatable_bonds>  (308) 
6

>  <r_i_docking_score>  (308) 
-2.42038

>  <r_i_glide_ligand_efficiency>  (308) 
-0.0834613

>  <r_i_glide_ligand_efficiency_sa>  (308) 
-0.25642

>  <r_i_glide_ligand_efficiency_ln>  (308) 
-0.554205

>  <r_i_glide_gscore>  (308) 
-2.42038

>  <r_i_glide_lipo>  (308) 
-0.252193

>  <r_i_glide_hbond>  (308) 
0

>  <r_i_glide_metal>  (308) 
-0

>  <r_i_glide_rewards>  (308) 
-1.13771

>  <r_i_glide_evdw>  (308) 
-19.2784

>  <r_i_glide_ecoul>  (308) 
-1.22372

>  <r_i_glide_erotb>  (308) 
0.11901

>  <r_i_glide_esite>  (308) 
-0.00200793

>  <r_i_glide_emodel>  (308) 
-28.5083

>  <r_i_glide_energy>  (308) 
-20.5021

>  <r_i_glide_einternal>  (308) 
0.503187

>  <r_i_glide_intrahb_reward>  (308) 
-0.5

>  <i_i_glide_confnum>  (308) 
2

>  <i_i_glide_posenum>  (308) 
36

>  <r_i_glide_eff_state_penalty>  (308) 
0

>  <ligand_id>  (308) 
85

>  <original_smiles>  (308) 
COCC12C3C=CC4(CCC3)OC4C1(C)C1(O)CC34OC3C4(C)C1C(O)(O)C2O

>  <smiles>  (308) 
[H]OC1([H])C(O[H])(O[H])C2([H])C(O[H])(C([H])([H])C34OC3([H])C24C([H])([H])[H])C2(C([H])([H])[H])C3([H])OC34C([H])=C([H])C([H])(C([H])([H])C([H])([H])C4([H])[H])C12C([H])([H])OC([H])([H])[H]

$$$$
85:0:2
     RDKit          3D

 59 65  0  0  1  0  0  0  0  0999 V2000
    8.6959   -2.0529    0.4993 C   0  0  0  0  0  0  0  0  0  0  0  0
    7.3439   -2.4529    0.4980 O   0  0  0  0  0  0  0  0  0  0  0  0
    6.7808   -2.9000    1.7109 C   0  0  0  0  0  0  0  0  0  0  0  0
    5.2540   -3.2315    1.7170 C   0  0  2  0  0  0  0  0  0  0  0  0
    4.9807   -4.0189    3.1262 C   0  0  2  0  0  0  0  0  0  0  0  0
    5.4488   -5.4616    3.1235 C   0  0  0  0  0  0  0  0  0  0  0  0
    4.7385   -6.4025    2.4696 C   0  0  0  0  0  0  0  0  0  0  0  0
    3.5370   -5.9747    1.7190 C   0  0  2  0  0  0  0  0  0  0  0  0
    2.2910   -5.8951    2.5651 C   0  0  0  0  0  0  0  0  0  0  0  0
    2.2609   -4.5360    3.2953 C   0  0  0  0  0  0  0  0  0  0  0  0
    3.6008   -4.0000    3.9173 C   0  0  0  0  0  0  0  0  0  0  0  0
    3.5020   -6.2611    0.3148 O   0  0  0  0  0  0  0  0  0  0  0  0
    3.6490   -4.8834    0.6753 C   0  0  2  0  0  0  0  0  0  0  0  0
    4.9574   -4.1083    0.3921 C   0  0  2  0  0  0  0  0  0  0  0  0
    6.1097   -5.1394    0.0668 C   0  0  0  0  0  0  0  0  0  0  0  0
    4.7803   -3.1962   -0.9154 C   0  0  1  0  0  0  0  0  0  0  0  0
    6.0408   -2.8397   -1.4795 O   0  0  0  0  0  0  0  0  0  0  0  0
    4.0731   -3.8054   -2.1294 C   0  0  0  0  0  0  0  0  0  0  0  0
    3.6820   -2.6044   -2.9433 C   0  0  2  0  0  0  0  0  0  0  0  0
    2.7780   -2.6397   -4.0487 O   0  0  0  0  0  0  0  0  0  0  0  0
    2.3844   -1.9081   -2.8549 C   0  0  2  0  0  0  0  0  0  0  0  0
    3.6022   -1.3670   -2.0975 C   0  0  2  0  0  0  0  0  0  0  0  0
    4.3855   -0.2084   -2.6831 C   0  0  0  0  0  0  0  0  0  0  0  0
    3.9618   -1.8933   -0.7090 C   0  0  2  0  0  0  0  0  0  0  0  0
    4.5034   -0.9708    0.4166 C   0  0  0  0  0  0  0  0  0  0  0  0
    5.7714   -0.4554    0.1064 O   0  0  0  0  0  0  0  0  0  0  0  0
    3.6085    0.0918    0.6123 O   0  0  0  0  0  0  0  0  0  0  0  0
    4.5253   -1.8070    1.7416 C   0  0  1  0  0  0  0  0  0  0  0  0
    3.1713   -1.8749    2.1412 O   0  0  0  0  0  0  0  0  0  0  0  0
    8.9586   -1.7139   -0.4961 H   0  0  0  0  0  0  0  0  0  0  0  0
    9.3489   -2.8818    0.7569 H   0  0  0  0  0  0  0  0  0  0  0  0
    8.8777   -1.2209    1.1785 H   0  0  0  0  0  0  0  0  0  0  0  0
    7.3642   -3.7555    2.0588 H   0  0  0  0  0  0  0  0  0  0  0  0
    6.9032   -2.0869    2.4223 H   0  0  0  0  0  0  0  0  0  0  0  0
    5.6463   -3.5475    3.8512 H   0  0  0  0  0  0  0  0  0  0  0  0
    6.3446   -5.7255    3.6615 H   0  0  0  0  0  0  0  0  0  0  0  0
    5.0417   -7.4357    2.4456 H   0  0  0  0  0  0  0  0  0  0  0  0
    1.4068   -6.0058    1.9358 H   0  0  0  0  0  0  0  0  0  0  0  0
    2.2765   -6.7171    3.2784 H   0  0  0  0  0  0  0  0  0  0  0  0
    1.8398   -3.8064    2.6094 H   0  0  0  0  0  0  0  0  0  0  0  0
    1.5158   -4.5946    4.0911 H   0  0  0  0  0  0  0  0  0  0  0  0
    3.7541   -4.5838    4.8270 H   0  0  0  0  0  0  0  0  0  0  0  0
    3.4231   -2.9982    4.3095 H   0  0  0  0  0  0  0  0  0  0  0  0
    2.7467   -4.2907    0.5143 H   0  0  0  0  0  0  0  0  0  0  0  0
    5.7995   -5.8209   -0.7198 H   0  0  0  0  0  0  0  0  0  0  0  0
    6.4657   -5.7734    0.8682 H   0  0  0  0  0  0  0  0  0  0  0  0
    7.0296   -4.6820   -0.2882 H   0  0  0  0  0  0  0  0  0  0  0  0
    6.5963   -2.6072   -0.7507 H   0  0  0  0  0  0  0  0  0  0  0  0
    4.7055   -4.4780   -2.7334 H   0  0  0  0  0  0  0  0  0  0  0  0
    3.1107   -4.2191   -1.8221 H   0  0  0  0  0  0  0  0  0  0  0  0
    1.4928   -2.2894   -2.3161 H   0  0  0  0  0  0  0  0  0  0  0  0
    4.2374    0.7001   -2.1487 H   0  0  0  0  0  0  0  0  0  0  0  0
    4.0945   -0.0318   -3.7261 H   0  0  0  0  0  0  0  0  0  0  0  0
    5.4559   -0.4453   -2.6458 H   0  0  0  0  0  0  0  0  0  0  0  0
    2.9985   -2.2310   -0.3267 H   0  0  0  0  0  0  0  0  0  0  0  0
    6.1582   -0.0620    0.8797 H   0  0  0  0  0  0  0  0  0  0  0  0
    3.9004    0.6392    1.3475 H   0  0  0  0  0  0  0  0  0  0  0  0
    4.9716   -1.1883    2.5254 H   0  0  0  0  0  0  0  0  0  0  0  0
    2.7819   -1.0353    1.9188 H   0  0  0  0  0  0  0  0  0  0  0  0
  1  2  1  0
  1 30  1  0
  1 31  1  0
  1 32  1  0
  2  3  1  0
  4  3  1  1
  3 33  1  0
  3 34  1  0
  4 14  1  0
  4 28  1  0
  4  5  1  0
  5 11  1  0
  5  6  1  0
  5 35  1  1
  6  7  2  0
  6 36  1  0
  7  8  1  0
  7 37  1  0
  8 13  1  0
  8  9  1  0
  8 12  1  6
  9 10  1  0
  9 38  1  0
  9 39  1  0
 10 11  1  0
 10 40  1  0
 10 41  1  0
 11 42  1  0
 11 43  1  0
 12 13  1  0
 13 14  1  0
 13 44  1  1
 14 15  1  6
 14 16  1  0
 15 45  1  0
 15 46  1  0
 15 47  1  0
 16 24  1  0
 16 17  1  6
 16 18  1  0
 17 48  1  0
 18 19  1  0
 18 49  1  0
 18 50  1  0
 19 21  1  0
 19 22  1  0
 19 20  1  6
 20 21  1  0
 21 22  1  0
 21 51  1  1
 22 23  1  6
 22 24  1  0
 23 52  1  0
 23 53  1  0
 23 54  1  0
 24 25  1  0
 24 55  1  1
 25 26  1  0
 25 27  1  0
 25 28  1  0
 26 56  1  0
 27 57  1  0
 28 29  1  0
 28 58  1  1
 29 59  1  0
M  END
>  <i_m_ct_stereo_status>  (309) 
1

>  <s_m_source_file>  (309) 
/var/tmp/pbs.5076255.sched01/tmpo609hgx5/90rinj4u0e.sdf

>  <i_m_source_file_index>  (309) 
39

>  <i_lp_mmshare_version>  (309) 
48012

>  <i_f3d_flags>  (309) 
2

>  <s_epik_input>  (309) 
W0NIMl0xW0NIMl1bQ0gyXVtDSF0oW0NIXT1bQ0hdMilbQ0BdKFtDQF0zKFtDQEBIXShbQ0BdMTI0KU80KVtDSDNdKShbQ0gyXU9bQ0gzXSlbQ0BIXShbT0hdKUMoW09IXSkoW09IXSlbQ0BASF01W0NAXTMoW09IXSlbQ0gyXUM2N1tDQEhdKE82KVtDQF01N1tDSDNd

>  <s_epik_cmdline>  (309) 
J2VwaWtfcHl0aG9uJywgJy1waHQnLCAnMi4wJywgJy1waCcsICc3LjAnLCAnLXRuJywgJzgnLCAnLW1hJywgJzIwMCcsICctaW1hZScsICc8aW5maWxlLm1hZT4nLCAnLW9tYWUnLCAnPG91dGZpbGUubWFlPic=

>  <r_lp_tautomer_probability>  (309) 
1

>  <r_epik_Ionization_Penalty>  (309) 
3.19925e-07

>  <r_epik_Ionization_Penalty_Charging>  (309) 
0

>  <r_epik_Ionization_Penalty_Neutral>  (309) 
3.19925e-07

>  <r_epik_State_Penalty>  (309) 
-0

>  <r_epik_Charging_Adjusted_Penalty>  (309) 
0

>  <i_epik_Tot_Q>  (309) 
0

>  <i_epik_Tot_abs_Q>  (309) 
0

>  <s_lp_Force_Field>  (309) 
OPLS3e

>  <r_lp_Energy>  (309) 
99.7223

>  <b_lp_Chiralities_Consistent>  (309) 
0

>  <s_lp_Variant>  (309) 
85:0-1

>  <s_i_glide_gridfile>  (309) 
pfpi4k_grid

>  <i_i_glide_lignum>  (309) 
39

>  <i_i_glide_rotatable_bonds>  (309) 
6

>  <r_i_docking_score>  (309) 
-2.14592

>  <r_i_glide_ligand_efficiency>  (309) 
-0.0739973

>  <r_i_glide_ligand_efficiency_sa>  (309) 
-0.227343

>  <r_i_glide_ligand_efficiency_ln>  (309) 
-0.491362

>  <r_i_glide_gscore>  (309) 
-2.14592

>  <r_i_glide_lipo>  (309) 
-0.480059

>  <r_i_glide_hbond>  (309) 
0

>  <r_i_glide_metal>  (309) 
-0

>  <r_i_glide_rewards>  (309) 
-1.20086

>  <r_i_glide_evdw>  (309) 
-7.19673

>  <r_i_glide_ecoul>  (309) 
-1.49452

>  <r_i_glide_erotb>  (309) 
0.11901

>  <r_i_glide_esite>  (309) 
0

>  <r_i_glide_emodel>  (309) 
-10.397

>  <r_i_glide_energy>  (309) 
-8.69125

>  <r_i_glide_einternal>  (309) 
9.209

>  <r_i_glide_intrahb_reward>  (309) 
-0.5

>  <i_i_glide_confnum>  (309) 
1

>  <i_i_glide_posenum>  (309) 
32

>  <r_i_glide_eff_state_penalty>  (309) 
0

>  <ligand_id>  (309) 
85

>  <original_smiles>  (309) 
COCC12C3C=CC4(CCC3)OC4C1(C)C1(O)CC34OC3C4(C)C1C(O)(O)C2O

>  <smiles>  (309) 
[H]OC1([H])C(O[H])(O[H])C2([H])C(O[H])(C([H])([H])C34OC3([H])C24C([H])([H])[H])C2(C([H])([H])[H])C3([H])OC34C([H])=C([H])C([H])(C([H])([H])C([H])([H])C4([H])[H])C12C([H])([H])OC([H])([H])[H]

$$$$
86:0:0
     RDKit          3D

 51 54  0  0  1  0  0  0  0  0999 V2000
    2.4476   -2.1458    7.2942 C   0  0  0  0  0  0  0  0  0  0  0  0
    3.1237   -1.1923    6.2788 C   0  0  0  0  0  0  0  0  0  0  0  0
    3.9792   -0.2159    7.1196 C   0  0  0  0  0  0  0  0  0  0  0  0
    4.1762   -1.9803    5.3875 C   0  0  0  0  0  0  0  0  0  0  0  0
    3.7012   -2.8178    4.1716 C   0  0  0  0  0  0  0  0  0  0  0  0
    4.3072   -3.8153    3.7805 O   0  0  0  0  0  0  0  0  0  0  0  0
    2.4797   -2.2830    3.4601 C   0  0  2  0  0  0  0  0  0  0  0  0
    1.2539   -2.3037    4.3062 C   0  0  0  0  0  0  0  0  0  0  0  0
    0.6031   -3.2986    4.6266 O   0  0  0  0  0  0  0  0  0  0  0  0
    0.9171   -0.8925    4.6428 C   0  0  1  0  0  0  0  0  0  0  0  0
    2.0616   -0.2760    5.5347 C   0  0  0  0  0  0  0  0  0  0  0  0
    0.6184   -0.2053    3.2477 C   0  0  1  0  0  0  0  0  0  0  0  0
    0.3519    1.2869    3.3993 C   0  0  0  0  0  0  0  0  0  0  0  0
    1.4174    2.2194    3.4329 C   0  0  0  0  0  0  0  0  0  0  0  0
    1.1658    3.5919    3.6275 C   0  0  0  0  0  0  0  0  0  0  0  0
   -0.1612    4.0526    3.7472 C   0  0  0  0  0  0  0  0  0  0  0  0
   -0.4176    5.3727    3.9213 F   0  0  0  0  0  0  0  0  0  0  0  0
   -1.2317    3.1378    3.6902 C   0  0  0  0  0  0  0  0  0  0  0  0
   -0.9741    1.7600    3.5259 C   0  0  0  0  0  0  0  0  0  0  0  0
    1.5992   -0.4662    2.1493 N   0  0  0  0  0  0  0  0  0  0  0  0
    2.1913   -1.8252    2.0349 C   0  0  1  0  0  0  0  0  0  0  0  0
    3.4285   -1.8272    1.1570 C   0  0  0  0  0  0  0  0  0  0  0  0
    4.3448   -0.7507    1.2054 C   0  0  0  0  0  0  0  0  0  0  0  0
    5.5008   -0.7630    0.4027 C   0  0  0  0  0  0  0  0  0  0  0  0
    5.7413   -1.8481   -0.4664 C   0  0  0  0  0  0  0  0  0  0  0  0
    6.8488   -1.8561   -1.2439 F   0  0  0  0  0  0  0  0  0  0  0  0
    4.8343   -2.9265   -0.5215 C   0  0  0  0  0  0  0  0  0  0  0  0
    3.6795   -2.9135    0.2900 C   0  0  0  0  0  0  0  0  0  0  0  0
    3.1696   -2.5382    8.0083 H   0  0  0  0  0  0  0  0  0  0  0  0
    1.9878   -3.0129    6.8246 H   0  0  0  0  0  0  0  0  0  0  0  0
    1.6745   -1.6281    7.8635 H   0  0  0  0  0  0  0  0  0  0  0  0
    4.4910    0.5120    6.4881 H   0  0  0  0  0  0  0  0  0  0  0  0
    4.7515   -0.7412    7.6888 H   0  0  0  0  0  0  0  0  0  0  0  0
    3.3738    0.3419    7.8326 H   0  0  0  0  0  0  0  0  0  0  0  0
    4.9100   -1.2761    4.9901 H   0  0  0  0  0  0  0  0  0  0  0  0
    4.7463   -2.6551    6.0325 H   0  0  0  0  0  0  0  0  0  0  0  0
    2.9383   -1.3202    3.6521 H   0  0  0  0  0  0  0  0  0  0  0  0
   -0.0012   -0.9082    5.2341 H   0  0  0  0  0  0  0  0  0  0  0  0
    1.5682    0.3571    6.2734 H   0  0  0  0  0  0  0  0  0  0  0  0
    2.6493    0.4091    4.9303 H   0  0  0  0  0  0  0  0  0  0  0  0
   -0.3136   -0.6411    2.8996 H   0  0  0  0  0  0  0  0  0  0  0  0
    2.4357    1.8841    3.3143 H   0  0  0  0  0  0  0  0  0  0  0  0
    1.9896    4.2902    3.6557 H   0  0  0  0  0  0  0  0  0  0  0  0
   -2.2456    3.4953    3.7704 H   0  0  0  0  0  0  0  0  0  0  0  0
   -1.8047    1.0730    3.4885 H   0  0  0  0  0  0  0  0  0  0  0  0
    1.1650   -0.2703    1.2467 H   0  0  0  0  0  0  0  0  0  0  0  0
    1.4549   -2.5007    1.6106 H   0  0  0  0  0  0  0  0  0  0  0  0
    4.1675    0.0854    1.8618 H   0  0  0  0  0  0  0  0  0  0  0  0
    6.1941    0.0643    0.4443 H   0  0  0  0  0  0  0  0  0  0  0  0
    5.0218   -3.7590   -1.1848 H   0  0  0  0  0  0  0  0  0  0  0  0
    2.9933   -3.7451    0.2441 H   0  0  0  0  0  0  0  0  0  0  0  0
  1  2  1  0
  1 29  1  0
  1 30  1  0
  1 31  1  0
  2 11  1  0
  2  3  1  0
  2  4  1  0
  3 32  1  0
  3 33  1  0
  3 34  1  0
  4  5  1  0
  4 35  1  0
  4 36  1  0
  5  6  2  0
  5  7  1  0
  7 21  1  0
  7  8  1  0
  7 37  1  1
  8  9  2  0
  8 10  1  0
 10 11  1  0
 10 12  1  0
 10 38  1  1
 11 39  1  0
 11 40  1  0
 12 13  1  0
 12 20  1  0
 12 41  1  6
 13 19  1  0
 13 14  2  0
 14 15  1  0
 14 42  1  0
 15 16  2  0
 15 43  1  0
 16 17  1  0
 16 18  1  0
 18 19  2  0
 18 44  1  0
 19 45  1  0
 20 21  1  0
 20 46  1  0
 21 22  1  0
 21 47  1  6
 22 28  1  0
 22 23  2  0
 23 24  1  0
 23 48  1  0
 24 25  2  0
 24 49  1  0
 25 26  1  0
 25 27  1  0
 27 28  2  0
 27 50  1  0
 28 51  1  0
M  END
>  <i_m_ct_stereo_status>  (310) 
1

>  <s_m_source_file>  (310) 
/var/tmp/pbs.5076255.sched01/tmpo609hgx5/90rinj4u0e.sdf

>  <i_m_source_file_index>  (310) 
40

>  <i_lp_mmshare_version>  (310) 
48012

>  <i_f3d_flags>  (310) 
0

>  <s_epik_input>  (310) 
Tz1DKFtDQEhdMTIpW0NIMl1DKFtDSDNdKShbQ0gzXSlbQ0gyXVtDQEhdKEMxPU8pW0NAQEhdKGMzW2NIXVtjSF1jKEYpW2NIXVtjSF0zKVtOSF1bQ0BIXTJjNFtjSF1bY0hdYyhGKVtjSF1bY0hdNA==

>  <s_epik_cmdline>  (310) 
J2VwaWtfcHl0aG9uJywgJy1waHQnLCAnMi4wJywgJy1waCcsICc3LjAnLCAnLXRuJywgJzgnLCAnLW1hJywgJzIwMCcsICctaW1hZScsICc8aW5maWxlLm1hZT4nLCAnLW9tYWUnLCAnPG91dGZpbGUubWFlPic=

>  <r_epik_Ionization_Penalty>  (310) 
0.283787

>  <r_epik_Ionization_Penalty_Charging>  (310) 
0

>  <r_epik_Ionization_Penalty_Neutral>  (310) 
0.283787

>  <r_epik_State_Penalty>  (310) 
0.352269

>  <r_epik_Charging_Adjusted_Penalty>  (310) 
0.352269

>  <i_epik_Tot_Q>  (310) 
0

>  <i_epik_Tot_abs_Q>  (310) 
0

>  <s_lp_Force_Field>  (310) 
OPLS3e

>  <r_lp_Energy>  (310) 
79.4176

>  <b_lp_Chiralities_Consistent>  (310) 
1

>  <s_lp_Variant>  (310) 
86:0-1

>  <s_i_glide_gridfile>  (310) 
pfpi4k_grid

>  <i_i_glide_lignum>  (310) 
40

>  <i_i_glide_rotatable_bonds>  (310) 
2

>  <r_i_docking_score>  (310) 
-2.94228

>  <r_i_glide_ligand_efficiency>  (310) 
-0.105081

>  <r_i_glide_ligand_efficiency_sa>  (310) 
-0.319089

>  <r_i_glide_ligand_efficiency_ln>  (310) 
-0.679165

>  <r_i_glide_gscore>  (310) 
-2.94228

>  <r_i_glide_lipo>  (310) 
-0.221068

>  <r_i_glide_hbond>  (310) 
-0.0980472

>  <r_i_glide_metal>  (310) 
-0

>  <r_i_glide_rewards>  (310) 
-0.800748

>  <r_i_glide_evdw>  (310) 
-23.3394

>  <r_i_glide_ecoul>  (310) 
-5.01622

>  <r_i_glide_erotb>  (310) 
0.264347

>  <r_i_glide_esite>  (310) 
-0.167363

>  <r_i_glide_emodel>  (310) 
-33.6759

>  <r_i_glide_energy>  (310) 
-28.3556

>  <r_i_glide_einternal>  (310) 
0.296021

>  <r_i_glide_intrahb_reward>  (310) 
-0

>  <i_i_glide_confnum>  (310) 
5

>  <i_i_glide_posenum>  (310) 
5

>  <r_i_glide_eff_state_penalty>  (310) 
0

>  <ligand_id>  (310) 
86

>  <original_smiles>  (310) 
CC1(C)CC(=O)C2C(=O)C(C1)C(c1ccc(F)cc1)NC2c1ccc(F)cc1

>  <smiles>  (310) 
[H]c1c([H])c(C2([H])N([H])C([H])(c3c([H])c([H])c(F)c([H])c3[H])C3([H])C(=O)C2([H])C(=O)C([H])([H])C(C([H])([H])[H])(C([H])([H])[H])C3([H])[H])c([H])c([H])c1F

$$$$
86:0:1
     RDKit          3D

 51 54  0  0  1  0  0  0  0  0999 V2000
    6.8746   -8.7368    4.5662 C   0  0  0  0  0  0  0  0  0  0  0  0
    6.0487   -7.4344    4.4698 C   0  0  0  0  0  0  0  0  0  0  0  0
    5.8859   -6.9309    5.9238 C   0  0  0  0  0  0  0  0  0  0  0  0
    6.8983   -6.3014    3.7477 C   0  0  0  0  0  0  0  0  0  0  0  0
    7.0158   -6.2879    2.1993 C   0  0  0  0  0  0  0  0  0  0  0  0
    7.9808   -5.8004    1.6151 O   0  0  0  0  0  0  0  0  0  0  0  0
    5.7907   -6.7868    1.4658 C   0  0  2  0  0  0  0  0  0  0  0  0
    5.5325   -8.2321    1.7012 C   0  0  0  0  0  0  0  0  0  0  0  0
    6.1800   -9.1636    1.2478 O   0  0  0  0  0  0  0  0  0  0  0  0
    4.3036   -8.3434    2.5472 C   0  0  1  0  0  0  0  0  0  0  0  0
    4.5661   -7.7016    3.9581 C   0  0  0  0  0  0  0  0  0  0  0  0
    3.1588   -7.7095    1.6698 C   0  0  1  0  0  0  0  0  0  0  0  0
    1.8308   -7.6249    2.4146 C   0  0  0  0  0  0  0  0  0  0  0  0
    0.9669   -8.7427    2.4787 C   0  0  0  0  0  0  0  0  0  0  0  0
   -0.2636   -8.6685    3.1731 C   0  0  0  0  0  0  0  0  0  0  0  0
   -0.6284   -7.4647    3.8177 C   0  0  0  0  0  0  0  0  0  0  0  0
   -1.8051   -7.3630    4.4814 F   0  0  0  0  0  0  0  0  0  0  0  0
    0.2291   -6.3523    3.7768 C   0  0  0  0  0  0  0  0  0  0  0  0
    1.4482   -6.4274    3.0780 C   0  0  0  0  0  0  0  0  0  0  0  0
    3.4637   -6.3886    1.0425 N   0  0  0  0  0  0  0  0  0  0  0  0
    4.8140   -6.1709    0.4705 C   0  0  1  0  0  0  0  0  0  0  0  0
    5.0508   -4.6881    0.2080 C   0  0  0  0  0  0  0  0  0  0  0  0
    5.1990   -3.7652    1.2749 C   0  0  0  0  0  0  0  0  0  0  0  0
    5.4777   -2.4066    1.0189 C   0  0  0  0  0  0  0  0  0  0  0  0
    5.5525   -1.9554   -0.3123 C   0  0  0  0  0  0  0  0  0  0  0  0
    5.8131   -0.6526   -0.5647 F   0  0  0  0  0  0  0  0  0  0  0  0
    5.3695   -2.8481   -1.3861 C   0  0  0  0  0  0  0  0  0  0  0  0
    5.1140   -4.2119   -1.1196 C   0  0  0  0  0  0  0  0  0  0  0  0
    7.7537   -8.6001    5.1976 H   0  0  0  0  0  0  0  0  0  0  0  0
    7.2518   -9.0783    3.6050 H   0  0  0  0  0  0  0  0  0  0  0  0
    6.2879   -9.5461    4.9994 H   0  0  0  0  0  0  0  0  0  0  0  0
    5.2964   -6.0131    5.9653 H   0  0  0  0  0  0  0  0  0  0  0  0
    6.8497   -6.7141    6.3897 H   0  0  0  0  0  0  0  0  0  0  0  0
    5.3827   -7.6685    6.5515 H   0  0  0  0  0  0  0  0  0  0  0  0
    6.4997   -5.3271    4.0308 H   0  0  0  0  0  0  0  0  0  0  0  0
    7.9169   -6.3216    4.1397 H   0  0  0  0  0  0  0  0  0  0  0  0
    5.2579   -6.2924    2.2657 H   0  0  0  0  0  0  0  0  0  0  0  0
    4.0992   -9.4075    2.6831 H   0  0  0  0  0  0  0  0  0  0  0  0
    4.0619   -8.3458    4.6818 H   0  0  0  0  0  0  0  0  0  0  0  0
    4.0265   -6.7535    4.0194 H   0  0  0  0  0  0  0  0  0  0  0  0
    2.9853   -8.4205    0.8659 H   0  0  0  0  0  0  0  0  0  0  0  0
    1.2297   -9.6722    1.9830 H   0  0  0  0  0  0  0  0  0  0  0  0
   -0.9295   -9.5231    3.2183 H   0  0  0  0  0  0  0  0  0  0  0  0
   -0.0434   -5.4357    4.2848 H   0  0  0  0  0  0  0  0  0  0  0  0
    2.0981   -5.5668    3.0574 H   0  0  0  0  0  0  0  0  0  0  0  0
    2.8140   -6.2424    0.2790 H   0  0  0  0  0  0  0  0  0  0  0  0
    4.9031   -6.7072   -0.4675 H   0  0  0  0  0  0  0  0  0  0  0  0
    5.1440   -4.0895    2.3008 H   0  0  0  0  0  0  0  0  0  0  0  0
    5.6342   -1.7182    1.8390 H   0  0  0  0  0  0  0  0  0  0  0  0
    5.4319   -2.4851   -2.4029 H   0  0  0  0  0  0  0  0  0  0  0  0
    4.9945   -4.8896   -1.9546 H   0  0  0  0  0  0  0  0  0  0  0  0
  1  2  1  0
  1 29  1  0
  1 30  1  0
  1 31  1  0
  2 11  1  0
  2  3  1  0
  2  4  1  0
  3 32  1  0
  3 33  1  0
  3 34  1  0
  4  5  1  0
  4 35  1  0
  4 36  1  0
  5  6  2  0
  5  7  1  0
  7 21  1  0
  7  8  1  0
  7 37  1  1
  8  9  2  0
  8 10  1  0
 10 11  1  0
 10 12  1  0
 10 38  1  1
 11 39  1  0
 11 40  1  0
 12 13  1  0
 12 20  1  0
 12 41  1  6
 13 19  1  0
 13 14  2  0
 14 15  1  0
 14 42  1  0
 15 16  2  0
 15 43  1  0
 16 17  1  0
 16 18  1  0
 18 19  2  0
 18 44  1  0
 19 45  1  0
 20 21  1  0
 20 46  1  0
 21 22  1  0
 21 47  1  6
 22 28  1  0
 22 23  2  0
 23 24  1  0
 23 48  1  0
 24 25  2  0
 24 49  1  0
 25 26  1  0
 25 27  1  0
 27 28  2  0
 27 50  1  0
 28 51  1  0
M  END
>  <i_m_ct_stereo_status>  (311) 
1

>  <s_m_source_file>  (311) 
/var/tmp/pbs.5076255.sched01/tmpo609hgx5/90rinj4u0e.sdf

>  <i_m_source_file_index>  (311) 
40

>  <i_lp_mmshare_version>  (311) 
48012

>  <i_f3d_flags>  (311) 
0

>  <s_epik_input>  (311) 
Tz1DKFtDQEhdMTIpW0NIMl1DKFtDSDNdKShbQ0gzXSlbQ0gyXVtDQEhdKEMxPU8pW0NAQEhdKGMzW2NIXVtjSF1jKEYpW2NIXVtjSF0zKVtOSF1bQ0BIXTJjNFtjSF1bY0hdYyhGKVtjSF1bY0hdNA==

>  <s_epik_cmdline>  (311) 
J2VwaWtfcHl0aG9uJywgJy1waHQnLCAnMi4wJywgJy1waCcsICc3LjAnLCAnLXRuJywgJzgnLCAnLW1hJywgJzIwMCcsICctaW1hZScsICc8aW5maWxlLm1hZT4nLCAnLW9tYWUnLCAnPG91dGZpbGUubWFlPic=

>  <r_epik_Ionization_Penalty>  (311) 
0.283787

>  <r_epik_Ionization_Penalty_Charging>  (311) 
0

>  <r_epik_Ionization_Penalty_Neutral>  (311) 
0.283787

>  <r_epik_State_Penalty>  (311) 
0.352269

>  <r_epik_Charging_Adjusted_Penalty>  (311) 
0.352269

>  <i_epik_Tot_Q>  (311) 
0

>  <i_epik_Tot_abs_Q>  (311) 
0

>  <s_lp_Force_Field>  (311) 
OPLS3e

>  <r_lp_Energy>  (311) 
79.4176

>  <b_lp_Chiralities_Consistent>  (311) 
1

>  <s_lp_Variant>  (311) 
86:0-1

>  <s_i_glide_gridfile>  (311) 
pfpi4k_grid

>  <i_i_glide_lignum>  (311) 
40

>  <i_i_glide_rotatable_bonds>  (311) 
2

>  <r_i_docking_score>  (311) 
-2.92318

>  <r_i_glide_ligand_efficiency>  (311) 
-0.104399

>  <r_i_glide_ligand_efficiency_sa>  (311) 
-0.317018

>  <r_i_glide_ligand_efficiency_ln>  (311) 
-0.674756

>  <r_i_glide_gscore>  (311) 
-2.92318

>  <r_i_glide_lipo>  (311) 
-0.410301

>  <r_i_glide_hbond>  (311) 
0

>  <r_i_glide_metal>  (311) 
-0

>  <r_i_glide_rewards>  (311) 
-0.936966

>  <r_i_glide_evdw>  (311) 
-28.2383

>  <r_i_glide_ecoul>  (311) 
-2.05296

>  <r_i_glide_erotb>  (311) 
0.264347

>  <r_i_glide_esite>  (311) 
-0.120402

>  <r_i_glide_emodel>  (311) 
-34.9364

>  <r_i_glide_energy>  (311) 
-30.2913

>  <r_i_glide_einternal>  (311) 
1.25397

>  <r_i_glide_intrahb_reward>  (311) 
-0

>  <i_i_glide_confnum>  (311) 
2

>  <i_i_glide_posenum>  (311) 
38

>  <r_i_glide_eff_state_penalty>  (311) 
0

>  <ligand_id>  (311) 
86

>  <original_smiles>  (311) 
CC1(C)CC(=O)C2C(=O)C(C1)C(c1ccc(F)cc1)NC2c1ccc(F)cc1

>  <smiles>  (311) 
[H]c1c([H])c(C2([H])N([H])C([H])(c3c([H])c([H])c(F)c([H])c3[H])C3([H])C(=O)C2([H])C(=O)C([H])([H])C(C([H])([H])[H])(C([H])([H])[H])C3([H])[H])c([H])c([H])c1F

$$$$
86:0:2
     RDKit          3D

 51 54  0  0  1  0  0  0  0  0999 V2000
    6.8998   -8.9416    4.6128 C   0  0  0  0  0  0  0  0  0  0  0  0
    6.0473   -7.6488    4.5662 C   0  0  0  0  0  0  0  0  0  0  0  0
    5.8588   -7.2099    6.0355 C   0  0  0  0  0  0  0  0  0  0  0  0
    6.8805   -6.4657    3.9199 C   0  0  0  0  0  0  0  0  0  0  0  0
    7.0406   -6.4021    2.3844 C   0  0  0  0  0  0  0  0  0  0  0  0
    8.0794   -5.9932    1.8703 O   0  0  0  0  0  0  0  0  0  0  0  0
    5.8340   -6.8752    1.5836 C   0  0  2  0  0  0  0  0  0  0  0  0
    5.5985   -8.3464    1.7428 C   0  0  0  0  0  0  0  0  0  0  0  0
    6.2713   -9.2429    1.2540 O   0  0  0  0  0  0  0  0  0  0  0  0
    4.3575   -8.5238    2.5674 C   0  0  1  0  0  0  0  0  0  0  0  0
    4.5819   -7.9227    4.0075 C   0  0  0  0  0  0  0  0  0  0  0  0
    3.2074   -7.8865    1.6938 C   0  0  1  0  0  0  0  0  0  0  0  0
    1.8672   -7.8403    2.4364 C   0  0  0  0  0  0  0  0  0  0  0  0
    1.0354   -8.9786    2.4798 C   0  0  0  0  0  0  0  0  0  0  0  0
   -0.2012   -8.9452    3.1534 C   0  0  0  0  0  0  0  0  0  0  0  0
   -0.6014   -7.7654    3.8050 C   0  0  0  0  0  0  0  0  0  0  0  0
   -1.7860   -7.7089    4.4601 F   0  0  0  0  0  0  0  0  0  0  0  0
    0.2173   -6.6267    3.7828 C   0  0  0  0  0  0  0  0  0  0  0  0
    1.4469   -6.6652    3.1014 C   0  0  0  0  0  0  0  0  0  0  0  0
    3.5003   -6.5529    1.0956 N   0  0  0  0  0  0  0  0  0  0  0  0
    4.8563   -6.2406    0.5747 C   0  0  1  0  0  0  0  0  0  0  0  0
    5.0490   -4.7307    0.3546 C   0  0  0  0  0  0  0  0  0  0  0  0
    6.3182   -4.2196    0.0174 C   0  0  0  0  0  0  0  0  0  0  0  0
    6.5272   -2.8372   -0.1381 C   0  0  0  0  0  0  0  0  0  0  0  0
    5.4447   -1.9540   -0.0258 C   0  0  0  0  0  0  0  0  0  0  0  0
    5.6444   -0.6279   -0.2174 F   0  0  0  0  0  0  0  0  0  0  0  0
    4.1557   -2.4433    0.2608 C   0  0  0  0  0  0  0  0  0  0  0  0
    3.9647   -3.8224    0.4581 C   0  0  0  0  0  0  0  0  0  0  0  0
    7.7712   -8.8176    5.2585 H   0  0  0  0  0  0  0  0  0  0  0  0
    7.2957   -9.2352    3.6424 H   0  0  0  0  0  0  0  0  0  0  0  0
    6.3256   -9.7830    5.0023 H   0  0  0  0  0  0  0  0  0  0  0  0
    5.2573   -6.3011    6.0972 H   0  0  0  0  0  0  0  0  0  0  0  0
    6.8172   -6.9940    6.5149 H   0  0  0  0  0  0  0  0  0  0  0  0
    5.3605   -7.9807    6.6268 H   0  0  0  0  0  0  0  0  0  0  0  0
    6.4589   -5.5087    4.2303 H   0  0  0  0  0  0  0  0  0  0  0  0
    7.8917   -6.4952    4.3290 H   0  0  0  0  0  0  0  0  0  0  0  0
    5.2736   -6.4005    2.3788 H   0  0  0  0  0  0  0  0  0  0  0  0
    4.1765   -9.5971    2.6655 H   0  0  0  0  0  0  0  0  0  0  0  0
    4.0747   -8.6006    4.6991 H   0  0  0  0  0  0  0  0  0  0  0  0
    4.0239   -6.9859    4.0915 H   0  0  0  0  0  0  0  0  0  0  0  0
    3.0520   -8.5712    0.8629 H   0  0  0  0  0  0  0  0  0  0  0  0
    1.3324   -9.8908    1.9761 H   0  0  0  0  0  0  0  0  0  0  0  0
   -0.8420   -9.8178    3.1808 H   0  0  0  0  0  0  0  0  0  0  0  0
   -0.0949   -5.7267    4.2973 H   0  0  0  0  0  0  0  0  0  0  0  0
    2.0641   -5.7814    3.0993 H   0  0  0  0  0  0  0  0  0  0  0  0
    2.8416   -6.3798    0.3538 H   0  0  0  0  0  0  0  0  0  0  0  0
    4.9746   -6.7298   -0.3886 H   0  0  0  0  0  0  0  0  0  0  0  0
    7.1633   -4.8751   -0.1242 H   0  0  0  0  0  0  0  0  0  0  0  0
    7.5199   -2.4641   -0.3530 H   0  0  0  0  0  0  0  0  0  0  0  0
    3.3130   -1.7660    0.3263 H   0  0  0  0  0  0  0  0  0  0  0  0
    2.9635   -4.1530    0.6837 H   0  0  0  0  0  0  0  0  0  0  0  0
  1  2  1  0
  1 29  1  0
  1 30  1  0
  1 31  1  0
  2 11  1  0
  2  3  1  0
  2  4  1  0
  3 32  1  0
  3 33  1  0
  3 34  1  0
  4  5  1  0
  4 35  1  0
  4 36  1  0
  5  6  2  0
  5  7  1  0
  7 21  1  0
  7  8  1  0
  7 37  1  1
  8  9  2  0
  8 10  1  0
 10 11  1  0
 10 12  1  0
 10 38  1  1
 11 39  1  0
 11 40  1  0
 12 13  1  0
 12 20  1  0
 12 41  1  6
 13 19  1  0
 13 14  2  0
 14 15  1  0
 14 42  1  0
 15 16  2  0
 15 43  1  0
 16 17  1  0
 16 18  1  0
 18 19  2  0
 18 44  1  0
 19 45  1  0
 20 21  1  0
 20 46  1  0
 21 22  1  0
 21 47  1  6
 22 28  1  0
 22 23  2  0
 23 24  1  0
 23 48  1  0
 24 25  2  0
 24 49  1  0
 25 26  1  0
 25 27  1  0
 27 28  2  0
 27 50  1  0
 28 51  1  0
M  END
>  <i_m_ct_stereo_status>  (312) 
1

>  <s_m_source_file>  (312) 
/var/tmp/pbs.5076255.sched01/tmpo609hgx5/90rinj4u0e.sdf

>  <i_m_source_file_index>  (312) 
40

>  <i_lp_mmshare_version>  (312) 
48012

>  <i_f3d_flags>  (312) 
0

>  <s_epik_input>  (312) 
Tz1DKFtDQEhdMTIpW0NIMl1DKFtDSDNdKShbQ0gzXSlbQ0gyXVtDQEhdKEMxPU8pW0NAQEhdKGMzW2NIXVtjSF1jKEYpW2NIXVtjSF0zKVtOSF1bQ0BIXTJjNFtjSF1bY0hdYyhGKVtjSF1bY0hdNA==

>  <s_epik_cmdline>  (312) 
J2VwaWtfcHl0aG9uJywgJy1waHQnLCAnMi4wJywgJy1waCcsICc3LjAnLCAnLXRuJywgJzgnLCAnLW1hJywgJzIwMCcsICctaW1hZScsICc8aW5maWxlLm1hZT4nLCAnLW9tYWUnLCAnPG91dGZpbGUubWFlPic=

>  <r_epik_Ionization_Penalty>  (312) 
0.283787

>  <r_epik_Ionization_Penalty_Charging>  (312) 
0

>  <r_epik_Ionization_Penalty_Neutral>  (312) 
0.283787

>  <r_epik_State_Penalty>  (312) 
0.352269

>  <r_epik_Charging_Adjusted_Penalty>  (312) 
0.352269

>  <i_epik_Tot_Q>  (312) 
0

>  <i_epik_Tot_abs_Q>  (312) 
0

>  <s_lp_Force_Field>  (312) 
OPLS3e

>  <r_lp_Energy>  (312) 
79.4176

>  <b_lp_Chiralities_Consistent>  (312) 
1

>  <s_lp_Variant>  (312) 
86:0-1

>  <s_i_glide_gridfile>  (312) 
pfpi4k_grid

>  <i_i_glide_lignum>  (312) 
40

>  <i_i_glide_rotatable_bonds>  (312) 
2

>  <r_i_docking_score>  (312) 
-2.7409

>  <r_i_glide_ligand_efficiency>  (312) 
-0.0978893

>  <r_i_glide_ligand_efficiency_sa>  (312) 
-0.297249

>  <r_i_glide_ligand_efficiency_ln>  (312) 
-0.63268

>  <r_i_glide_gscore>  (312) 
-2.7409

>  <r_i_glide_lipo>  (312) 
-0.425192

>  <r_i_glide_hbond>  (312) 
0

>  <r_i_glide_metal>  (312) 
-0

>  <r_i_glide_rewards>  (312) 
-0.918013

>  <r_i_glide_evdw>  (312) 
-28.3056

>  <r_i_glide_ecoul>  (312) 
-1.00843

>  <r_i_glide_erotb>  (312) 
0.264347

>  <r_i_glide_esite>  (312) 
-0.0954949

>  <r_i_glide_emodel>  (312) 
-33.0603

>  <r_i_glide_energy>  (312) 
-29.3141

>  <r_i_glide_einternal>  (312) 
2.54344

>  <r_i_glide_intrahb_reward>  (312) 
-0

>  <i_i_glide_confnum>  (312) 
4

>  <i_i_glide_posenum>  (312) 
33

>  <r_i_glide_eff_state_penalty>  (312) 
0

>  <ligand_id>  (312) 
86

>  <original_smiles>  (312) 
CC1(C)CC(=O)C2C(=O)C(C1)C(c1ccc(F)cc1)NC2c1ccc(F)cc1

>  <smiles>  (312) 
[H]c1c([H])c(C2([H])N([H])C([H])(c3c([H])c([H])c(F)c([H])c3[H])C3([H])C(=O)C2([H])C(=O)C([H])([H])C(C([H])([H])[H])(C([H])([H])[H])C3([H])[H])c([H])c([H])c1F

$$$$
86:1:0
     RDKit          3D

 51 54  0  0  1  0  0  0  0  0999 V2000
    3.2703   -1.5330    4.8692 C   0  0  0  0  0  0  0  0  0  0  0  0
    2.3195   -2.0861    3.7781 C   0  0  0  0  0  0  0  0  0  0  0  0
    0.9632   -1.3794    3.9966 C   0  0  0  0  0  0  0  0  0  0  0  0
    2.7788   -1.7254    2.3380 C   0  0  0  0  0  0  0  0  0  0  0  0
    4.2317   -2.0540    1.9716 C   0  0  0  0  0  0  0  0  0  0  0  0
    5.0264   -1.1437    1.7398 O   0  0  0  0  0  0  0  0  0  0  0  0
    4.7012   -3.5125    1.8715 C   0  0  1  0  0  0  0  0  0  0  0  0
    4.5093   -4.1529    3.2372 C   0  0  0  0  0  0  0  0  0  0  0  0
    5.4161   -4.2354    4.0630 O   0  0  0  0  0  0  0  0  0  0  0  0
    3.1109   -4.6825    3.5286 C   0  0  1  0  0  0  0  0  0  0  0  0
    2.0592   -3.6086    3.9563 C   0  0  0  0  0  0  0  0  0  0  0  0
    2.6500   -5.5836    2.3469 C   0  0  1  0  0  0  0  0  0  0  0  0
    1.3316   -6.3354    2.5801 C   0  0  0  0  0  0  0  0  0  0  0  0
    0.7856   -6.4892    3.8796 C   0  0  0  0  0  0  0  0  0  0  0  0
   -0.4103   -7.1973    4.0871 C   0  0  0  0  0  0  0  0  0  0  0  0
   -1.0564   -7.8010    2.9979 C   0  0  0  0  0  0  0  0  0  0  0  0
   -2.1968   -8.4935    3.1933 F   0  0  0  0  0  0  0  0  0  0  0  0
   -0.5157   -7.6848    1.7071 C   0  0  0  0  0  0  0  0  0  0  0  0
    0.6735   -6.9625    1.4962 C   0  0  0  0  0  0  0  0  0  0  0  0
    2.6718   -4.8087    1.1015 N   0  0  0  0  0  0  0  0  0  0  0  0
    4.0314   -4.3754    0.7614 C   0  0  1  0  0  0  0  0  0  0  0  0
    4.1238   -3.7038   -0.6050 C   0  0  0  0  0  0  0  0  0  0  0  0
    3.0113   -3.0619   -1.2001 C   0  0  0  0  0  0  0  0  0  0  0  0
    3.1314   -2.4316   -2.4513 C   0  0  0  0  0  0  0  0  0  0  0  0
    4.3672   -2.4203   -3.1189 C   0  0  0  0  0  0  0  0  0  0  0  0
    4.4722   -1.7895   -4.3130 F   0  0  0  0  0  0  0  0  0  0  0  0
    5.4826   -3.0554   -2.5377 C   0  0  0  0  0  0  0  0  0  0  0  0
    5.3601   -3.6861   -1.2836 C   0  0  0  0  0  0  0  0  0  0  0  0
    3.3739   -0.4508    4.7835 H   0  0  0  0  0  0  0  0  0  0  0  0
    4.2750   -1.9481    4.8265 H   0  0  0  0  0  0  0  0  0  0  0  0
    2.8869   -1.7431    5.8686 H   0  0  0  0  0  0  0  0  0  0  0  0
    0.2269   -1.6849    3.2520 H   0  0  0  0  0  0  0  0  0  0  0  0
    1.0628   -0.2953    3.9248 H   0  0  0  0  0  0  0  0  0  0  0  0
    0.5458   -1.6058    4.9792 H   0  0  0  0  0  0  0  0  0  0  0  0
    2.1162   -2.1875    1.6063 H   0  0  0  0  0  0  0  0  0  0  0  0
    2.6674   -0.6490    2.1999 H   0  0  0  0  0  0  0  0  0  0  0  0
    5.7746   -3.4902    1.6824 H   0  0  0  0  0  0  0  0  0  0  0  0
    3.2511   -5.3472    4.3805 H   0  0  0  0  0  0  0  0  0  0  0  0
    1.8120   -3.7865    5.0045 H   0  0  0  0  0  0  0  0  0  0  0  0
    1.1321   -3.8216    3.4193 H   0  0  0  0  0  0  0  0  0  0  0  0
    3.3890   -6.3776    2.2280 H   0  0  0  0  0  0  0  0  0  0  0  0
    1.2595   -6.0737    4.7520 H   0  0  0  0  0  0  0  0  0  0  0  0
   -0.8173   -7.2921    5.0841 H   0  0  0  0  0  0  0  0  0  0  0  0
   -0.9931   -8.1788    0.8789 H   0  0  0  0  0  0  0  0  0  0  0  0
    1.0843   -6.9233    0.4991 H   0  0  0  0  0  0  0  0  0  0  0  0
    2.3353   -5.3729    0.3362 H   0  0  0  0  0  0  0  0  0  0  0  0
    4.6166   -5.2925    0.6648 H   0  0  0  0  0  0  0  0  0  0  0  0
    2.0507   -3.0374   -0.7061 H   0  0  0  0  0  0  0  0  0  0  0  0
    2.2787   -1.9398   -2.8959 H   0  0  0  0  0  0  0  0  0  0  0  0
    6.4336   -3.0563   -3.0497 H   0  0  0  0  0  0  0  0  0  0  0  0
    6.2223   -4.1594   -0.8320 H   0  0  0  0  0  0  0  0  0  0  0  0
  1  2  1  0
  1 29  1  0
  1 30  1  0
  1 31  1  0
  2 11  1  0
  2  3  1  0
  2  4  1  0
  3 32  1  0
  3 33  1  0
  3 34  1  0
  4  5  1  0
  4 35  1  0
  4 36  1  0
  5  6  2  0
  5  7  1  0
  7 21  1  0
  7  8  1  0
  7 37  1  6
  8  9  2  0
  8 10  1  0
 10 11  1  0
 10 12  1  0
 10 38  1  1
 11 39  1  0
 11 40  1  0
 12 13  1  0
 12 20  1  0
 12 41  1  6
 13 19  1  0
 13 14  2  0
 14 15  1  0
 14 42  1  0
 15 16  2  0
 15 43  1  0
 16 17  1  0
 16 18  1  0
 18 19  2  0
 18 44  1  0
 19 45  1  0
 20 21  1  0
 20 46  1  0
 21 22  1  0
 21 47  1  6
 22 28  1  0
 22 23  2  0
 23 24  1  0
 23 48  1  0
 24 25  2  0
 24 49  1  0
 25 26  1  0
 25 27  1  0
 27 28  2  0
 27 50  1  0
 28 51  1  0
M  END
>  <i_m_ct_stereo_status>  (313) 
1

>  <s_m_source_file>  (313) 
/var/tmp/pbs.5076255.sched01/tmpo609hgx5/90rinj4u0e.sdf

>  <i_m_source_file_index>  (313) 
41

>  <i_lp_mmshare_version>  (313) 
48012

>  <i_f3d_flags>  (313) 
0

>  <s_epik_input>  (313) 
Tz1DKFtDQEhdMTIpW0NIMl1DKFtDSDNdKShbQ0gzXSlbQ0gyXVtDQEhdKEMxPU8pW0NAQEhdKGMzW2NIXVtjSF1jKEYpW2NIXVtjSF0zKVtOSF1bQ0BIXTJjNFtjSF1bY0hdYyhGKVtjSF1bY0hdNA==

>  <s_epik_cmdline>  (313) 
J2VwaWtfcHl0aG9uJywgJy1waHQnLCAnMi4wJywgJy1waCcsICc3LjAnLCAnLXRuJywgJzgnLCAnLW1hJywgJzIwMCcsICctaW1hZScsICc8aW5maWxlLm1hZT4nLCAnLW9tYWUnLCAnPG91dGZpbGUubWFlPic=

>  <r_epik_Ionization_Penalty>  (313) 
0.283787

>  <r_epik_Ionization_Penalty_Charging>  (313) 
0

>  <r_epik_Ionization_Penalty_Neutral>  (313) 
0.283787

>  <r_epik_State_Penalty>  (313) 
0.352269

>  <r_epik_Charging_Adjusted_Penalty>  (313) 
0.352269

>  <i_epik_Tot_Q>  (313) 
0

>  <i_epik_Tot_abs_Q>  (313) 
0

>  <s_lp_Force_Field>  (313) 
OPLS3e

>  <r_lp_Energy>  (313) 
41.7583

>  <b_lp_Chiralities_Consistent>  (313) 
1

>  <s_lp_Variant>  (313) 
86:0-2

>  <s_i_glide_gridfile>  (313) 
pfpi4k_grid

>  <i_i_glide_lignum>  (313) 
41

>  <i_i_glide_rotatable_bonds>  (313) 
2

>  <r_i_docking_score>  (313) 
-2.95189

>  <r_i_glide_ligand_efficiency>  (313) 
-0.105425

>  <r_i_glide_ligand_efficiency_sa>  (313) 
-0.320132

>  <r_i_glide_ligand_efficiency_ln>  (313) 
-0.681384

>  <r_i_glide_gscore>  (313) 
-2.95189

>  <r_i_glide_lipo>  (313) 
-0.425949

>  <r_i_glide_hbond>  (313) 
0

>  <r_i_glide_metal>  (313) 
-0

>  <r_i_glide_rewards>  (313) 
-0.814467

>  <r_i_glide_evdw>  (313) 
-30.6162

>  <r_i_glide_ecoul>  (313) 
-2.45856

>  <r_i_glide_erotb>  (313) 
0.264347

>  <r_i_glide_esite>  (313) 
-0.0762289

>  <r_i_glide_emodel>  (313) 
-38.181

>  <r_i_glide_energy>  (313) 
-33.0748

>  <r_i_glide_einternal>  (313) 
1.66775

>  <r_i_glide_intrahb_reward>  (313) 
-0

>  <i_i_glide_confnum>  (313) 
3

>  <i_i_glide_posenum>  (313) 
4

>  <r_i_glide_eff_state_penalty>  (313) 
0

>  <ligand_id>  (313) 
86

>  <original_smiles>  (313) 
CC1(C)CC(=O)C2C(=O)C(C1)C(c1ccc(F)cc1)NC2c1ccc(F)cc1

>  <smiles>  (313) 
[H]c1c([H])c(C2([H])N([H])C([H])(c3c([H])c([H])c(F)c([H])c3[H])C3([H])C(=O)C2([H])C(=O)C([H])([H])C(C([H])([H])[H])(C([H])([H])[H])C3([H])[H])c([H])c([H])c1F

$$$$
86:1:1
     RDKit          3D

 51 54  0  0  1  0  0  0  0  0999 V2000
    6.7476   -5.8564    4.4280 C   0  0  0  0  0  0  0  0  0  0  0  0
    5.3573   -5.2674    4.0803 C   0  0  0  0  0  0  0  0  0  0  0  0
    4.8722   -4.5455    5.3574 C   0  0  0  0  0  0  0  0  0  0  0  0
    5.4121   -4.1870    2.9638 C   0  0  0  0  0  0  0  0  0  0  0  0
    6.1485   -4.5623    1.6656 C   0  0  0  0  0  0  0  0  0  0  0  0
    7.1659   -3.9643    1.3167 O   0  0  0  0  0  0  0  0  0  0  0  0
    5.5799   -5.6402    0.7446 C   0  0  1  0  0  0  0  0  0  0  0  0
    5.5158   -6.9421    1.5361 C   0  0  0  0  0  0  0  0  0  0  0  0
    6.4083   -7.7870    1.4885 O   0  0  0  0  0  0  0  0  0  0  0  0
    4.2764   -7.1249    2.4079 C   0  0  1  0  0  0  0  0  0  0  0  0
    4.3201   -6.3895    3.7819 C   0  0  0  0  0  0  0  0  0  0  0  0
    3.0234   -6.8162    1.5444 C   0  0  1  0  0  0  0  0  0  0  0  0
    1.7002   -7.1748    2.2226 C   0  0  0  0  0  0  0  0  0  0  0  0
    0.9990   -6.2464    3.0218 C   0  0  0  0  0  0  0  0  0  0  0  0
   -0.1855   -6.6244    3.6807 C   0  0  0  0  0  0  0  0  0  0  0  0
   -0.7057   -7.9203    3.5150 C   0  0  0  0  0  0  0  0  0  0  0  0
   -1.8699   -8.2532    4.1108 F   0  0  0  0  0  0  0  0  0  0  0  0
   -0.0224   -8.8521    2.7176 C   0  0  0  0  0  0  0  0  0  0  0  0
    1.1814   -8.4832    2.0831 C   0  0  0  0  0  0  0  0  0  0  0  0
    3.0776   -5.4564    0.9986 N   0  0  0  0  0  0  0  0  0  0  0  0
    4.2152   -5.3028    0.0855 C   0  0  1  0  0  0  0  0  0  0  0  0
    4.2384   -3.9438   -0.6157 C   0  0  0  0  0  0  0  0  0  0  0  0
    3.7691   -2.7628    0.0102 C   0  0  0  0  0  0  0  0  0  0  0  0
    3.8200   -1.5276   -0.6693 C   0  0  0  0  0  0  0  0  0  0  0  0
    4.3253   -1.4582   -1.9815 C   0  0  0  0  0  0  0  0  0  0  0  0
    4.3707   -0.2794   -2.6437 F   0  0  0  0  0  0  0  0  0  0  0  0
    4.7982   -2.6275   -2.6077 C   0  0  0  0  0  0  0  0  0  0  0  0
    4.7528   -3.8562   -1.9258 C   0  0  0  0  0  0  0  0  0  0  0  0
    7.4404   -5.0763    4.7452 H   0  0  0  0  0  0  0  0  0  0  0  0
    7.2186   -6.3824    3.5999 H   0  0  0  0  0  0  0  0  0  0  0  0
    6.6772   -6.5682    5.2519 H   0  0  0  0  0  0  0  0  0  0  0  0
    3.9051   -4.0610    5.2057 H   0  0  0  0  0  0  0  0  0  0  0  0
    5.5724   -3.7688    5.6722 H   0  0  0  0  0  0  0  0  0  0  0  0
    4.7605   -5.2401    6.1919 H   0  0  0  0  0  0  0  0  0  0  0  0
    4.4066   -3.8507    2.7155 H   0  0  0  0  0  0  0  0  0  0  0  0
    5.9123   -3.3019    3.3576 H   0  0  0  0  0  0  0  0  0  0  0  0
    6.3141   -5.7864   -0.0457 H   0  0  0  0  0  0  0  0  0  0  0  0
    4.2317   -8.1916    2.6291 H   0  0  0  0  0  0  0  0  0  0  0  0
    4.3837   -7.1480    4.5620 H   0  0  0  0  0  0  0  0  0  0  0  0
    3.3529   -5.9297    3.9445 H   0  0  0  0  0  0  0  0  0  0  0  0
    3.0739   -7.4808    0.6832 H   0  0  0  0  0  0  0  0  0  0  0  0
    1.3818   -5.2446    3.1539 H   0  0  0  0  0  0  0  0  0  0  0  0
   -0.7005   -5.9177    4.3116 H   0  0  0  0  0  0  0  0  0  0  0  0
   -0.4220   -9.8492    2.5924 H   0  0  0  0  0  0  0  0  0  0  0  0
    1.6955   -9.2143    1.4754 H   0  0  0  0  0  0  0  0  0  0  0  0
    2.2364   -5.2728    0.4743 H   0  0  0  0  0  0  0  0  0  0  0  0
    4.0755   -6.0401   -0.7081 H   0  0  0  0  0  0  0  0  0  0  0  0
    3.3723   -2.7923    1.0116 H   0  0  0  0  0  0  0  0  0  0  0  0
    3.4522   -0.6364   -0.1832 H   0  0  0  0  0  0  0  0  0  0  0  0
    5.1811   -2.5833   -3.6140 H   0  0  0  0  0  0  0  0  0  0  0  0
    5.1019   -4.7466   -2.4229 H   0  0  0  0  0  0  0  0  0  0  0  0
  1  2  1  0
  1 29  1  0
  1 30  1  0
  1 31  1  0
  2 11  1  0
  2  3  1  0
  2  4  1  0
  3 32  1  0
  3 33  1  0
  3 34  1  0
  4  5  1  0
  4 35  1  0
  4 36  1  0
  5  6  2  0
  5  7  1  0
  7 21  1  0
  7  8  1  0
  7 37  1  6
  8  9  2  0
  8 10  1  0
 10 11  1  0
 10 12  1  0
 10 38  1  1
 11 39  1  0
 11 40  1  0
 12 13  1  0
 12 20  1  0
 12 41  1  6
 13 19  1  0
 13 14  2  0
 14 15  1  0
 14 42  1  0
 15 16  2  0
 15 43  1  0
 16 17  1  0
 16 18  1  0
 18 19  2  0
 18 44  1  0
 19 45  1  0
 20 21  1  0
 20 46  1  0
 21 22  1  0
 21 47  1  6
 22 28  1  0
 22 23  2  0
 23 24  1  0
 23 48  1  0
 24 25  2  0
 24 49  1  0
 25 26  1  0
 25 27  1  0
 27 28  2  0
 27 50  1  0
 28 51  1  0
M  END
>  <i_m_ct_stereo_status>  (314) 
1

>  <s_m_source_file>  (314) 
/var/tmp/pbs.5076255.sched01/tmpo609hgx5/90rinj4u0e.sdf

>  <i_m_source_file_index>  (314) 
41

>  <i_lp_mmshare_version>  (314) 
48012

>  <i_f3d_flags>  (314) 
0

>  <s_epik_input>  (314) 
Tz1DKFtDQEhdMTIpW0NIMl1DKFtDSDNdKShbQ0gzXSlbQ0gyXVtDQEhdKEMxPU8pW0NAQEhdKGMzW2NIXVtjSF1jKEYpW2NIXVtjSF0zKVtOSF1bQ0BIXTJjNFtjSF1bY0hdYyhGKVtjSF1bY0hdNA==

>  <s_epik_cmdline>  (314) 
J2VwaWtfcHl0aG9uJywgJy1waHQnLCAnMi4wJywgJy1waCcsICc3LjAnLCAnLXRuJywgJzgnLCAnLW1hJywgJzIwMCcsICctaW1hZScsICc8aW5maWxlLm1hZT4nLCAnLW9tYWUnLCAnPG91dGZpbGUubWFlPic=

>  <r_epik_Ionization_Penalty>  (314) 
0.283787

>  <r_epik_Ionization_Penalty_Charging>  (314) 
0

>  <r_epik_Ionization_Penalty_Neutral>  (314) 
0.283787

>  <r_epik_State_Penalty>  (314) 
0.352269

>  <r_epik_Charging_Adjusted_Penalty>  (314) 
0.352269

>  <i_epik_Tot_Q>  (314) 
0

>  <i_epik_Tot_abs_Q>  (314) 
0

>  <s_lp_Force_Field>  (314) 
OPLS3e

>  <r_lp_Energy>  (314) 
41.7583

>  <b_lp_Chiralities_Consistent>  (314) 
1

>  <s_lp_Variant>  (314) 
86:0-2

>  <s_i_glide_gridfile>  (314) 
pfpi4k_grid

>  <i_i_glide_lignum>  (314) 
41

>  <i_i_glide_rotatable_bonds>  (314) 
2

>  <r_i_docking_score>  (314) 
-2.85975

>  <r_i_glide_ligand_efficiency>  (314) 
-0.102134

>  <r_i_glide_ligand_efficiency_sa>  (314) 
-0.310138

>  <r_i_glide_ligand_efficiency_ln>  (314) 
-0.660114

>  <r_i_glide_gscore>  (314) 
-2.85975

>  <r_i_glide_lipo>  (314) 
-0.300351

>  <r_i_glide_hbond>  (314) 
0

>  <r_i_glide_metal>  (314) 
-0

>  <r_i_glide_rewards>  (314) 
-1.15496

>  <r_i_glide_evdw>  (314) 
-27.868

>  <r_i_glide_ecoul>  (314) 
-1.16924

>  <r_i_glide_erotb>  (314) 
0.264347

>  <r_i_glide_esite>  (314) 
-0.1

>  <r_i_glide_emodel>  (314) 
-34.5128

>  <r_i_glide_energy>  (314) 
-29.0372

>  <r_i_glide_einternal>  (314) 
0.370441

>  <r_i_glide_intrahb_reward>  (314) 
-0

>  <i_i_glide_confnum>  (314) 
5

>  <i_i_glide_posenum>  (314) 
16

>  <r_i_glide_eff_state_penalty>  (314) 
0

>  <ligand_id>  (314) 
86

>  <original_smiles>  (314) 
CC1(C)CC(=O)C2C(=O)C(C1)C(c1ccc(F)cc1)NC2c1ccc(F)cc1

>  <smiles>  (314) 
[H]c1c([H])c(C2([H])N([H])C([H])(c3c([H])c([H])c(F)c([H])c3[H])C3([H])C(=O)C2([H])C(=O)C([H])([H])C(C([H])([H])[H])(C([H])([H])[H])C3([H])[H])c([H])c([H])c1F

$$$$
86:1:2
     RDKit          3D

 51 54  0  0  1  0  0  0  0  0999 V2000
    6.6265   -9.2899    5.2833 C   0  0  0  0  0  0  0  0  0  0  0  0
    5.5235   -8.2505    4.9610 C   0  0  0  0  0  0  0  0  0  0  0  0
    4.9180   -7.8381    6.3211 C   0  0  0  0  0  0  0  0  0  0  0  0
    6.0931   -6.9526    4.3316 C   0  0  0  0  0  0  0  0  0  0  0  0
    7.0186   -7.1287    3.1253 C   0  0  0  0  0  0  0  0  0  0  0  0
    8.1999   -6.7975    3.2093 O   0  0  0  0  0  0  0  0  0  0  0  0
    6.4729   -7.6617    1.7940 C   0  0  1  0  0  0  0  0  0  0  0  0
    5.9384   -9.0639    2.0394 C   0  0  0  0  0  0  0  0  0  0  0  0
    6.6093  -10.0716    1.8134 O   0  0  0  0  0  0  0  0  0  0  0  0
    4.5168   -9.1416    2.5884 C   0  0  1  0  0  0  0  0  0  0  0  0
    4.3656   -8.8698    4.1209 C   0  0  0  0  0  0  0  0  0  0  0  0
    3.5853   -8.2623    1.7073 C   0  0  1  0  0  0  0  0  0  0  0  0
    2.0841   -8.3686    2.0323 C   0  0  0  0  0  0  0  0  0  0  0  0
    1.5509   -9.5385    2.6317 C   0  0  0  0  0  0  0  0  0  0  0  0
    0.1756   -9.6509    2.9110 C   0  0  0  0  0  0  0  0  0  0  0  0
   -0.6963   -8.6047    2.5649 C   0  0  0  0  0  0  0  0  0  0  0  0
   -2.0208   -8.7045    2.8185 F   0  0  0  0  0  0  0  0  0  0  0  0
   -0.1892   -7.4483    1.9477 C   0  0  0  0  0  0  0  0  0  0  0  0
    1.1876   -7.3304    1.6796 C   0  0  0  0  0  0  0  0  0  0  0  0
    4.0825   -6.8815    1.7151 N   0  0  0  0  0  0  0  0  0  0  0  0
    5.4048   -6.7645    1.0985 C   0  0  1  0  0  0  0  0  0  0  0  0
    5.8875   -5.3138    0.9288 C   0  0  0  0  0  0  0  0  0  0  0  0
    5.0518   -4.2010    1.2092 C   0  0  0  0  0  0  0  0  0  0  0  0
    5.5330   -2.8872    1.0403 C   0  0  0  0  0  0  0  0  0  0  0  0
    6.8459   -2.6675    0.5891 C   0  0  0  0  0  0  0  0  0  0  0  0
    7.3063   -1.4088    0.4194 F   0  0  0  0  0  0  0  0  0  0  0  0
    7.6852   -3.7565    0.3118 C   0  0  0  0  0  0  0  0  0  0  0  0
    7.2065   -5.0682    0.4860 C   0  0  0  0  0  0  0  0  0  0  0  0
    7.3849   -8.8653    5.9428 H   0  0  0  0  0  0  0  0  0  0  0  0
    7.1501   -9.6602    4.4047 H   0  0  0  0  0  0  0  0  0  0  0  0
    6.2078  -10.1611    5.7897 H   0  0  0  0  0  0  0  0  0  0  0  0
    4.1471   -7.0731    6.2017 H   0  0  0  0  0  0  0  0  0  0  0  0
    5.6781   -7.4287    6.9910 H   0  0  0  0  0  0  0  0  0  0  0  0
    4.4600   -8.6904    6.8294 H   0  0  0  0  0  0  0  0  0  0  0  0
    5.2843   -6.2742    4.0594 H   0  0  0  0  0  0  0  0  0  0  0  0
    6.6832   -6.4287    5.0839 H   0  0  0  0  0  0  0  0  0  0  0  0
    7.3214   -7.7893    1.1244 H   0  0  0  0  0  0  0  0  0  0  0  0
    4.2276  -10.1761    2.4134 H   0  0  0  0  0  0  0  0  0  0  0  0
    4.0674   -9.8080    4.5916 H   0  0  0  0  0  0  0  0  0  0  0  0
    3.5008   -8.2178    4.2592 H   0  0  0  0  0  0  0  0  0  0  0  0
    3.6647   -8.6231    0.6806 H   0  0  0  0  0  0  0  0  0  0  0  0
    2.1804  -10.3754    2.8939 H   0  0  0  0  0  0  0  0  0  0  0  0
   -0.2020  -10.5476    3.3838 H   0  0  0  0  0  0  0  0  0  0  0  0
   -0.8657   -6.6621    1.6609 H   0  0  0  0  0  0  0  0  0  0  0  0
    1.5434   -6.4417    1.1861 H   0  0  0  0  0  0  0  0  0  0  0  0
    3.4400   -6.3040    1.1957 H   0  0  0  0  0  0  0  0  0  0  0  0
    5.2782   -7.1298    0.0820 H   0  0  0  0  0  0  0  0  0  0  0  0
    4.0382   -4.3312    1.5521 H   0  0  0  0  0  0  0  0  0  0  0  0
    4.8872   -2.0491    1.2520 H   0  0  0  0  0  0  0  0  0  0  0  0
    8.6936   -3.5925   -0.0297 H   0  0  0  0  0  0  0  0  0  0  0  0
    7.8684   -5.8892    0.2580 H   0  0  0  0  0  0  0  0  0  0  0  0
  1  2  1  0
  1 29  1  0
  1 30  1  0
  1 31  1  0
  2 11  1  0
  2  3  1  0
  2  4  1  0
  3 32  1  0
  3 33  1  0
  3 34  1  0
  4  5  1  0
  4 35  1  0
  4 36  1  0
  5  6  2  0
  5  7  1  0
  7 21  1  0
  7  8  1  0
  7 37  1  6
  8  9  2  0
  8 10  1  0
 10 11  1  0
 10 12  1  0
 10 38  1  1
 11 39  1  0
 11 40  1  0
 12 13  1  0
 12 20  1  0
 12 41  1  6
 13 19  1  0
 13 14  2  0
 14 15  1  0
 14 42  1  0
 15 16  2  0
 15 43  1  0
 16 17  1  0
 16 18  1  0
 18 19  2  0
 18 44  1  0
 19 45  1  0
 20 21  1  0
 20 46  1  0
 21 22  1  0
 21 47  1  6
 22 28  1  0
 22 23  2  0
 23 24  1  0
 23 48  1  0
 24 25  2  0
 24 49  1  0
 25 26  1  0
 25 27  1  0
 27 28  2  0
 27 50  1  0
 28 51  1  0
M  END
>  <i_m_ct_stereo_status>  (315) 
1

>  <s_m_source_file>  (315) 
/var/tmp/pbs.5076255.sched01/tmpo609hgx5/90rinj4u0e.sdf

>  <i_m_source_file_index>  (315) 
41

>  <i_lp_mmshare_version>  (315) 
48012

>  <i_f3d_flags>  (315) 
0

>  <s_epik_input>  (315) 
Tz1DKFtDQEhdMTIpW0NIMl1DKFtDSDNdKShbQ0gzXSlbQ0gyXVtDQEhdKEMxPU8pW0NAQEhdKGMzW2NIXVtjSF1jKEYpW2NIXVtjSF0zKVtOSF1bQ0BIXTJjNFtjSF1bY0hdYyhGKVtjSF1bY0hdNA==

>  <s_epik_cmdline>  (315) 
J2VwaWtfcHl0aG9uJywgJy1waHQnLCAnMi4wJywgJy1waCcsICc3LjAnLCAnLXRuJywgJzgnLCAnLW1hJywgJzIwMCcsICctaW1hZScsICc8aW5maWxlLm1hZT4nLCAnLW9tYWUnLCAnPG91dGZpbGUubWFlPic=

>  <r_epik_Ionization_Penalty>  (315) 
0.283787

>  <r_epik_Ionization_Penalty_Charging>  (315) 
0

>  <r_epik_Ionization_Penalty_Neutral>  (315) 
0.283787

>  <r_epik_State_Penalty>  (315) 
0.352269

>  <r_epik_Charging_Adjusted_Penalty>  (315) 
0.352269

>  <i_epik_Tot_Q>  (315) 
0

>  <i_epik_Tot_abs_Q>  (315) 
0

>  <s_lp_Force_Field>  (315) 
OPLS3e

>  <r_lp_Energy>  (315) 
41.7583

>  <b_lp_Chiralities_Consistent>  (315) 
1

>  <s_lp_Variant>  (315) 
86:0-2

>  <s_i_glide_gridfile>  (315) 
pfpi4k_grid

>  <i_i_glide_lignum>  (315) 
41

>  <i_i_glide_rotatable_bonds>  (315) 
2

>  <r_i_docking_score>  (315) 
-2.84243

>  <r_i_glide_ligand_efficiency>  (315) 
-0.101515

>  <r_i_glide_ligand_efficiency_sa>  (315) 
-0.308261

>  <r_i_glide_ligand_efficiency_ln>  (315) 
-0.656117

>  <r_i_glide_gscore>  (315) 
-2.84243

>  <r_i_glide_lipo>  (315) 
-0.82455

>  <r_i_glide_hbond>  (315) 
0

>  <r_i_glide_metal>  (315) 
-0

>  <r_i_glide_rewards>  (315) 
-0.83239

>  <r_i_glide_evdw>  (315) 
-29.5334

>  <r_i_glide_ecoul>  (315) 
0.46938

>  <r_i_glide_erotb>  (315) 
0.264347

>  <r_i_glide_esite>  (315) 
-0.0435774

>  <r_i_glide_emodel>  (315) 
-33.584

>  <r_i_glide_energy>  (315) 
-29.064

>  <r_i_glide_einternal>  (315) 
2.3996

>  <r_i_glide_intrahb_reward>  (315) 
-0

>  <i_i_glide_confnum>  (315) 
3

>  <i_i_glide_posenum>  (315) 
11

>  <r_i_glide_eff_state_penalty>  (315) 
0

>  <ligand_id>  (315) 
86

>  <original_smiles>  (315) 
CC1(C)CC(=O)C2C(=O)C(C1)C(c1ccc(F)cc1)NC2c1ccc(F)cc1

>  <smiles>  (315) 
[H]c1c([H])c(C2([H])N([H])C([H])(c3c([H])c([H])c(F)c([H])c3[H])C3([H])C(=O)C2([H])C(=O)C([H])([H])C(C([H])([H])[H])(C([H])([H])[H])C3([H])[H])c([H])c([H])c1F

$$$$
86:2:0
     RDKit          3D

 51 54  0  0  1  0  0  0  0  0999 V2000
    4.3024   -5.0081    3.4779 C   0  0  0  0  0  0  0  0  0  0  0  0
    3.7866   -3.5907    3.1445 C   0  0  0  0  0  0  0  0  0  0  0  0
    2.4092   -3.8050    2.4919 C   0  0  0  0  0  0  0  0  0  0  0  0
    3.5937   -2.8157    4.4908 C   0  0  0  0  0  0  0  0  0  0  0  0
    2.8117   -1.5097    4.3110 C   0  0  0  0  0  0  0  0  0  0  0  0
    1.6290   -1.6852    4.7018 O   0  0  0  0  0  0  0  0  0  0  0  0
    3.4323   -0.5168    3.5619 C   0  0  0  0  0  0  0  0  0  0  0  0
    4.8286   -0.6519    3.1244 C   0  0  0  0  0  0  0  0  0  0  0  0
    5.8225   -0.1840    3.6742 O   0  0  0  0  0  0  0  0  0  0  0  0
    4.9249   -1.4299    1.8318 C   0  0  1  0  0  0  0  0  0  0  0  0
    4.8225   -2.9622    2.1306 C   0  0  0  0  0  0  0  0  0  0  0  0
    3.9970   -0.7551    0.7685 C   0  0  1  0  0  0  0  0  0  0  0  0
    3.8670   -1.5160   -0.5503 C   0  0  0  0  0  0  0  0  0  0  0  0
    3.0184   -2.6448   -0.6706 C   0  0  0  0  0  0  0  0  0  0  0  0
    2.9045   -3.3501   -1.8771 C   0  0  0  0  0  0  0  0  0  0  0  0
    3.6337   -2.9424   -3.0029 C   0  0  0  0  0  0  0  0  0  0  0  0
    3.5369   -3.6023   -4.1780 F   0  0  0  0  0  0  0  0  0  0  0  0
    4.4602   -1.8103   -2.9064 C   0  0  0  0  0  0  0  0  0  0  0  0
    4.5867   -1.1107   -1.6863 C   0  0  0  0  0  0  0  0  0  0  0  0
    2.6784   -0.2597    1.3008 N   0  0  0  0  0  0  0  0  0  0  0  0
    2.7087    0.4535    2.6277 C   0  0  1  0  0  0  0  0  0  0  0  0
    1.3164    0.9572    3.0347 C   0  0  0  0  0  0  0  0  0  0  0  0
    1.0807    1.4475    4.3422 C   0  0  0  0  0  0  0  0  0  0  0  0
   -0.2053    1.9096    4.7111 C   0  0  0  0  0  0  0  0  0  0  0  0
   -1.2582    1.9005    3.7802 C   0  0  0  0  0  0  0  0  0  0  0  0
   -2.4829    2.3489    4.1310 F   0  0  0  0  0  0  0  0  0  0  0  0
   -1.0272    1.4235    2.4821 C   0  0  0  0  0  0  0  0  0  0  0  0
    0.2461    0.9687    2.1077 C   0  0  0  0  0  0  0  0  0  0  0  0
    3.6028   -5.5545    4.1083 H   0  0  0  0  0  0  0  0  0  0  0  0
    5.2598   -4.9862    3.9937 H   0  0  0  0  0  0  0  0  0  0  0  0
    4.4362   -5.6017    2.5744 H   0  0  0  0  0  0  0  0  0  0  0  0
    1.9624   -2.8586    2.1974 H   0  0  0  0  0  0  0  0  0  0  0  0
    1.6996   -4.2763    3.1743 H   0  0  0  0  0  0  0  0  0  0  0  0
    2.4982   -4.4661    1.6331 H   0  0  0  0  0  0  0  0  0  0  0  0
    3.0568   -3.4596    5.1852 H   0  0  0  0  0  0  0  0  0  0  0  0
    4.5500   -2.6265    4.9757 H   0  0  0  0  0  0  0  0  0  0  0  0
    5.9336   -1.2745    1.4498 H   0  0  0  0  0  0  0  0  0  0  0  0
    5.8163   -3.2361    2.4942 H   0  0  0  0  0  0  0  0  0  0  0  0
    4.7607   -3.5024    1.1867 H   0  0  0  0  0  0  0  0  0  0  0  0
    4.5014    0.1808    0.5258 H   0  0  0  0  0  0  0  0  0  0  0  0
    2.3750   -2.9300    0.1346 H   0  0  0  0  0  0  0  0  0  0  0  0
    2.2386   -4.2061   -1.9239 H   0  0  0  0  0  0  0  0  0  0  0  0
    4.9904   -1.4819   -3.7829 H   0  0  0  0  0  0  0  0  0  0  0  0
    5.2406   -0.2499   -1.6379 H   0  0  0  0  0  0  0  0  0  0  0  0
    2.2750    0.3518    0.6046 H   0  0  0  0  0  0  0  0  0  0  0  0
    3.3231    1.3471    2.5031 H   0  0  0  0  0  0  0  0  0  0  0  0
    1.8814    1.4616    5.0720 H   0  0  0  0  0  0  0  0  0  0  0  0
   -0.3907    2.2672    5.7138 H   0  0  0  0  0  0  0  0  0  0  0  0
   -1.8202    1.4044    1.7492 H   0  0  0  0  0  0  0  0  0  0  0  0
    0.3486    0.6421    1.0810 H   0  0  0  0  0  0  0  0  0  0  0  0
    2.0606   -1.0576    1.4036 H   0  0  0  0  0  0  0  0  0  0  0  0
  1  2  1  0
  1 29  1  0
  1 30  1  0
  1 31  1  0
  2 11  1  0
  2  3  1  0
  2  4  1  0
  3 32  1  0
  3 33  1  0
  3 34  1  0
  4  5  1  0
  4 35  1  0
  4 36  1  0
  5  6  1  0
  5  7  2  0
  7 21  1  0
  7  8  1  0
  8  9  2  0
  8 10  1  0
 10 11  1  0
 10 12  1  0
 10 37  1  6
 11 38  1  0
 11 39  1  0
 12 13  1  0
 12 20  1  0
 12 40  1  6
 13 19  1  0
 13 14  2  0
 14 15  1  0
 14 41  1  0
 15 16  2  0
 15 42  1  0
 16 17  1  0
 16 18  1  0
 18 19  2  0
 18 43  1  0
 19 44  1  0
 20 21  1  0
 20 45  1  0
 20 51  1  0
 21 22  1  0
 21 46  1  6
 22 28  1  0
 22 23  2  0
 23 24  1  0
 23 47  1  0
 24 25  2  0
 24 48  1  0
 25 26  1  0
 25 27  1  0
 27 28  2  0
 27 49  1  0
 28 50  1  0
M  CHG  2   6  -1  20   1
M  END
>  <i_m_ct_stereo_status>  (316) 
1

>  <s_m_source_file>  (316) 
/var/tmp/pbs.5076255.sched01/tmpo609hgx5/90rinj4u0e.sdf

>  <i_m_source_file_index>  (316) 
42

>  <i_lp_mmshare_version>  (316) 
48012

>  <i_f3d_flags>  (316) 
0

>  <s_epik_input>  (316) 
Tz1DKFtDQEhdMTIpW0NIMl1DKFtDSDNdKShbQ0gzXSlbQ0gyXVtDQEhdKEMxPU8pW0NAQEhdKGMzW2NIXVtjSF1jKEYpW2NIXVtjSF0zKVtOSF1bQ0BIXTJjNFtjSF1bY0hdYyhGKVtjSF1bY0hdNA==

>  <s_epik_cmdline>  (316) 
J2VwaWtfcHl0aG9uJywgJy1waHQnLCAnMi4wJywgJy1waCcsICc3LjAnLCAnLXRuJywgJzgnLCAnLW1hJywgJzIwMCcsICctaW1hZScsICc8aW5maWxlLm1hZT4nLCAnLW9tYWUnLCAnPG91dGZpbGUubWFlPic=

>  <r_epik_Ionization_Penalty>  (316) 
0.0613206

>  <r_epik_Ionization_Penalty_Charging>  (316) 
0.0613206

>  <r_epik_Ionization_Penalty_Neutral>  (316) 
0

>  <r_epik_State_Penalty>  (316) 
0.700501

>  <r_epik_Charging_Adjusted_Penalty>  (316) 
0.761822

>  <i_epik_Tot_Q>  (316) 
0

>  <i_epik_Tot_abs_Q>  (316) 
2

>  <s_lp_Force_Field>  (316) 
OPLS3e

>  <r_lp_Energy>  (316) 
51.3592

>  <b_lp_Chiralities_Consistent>  (316) 
1

>  <s_lp_Variant>  (316) 
86:0-3

>  <s_i_glide_gridfile>  (316) 
pfpi4k_grid

>  <i_i_glide_lignum>  (316) 
42

>  <i_i_glide_rotatable_bonds>  (316) 
2

>  <r_i_docking_score>  (316) 
-3.31999

>  <r_i_glide_ligand_efficiency>  (316) 
-0.118571

>  <r_i_glide_ligand_efficiency_sa>  (316) 
-0.360052

>  <r_i_glide_ligand_efficiency_ln>  (316) 
-0.766352

>  <r_i_glide_gscore>  (316) 
-3.31999

>  <r_i_glide_lipo>  (316) 
-0.305835

>  <r_i_glide_hbond>  (316) 
0

>  <r_i_glide_metal>  (316) 
-0

>  <r_i_glide_rewards>  (316) 
-1.23505

>  <r_i_glide_evdw>  (316) 
-28.477

>  <r_i_glide_ecoul>  (316) 
-3.45051

>  <r_i_glide_erotb>  (316) 
0.264347

>  <r_i_glide_esite>  (316) 
-0.102034

>  <r_i_glide_emodel>  (316) 
-38.6103

>  <r_i_glide_energy>  (316) 
-31.9275

>  <r_i_glide_einternal>  (316) 
1.95114

>  <r_i_glide_intrahb_reward>  (316) 
-0

>  <i_i_glide_confnum>  (316) 
3

>  <i_i_glide_posenum>  (316) 
33

>  <r_i_glide_eff_state_penalty>  (316) 
0

>  <ligand_id>  (316) 
86

>  <original_smiles>  (316) 
CC1(C)CC(=O)C2C(=O)C(C1)C(c1ccc(F)cc1)NC2c1ccc(F)cc1

>  <smiles>  (316) 
[H]c1c([H])c(C2([H])C3=C([O-])C([H])([H])C(C([H])([H])[H])(C([H])([H])[H])C([H])([H])C([H])(C3=O)C([H])(c3c([H])c([H])c(F)c([H])c3[H])[N+]2([H])[H])c([H])c([H])c1F

$$$$
86:2:1
     RDKit          3D

 51 54  0  0  1  0  0  0  0  0999 V2000
    4.3812    0.2636    6.8783 C   0  0  0  0  0  0  0  0  0  0  0  0
    3.8570   -0.1944    5.4984 C   0  0  0  0  0  0  0  0  0  0  0  0
    4.3025    0.8985    4.5127 C   0  0  0  0  0  0  0  0  0  0  0  0
    4.5765   -1.5401    5.1221 C   0  0  0  0  0  0  0  0  0  0  0  0
    4.3548   -1.9359    3.6528 C   0  0  0  0  0  0  0  0  0  0  0  0
    5.3975   -1.6713    3.0041 O   0  0  0  0  0  0  0  0  0  0  0  0
    3.0439   -2.2544    3.3001 C   0  0  0  0  0  0  0  0  0  0  0  0
    1.9910   -2.3759    4.2938 C   0  0  0  0  0  0  0  0  0  0  0  0
    1.5905   -3.4169    4.8137 O   0  0  0  0  0  0  0  0  0  0  0  0
    1.3756   -1.0393    4.5935 C   0  0  1  0  0  0  0  0  0  0  0  0
    2.2809   -0.2650    5.6130 C   0  0  0  0  0  0  0  0  0  0  0  0
    0.9110   -0.3838    3.2445 C   0  0  1  0  0  0  0  0  0  0  0  0
    0.3901    1.0480    3.3781 C   0  0  0  0  0  0  0  0  0  0  0  0
    1.2688    2.1477    3.4803 C   0  0  0  0  0  0  0  0  0  0  0  0
    0.7984    3.4577    3.6736 C   0  0  0  0  0  0  0  0  0  0  0  0
   -0.5845    3.7028    3.6819 C   0  0  0  0  0  0  0  0  0  0  0  0
   -1.0526    4.9623    3.8351 F   0  0  0  0  0  0  0  0  0  0  0  0
   -1.4836    2.6297    3.5405 C   0  0  0  0  0  0  0  0  0  0  0  0
   -1.0013    1.3064    3.4020 C   0  0  0  0  0  0  0  0  0  0  0  0
    1.8240   -0.5673    2.0710 N   0  0  0  0  0  0  0  0  0  0  0  0
    2.4330   -1.9253    1.9524 C   0  0  1  0  0  0  0  0  0  0  0  0
    3.3211   -2.0645    0.7114 C   0  0  0  0  0  0  0  0  0  0  0  0
    4.0630   -0.9651    0.2035 C   0  0  0  0  0  0  0  0  0  0  0  0
    4.8557   -1.1012   -0.9522 C   0  0  0  0  0  0  0  0  0  0  0  0
    4.9244   -2.3441   -1.6096 C   0  0  0  0  0  0  0  0  0  0  0  0
    5.6993   -2.4921   -2.7070 F   0  0  0  0  0  0  0  0  0  0  0  0
    4.1944   -3.4405   -1.1265 C   0  0  0  0  0  0  0  0  0  0  0  0
    3.3935   -3.3040    0.0280 C   0  0  0  0  0  0  0  0  0  0  0  0
    5.4589    0.4251    6.8660 H   0  0  0  0  0  0  0  0  0  0  0  0
    4.1671   -0.4626    7.6609 H   0  0  0  0  0  0  0  0  0  0  0  0
    3.9263    1.2070    7.1785 H   0  0  0  0  0  0  0  0  0  0  0  0
    3.9618    0.6851    3.5021 H   0  0  0  0  0  0  0  0  0  0  0  0
    5.3885    0.9742    4.4563 H   0  0  0  0  0  0  0  0  0  0  0  0
    3.9410    1.8733    4.8334 H   0  0  0  0  0  0  0  0  0  0  0  0
    5.6474   -1.4159    5.3131 H   0  0  0  0  0  0  0  0  0  0  0  0
    4.2695   -2.3451    5.7974 H   0  0  0  0  0  0  0  0  0  0  0  0
    0.4555   -1.2458    5.1445 H   0  0  0  0  0  0  0  0  0  0  0  0
    2.0657   -0.7187    6.5855 H   0  0  0  0  0  0  0  0  0  0  0  0
    1.8939    0.7456    5.7312 H   0  0  0  0  0  0  0  0  0  0  0  0
    0.0467   -0.9779    2.9669 H   0  0  0  0  0  0  0  0  0  0  0  0
    2.3260    2.0092    3.4063 H   0  0  0  0  0  0  0  0  0  0  0  0
    1.5065    4.2678    3.7709 H   0  0  0  0  0  0  0  0  0  0  0  0
   -2.5512    2.8161    3.5403 H   0  0  0  0  0  0  0  0  0  0  0  0
   -1.7181    0.4989    3.3022 H   0  0  0  0  0  0  0  0  0  0  0  0
    1.3348   -0.3667    1.2090 H   0  0  0  0  0  0  0  0  0  0  0  0
    1.6089   -2.6094    1.7819 H   0  0  0  0  0  0  0  0  0  0  0  0
    4.0350   -0.0051    0.7037 H   0  0  0  0  0  0  0  0  0  0  0  0
    5.4056   -0.2568   -1.3281 H   0  0  0  0  0  0  0  0  0  0  0  0
    4.2515   -4.3913   -1.6430 H   0  0  0  0  0  0  0  0  0  0  0  0
    2.8442   -4.1621    0.3896 H   0  0  0  0  0  0  0  0  0  0  0  0
    2.5878    0.0762    2.1811 H   0  0  0  0  0  0  0  0  0  0  0  0
  1  2  1  0
  1 29  1  0
  1 30  1  0
  1 31  1  0
  2 11  1  0
  2  3  1  0
  2  4  1  0
  3 32  1  0
  3 33  1  0
  3 34  1  0
  4  5  1  0
  4 35  1  0
  4 36  1  0
  5  6  1  0
  5  7  2  0
  7 21  1  0
  7  8  1  0
  8  9  2  0
  8 10  1  0
 10 11  1  0
 10 12  1  0
 10 37  1  1
 11 38  1  0
 11 39  1  0
 12 13  1  0
 12 20  1  0
 12 40  1  6
 13 19  1  0
 13 14  2  0
 14 15  1  0
 14 41  1  0
 15 16  2  0
 15 42  1  0
 16 17  1  0
 16 18  1  0
 18 19  2  0
 18 43  1  0
 19 44  1  0
 20 21  1  0
 20 45  1  0
 20 51  1  0
 21 22  1  0
 21 46  1  6
 22 28  1  0
 22 23  2  0
 23 24  1  0
 23 47  1  0
 24 25  2  0
 24 48  1  0
 25 26  1  0
 25 27  1  0
 27 28  2  0
 27 49  1  0
 28 50  1  0
M  CHG  2   6  -1  20   1
M  END
>  <i_m_ct_stereo_status>  (317) 
1

>  <s_m_source_file>  (317) 
/var/tmp/pbs.5076255.sched01/tmpo609hgx5/90rinj4u0e.sdf

>  <i_m_source_file_index>  (317) 
42

>  <i_lp_mmshare_version>  (317) 
48012

>  <i_f3d_flags>  (317) 
0

>  <s_epik_input>  (317) 
Tz1DKFtDQEhdMTIpW0NIMl1DKFtDSDNdKShbQ0gzXSlbQ0gyXVtDQEhdKEMxPU8pW0NAQEhdKGMzW2NIXVtjSF1jKEYpW2NIXVtjSF0zKVtOSF1bQ0BIXTJjNFtjSF1bY0hdYyhGKVtjSF1bY0hdNA==

>  <s_epik_cmdline>  (317) 
J2VwaWtfcHl0aG9uJywgJy1waHQnLCAnMi4wJywgJy1waCcsICc3LjAnLCAnLXRuJywgJzgnLCAnLW1hJywgJzIwMCcsICctaW1hZScsICc8aW5maWxlLm1hZT4nLCAnLW9tYWUnLCAnPG91dGZpbGUubWFlPic=

>  <r_epik_Ionization_Penalty>  (317) 
0.0613206

>  <r_epik_Ionization_Penalty_Charging>  (317) 
0.0613206

>  <r_epik_Ionization_Penalty_Neutral>  (317) 
0

>  <r_epik_State_Penalty>  (317) 
0.700501

>  <r_epik_Charging_Adjusted_Penalty>  (317) 
0.761822

>  <i_epik_Tot_Q>  (317) 
0

>  <i_epik_Tot_abs_Q>  (317) 
2

>  <s_lp_Force_Field>  (317) 
OPLS3e

>  <r_lp_Energy>  (317) 
51.3592

>  <b_lp_Chiralities_Consistent>  (317) 
1

>  <s_lp_Variant>  (317) 
86:0-3

>  <s_i_glide_gridfile>  (317) 
pfpi4k_grid

>  <i_i_glide_lignum>  (317) 
42

>  <i_i_glide_rotatable_bonds>  (317) 
2

>  <r_i_docking_score>  (317) 
-2.98892

>  <r_i_glide_ligand_efficiency>  (317) 
-0.106747

>  <r_i_glide_ligand_efficiency_sa>  (317) 
-0.324147

>  <r_i_glide_ligand_efficiency_ln>  (317) 
-0.68993

>  <r_i_glide_gscore>  (317) 
-2.98892

>  <r_i_glide_lipo>  (317) 
-0.0468252

>  <r_i_glide_hbond>  (317) 
-0.136228

>  <r_i_glide_metal>  (317) 
-0

>  <r_i_glide_rewards>  (317) 
-0.866431

>  <r_i_glide_evdw>  (317) 
-23.9496

>  <r_i_glide_ecoul>  (317) 
-5.65145

>  <r_i_glide_erotb>  (317) 
0.264347

>  <r_i_glide_esite>  (317) 
-0.158586

>  <r_i_glide_emodel>  (317) 
-36.5975

>  <r_i_glide_energy>  (317) 
-29.601

>  <r_i_glide_einternal>  (317) 
0.0303195

>  <r_i_glide_intrahb_reward>  (317) 
-0

>  <i_i_glide_confnum>  (317) 
1

>  <i_i_glide_posenum>  (317) 
2

>  <r_i_glide_eff_state_penalty>  (317) 
0

>  <ligand_id>  (317) 
86

>  <original_smiles>  (317) 
CC1(C)CC(=O)C2C(=O)C(C1)C(c1ccc(F)cc1)NC2c1ccc(F)cc1

>  <smiles>  (317) 
[H]c1c([H])c(C2([H])C3=C([O-])C([H])([H])C(C([H])([H])[H])(C([H])([H])[H])C([H])([H])C([H])(C3=O)C([H])(c3c([H])c([H])c(F)c([H])c3[H])[N+]2([H])[H])c([H])c([H])c1F

$$$$
86:2:2
     RDKit          3D

 51 54  0  0  1  0  0  0  0  0999 V2000
    3.1501   -0.1763    7.4490 C   0  0  0  0  0  0  0  0  0  0  0  0
    2.9328   -0.4024    5.9338 C   0  0  0  0  0  0  0  0  0  0  0  0
    3.7364    0.7009    5.2198 C   0  0  0  0  0  0  0  0  0  0  0  0
    3.5355   -1.8098    5.5739 C   0  0  0  0  0  0  0  0  0  0  0  0
    3.6426   -2.0408    4.0551 C   0  0  0  0  0  0  0  0  0  0  0  0
    4.8438   -1.9138    3.7125 O   0  0  0  0  0  0  0  0  0  0  0  0
    2.4484   -2.0934    3.3513 C   0  0  0  0  0  0  0  0  0  0  0  0
    1.1679   -2.1354    4.0394 C   0  0  0  0  0  0  0  0  0  0  0  0
    0.5283   -3.1462    4.3344 O   0  0  0  0  0  0  0  0  0  0  0  0
    0.6765   -0.7526    4.3636 C   0  0  1  0  0  0  0  0  0  0  0  0
    1.3869   -0.2271    5.6592 C   0  0  0  0  0  0  0  0  0  0  0  0
    0.6599    0.1003    3.0427 C   0  0  1  0  0  0  0  0  0  0  0  0
    0.3385    1.5796    3.2649 C   0  0  0  0  0  0  0  0  0  0  0  0
    1.3542    2.5228    3.5332 C   0  0  0  0  0  0  0  0  0  0  0  0
    1.0395    3.8751    3.7579 C   0  0  0  0  0  0  0  0  0  0  0  0
   -0.2955    4.2997    3.6904 C   0  0  0  0  0  0  0  0  0  0  0  0
   -0.5812    5.6073    3.8906 F   0  0  0  0  0  0  0  0  0  0  0  0
   -1.3182    3.3812    3.4079 C   0  0  0  0  0  0  0  0  0  0  0  0
   -1.0036    2.0222    3.1973 C   0  0  0  0  0  0  0  0  0  0  0  0
    1.8014   -0.1303    2.0981 N   0  0  0  0  0  0  0  0  0  0  0  0
    2.2434   -1.5508    1.9346 C   0  0  1  0  0  0  0  0  0  0  0  0
    3.4086   -1.6691    0.9460 C   0  0  0  0  0  0  0  0  0  0  0  0
    3.4646   -2.7278    0.0041 C   0  0  0  0  0  0  0  0  0  0  0  0
    4.5488   -2.8204   -0.8946 C   0  0  0  0  0  0  0  0  0  0  0  0
    5.5684   -1.8610   -0.8597 C   0  0  0  0  0  0  0  0  0  0  0  0
    6.6086   -1.9502   -1.7224 F   0  0  0  0  0  0  0  0  0  0  0  0
    5.5222   -0.8069    0.0670 C   0  0  0  0  0  0  0  0  0  0  0  0
    4.4412   -0.7051    0.9560 C   0  0  0  0  0  0  0  0  0  0  0  0
    4.2071   -0.1988    7.7160 H   0  0  0  0  0  0  0  0  0  0  0  0
    2.6506   -0.9327    8.0539 H   0  0  0  0  0  0  0  0  0  0  0  0
    2.7679    0.7933    7.7652 H   0  0  0  0  0  0  0  0  0  0  0  0
    3.6439    0.6234    4.1395 H   0  0  0  0  0  0  0  0  0  0  0  0
    4.8013    0.6288    5.4425 H   0  0  0  0  0  0  0  0  0  0  0  0
    3.4077    1.6921    5.5314 H   0  0  0  0  0  0  0  0  0  0  0  0
    4.5272   -1.8846    6.0219 H   0  0  0  0  0  0  0  0  0  0  0  0
    2.9656   -2.6142    6.0459 H   0  0  0  0  0  0  0  0  0  0  0  0
   -0.3720   -0.8574    4.6470 H   0  0  0  0  0  0  0  0  0  0  0  0
    0.8733   -0.7246    6.4842 H   0  0  0  0  0  0  0  0  0  0  0  0
    1.1282    0.8202    5.8002 H   0  0  0  0  0  0  0  0  0  0  0  0
   -0.1884   -0.2787    2.4742 H   0  0  0  0  0  0  0  0  0  0  0  0
    2.3902    2.2333    3.5640 H   0  0  0  0  0  0  0  0  0  0  0  0
    1.8277    4.5800    3.9683 H   0  0  0  0  0  0  0  0  0  0  0  0
   -2.3418    3.7098    3.3398 H   0  0  0  0  0  0  0  0  0  0  0  0
   -1.7992    1.3250    2.9778 H   0  0  0  0  0  0  0  0  0  0  0  0
    1.5561    0.2380    1.1865 H   0  0  0  0  0  0  0  0  0  0  0  0
    1.4113   -2.0787    1.4698 H   0  0  0  0  0  0  0  0  0  0  0  0
    2.6866   -3.4781   -0.0284 H   0  0  0  0  0  0  0  0  0  0  0  0
    4.5939   -3.6294   -1.6097 H   0  0  0  0  0  0  0  0  0  0  0  0
    6.3029   -0.0678    0.1033 H   0  0  0  0  0  0  0  0  0  0  0  0
    4.4295    0.1044    1.6698 H   0  0  0  0  0  0  0  0  0  0  0  0
    2.5960    0.3697    2.4626 H   0  0  0  0  0  0  0  0  0  0  0  0
  1  2  1  0
  1 29  1  0
  1 30  1  0
  1 31  1  0
  2 11  1  0
  2  3  1  0
  2  4  1  0
  3 32  1  0
  3 33  1  0
  3 34  1  0
  4  5  1  0
  4 35  1  0
  4 36  1  0
  5  6  1  0
  5  7  2  0
  7 21  1  0
  7  8  1  0
  8  9  2  0
  8 10  1  0
 10 11  1  0
 10 12  1  0
 10 37  1  1
 11 38  1  0
 11 39  1  0
 12 13  1  0
 12 20  1  0
 12 40  1  6
 13 19  1  0
 13 14  2  0
 14 15  1  0
 14 41  1  0
 15 16  2  0
 15 42  1  0
 16 17  1  0
 16 18  1  0
 18 19  2  0
 18 43  1  0
 19 44  1  0
 20 21  1  0
 20 45  1  0
 20 51  1  0
 21 22  1  0
 21 46  1  6
 22 28  1  0
 22 23  2  0
 23 24  1  0
 23 47  1  0
 24 25  2  0
 24 48  1  0
 25 26  1  0
 25 27  1  0
 27 28  2  0
 27 49  1  0
 28 50  1  0
M  CHG  2   6  -1  20   1
M  END
>  <i_m_ct_stereo_status>  (318) 
1

>  <s_m_source_file>  (318) 
/var/tmp/pbs.5076255.sched01/tmpo609hgx5/90rinj4u0e.sdf

>  <i_m_source_file_index>  (318) 
42

>  <i_lp_mmshare_version>  (318) 
48012

>  <i_f3d_flags>  (318) 
0

>  <s_epik_input>  (318) 
Tz1DKFtDQEhdMTIpW0NIMl1DKFtDSDNdKShbQ0gzXSlbQ0gyXVtDQEhdKEMxPU8pW0NAQEhdKGMzW2NIXVtjSF1jKEYpW2NIXVtjSF0zKVtOSF1bQ0BIXTJjNFtjSF1bY0hdYyhGKVtjSF1bY0hdNA==

>  <s_epik_cmdline>  (318) 
J2VwaWtfcHl0aG9uJywgJy1waHQnLCAnMi4wJywgJy1waCcsICc3LjAnLCAnLXRuJywgJzgnLCAnLW1hJywgJzIwMCcsICctaW1hZScsICc8aW5maWxlLm1hZT4nLCAnLW9tYWUnLCAnPG91dGZpbGUubWFlPic=

>  <r_epik_Ionization_Penalty>  (318) 
0.0613206

>  <r_epik_Ionization_Penalty_Charging>  (318) 
0.0613206

>  <r_epik_Ionization_Penalty_Neutral>  (318) 
0

>  <r_epik_State_Penalty>  (318) 
0.700501

>  <r_epik_Charging_Adjusted_Penalty>  (318) 
0.761822

>  <i_epik_Tot_Q>  (318) 
0

>  <i_epik_Tot_abs_Q>  (318) 
2

>  <s_lp_Force_Field>  (318) 
OPLS3e

>  <r_lp_Energy>  (318) 
51.3592

>  <b_lp_Chiralities_Consistent>  (318) 
1

>  <s_lp_Variant>  (318) 
86:0-3

>  <s_i_glide_gridfile>  (318) 
pfpi4k_grid

>  <i_i_glide_lignum>  (318) 
42

>  <i_i_glide_rotatable_bonds>  (318) 
2

>  <r_i_docking_score>  (318) 
-2.67447

>  <r_i_glide_ligand_efficiency>  (318) 
-0.0955167

>  <r_i_glide_ligand_efficiency_sa>  (318) 
-0.290045

>  <r_i_glide_ligand_efficiency_ln>  (318) 
-0.617345

>  <r_i_glide_gscore>  (318) 
-2.67447

>  <r_i_glide_lipo>  (318) 
-0.121429

>  <r_i_glide_hbond>  (318) 
0

>  <r_i_glide_metal>  (318) 
-0

>  <r_i_glide_rewards>  (318) 
-0.817493

>  <r_i_glide_evdw>  (318) 
-23.3176

>  <r_i_glide_ecoul>  (318) 
-4.13525

>  <r_i_glide_erotb>  (318) 
0.264347

>  <r_i_glide_esite>  (318) 
-0.213726

>  <r_i_glide_emodel>  (318) 
-33.5232

>  <r_i_glide_energy>  (318) 
-27.4528

>  <r_i_glide_einternal>  (318) 
0.655423

>  <r_i_glide_intrahb_reward>  (318) 
-0

>  <i_i_glide_confnum>  (318) 
4

>  <i_i_glide_posenum>  (318) 
31

>  <r_i_glide_eff_state_penalty>  (318) 
0

>  <ligand_id>  (318) 
86

>  <original_smiles>  (318) 
CC1(C)CC(=O)C2C(=O)C(C1)C(c1ccc(F)cc1)NC2c1ccc(F)cc1

>  <smiles>  (318) 
[H]c1c([H])c(C2([H])C3=C([O-])C([H])([H])C(C([H])([H])[H])(C([H])([H])[H])C([H])([H])C([H])(C3=O)C([H])(c3c([H])c([H])c(F)c([H])c3[H])[N+]2([H])[H])c([H])c([H])c1F

$$$$
86:3:0
     RDKit          3D

 52 55  0  0  1  0  0  0  0  0999 V2000
    1.0232   -7.2295    4.3760 C   0  0  0  0  0  0  0  0  0  0  0  0
    1.8402   -8.2389    3.5404 C   0  0  0  0  0  0  0  0  0  0  0  0
    1.3338   -9.6514    3.9059 C   0  0  0  0  0  0  0  0  0  0  0  0
    1.5044   -8.0116    2.0022 C   0  0  0  0  0  0  0  0  0  0  0  0
    1.8944   -6.6548    1.3056 C   0  0  0  0  0  0  0  0  0  0  0  0
    1.0174   -5.8621    0.9777 O   0  0  0  0  0  0  0  0  0  0  0  0
    3.3830   -6.3046    0.9936 C   0  0  2  0  0  0  0  0  0  0  0  0
    4.1586   -7.3572    1.7080 C   0  0  0  0  0  0  0  0  0  0  0  0
    4.7055   -8.3182    1.1684 O   0  0  0  0  0  0  0  0  0  0  0  0
    4.0956   -7.0664    3.1931 C   0  0  1  0  0  0  0  0  0  0  0  0
    3.3713   -8.1652    3.9695 C   0  0  0  0  0  0  0  0  0  0  0  0
    5.0612   -5.9326    3.6019 C   0  0  1  0  0  0  0  0  0  0  0  0
    6.4903   -6.3691    3.9402 C   0  0  0  0  0  0  0  0  0  0  0  0
    7.2146   -7.2131    3.0665 C   0  0  0  0  0  0  0  0  0  0  0  0
    8.5251   -7.6095    3.3655 C   0  0  0  0  0  0  0  0  0  0  0  0
    9.1526   -7.1547    4.5336 C   0  0  0  0  0  0  0  0  0  0  0  0
   10.4251   -7.5240    4.8099 F   0  0  0  0  0  0  0  0  0  0  0  0
    8.4571   -6.2989    5.4082 C   0  0  0  0  0  0  0  0  0  0  0  0
    7.1300   -5.9097    5.1151 C   0  0  0  0  0  0  0  0  0  0  0  0
    5.0723   -4.9217    2.4807 N   0  0  0  0  0  0  0  0  0  0  0  0
    3.8767   -4.8921    1.5391 C   0  0  1  0  0  0  0  0  0  0  0  0
    4.1441   -3.9067    0.4118 C   0  0  0  0  0  0  0  0  0  0  0  0
    3.5625   -2.6221    0.4343 C   0  0  0  0  0  0  0  0  0  0  0  0
    3.8166   -1.7068   -0.6051 C   0  0  0  0  0  0  0  0  0  0  0  0
    4.6527   -2.0711   -1.6749 C   0  0  0  0  0  0  0  0  0  0  0  0
    4.9011   -1.1884   -2.6678 F   0  0  0  0  0  0  0  0  0  0  0  0
    5.2365   -3.3499   -1.7089 C   0  0  0  0  0  0  0  0  0  0  0  0
    4.9840   -4.2637   -0.6684 C   0  0  0  0  0  0  0  0  0  0  0  0
   -0.0435   -7.3347    4.1787 H   0  0  0  0  0  0  0  0  0  0  0  0
    1.2893   -6.1948    4.1634 H   0  0  0  0  0  0  0  0  0  0  0  0
    1.1690   -7.3936    5.4429 H   0  0  0  0  0  0  0  0  0  0  0  0
    1.8509  -10.4236    3.3338 H   0  0  0  0  0  0  0  0  0  0  0  0
    0.2677   -9.7642    3.7052 H   0  0  0  0  0  0  0  0  0  0  0  0
    1.4879   -9.8726    4.9624 H   0  0  0  0  0  0  0  0  0  0  0  0
    1.9226   -8.8287    1.4105 H   0  0  0  0  0  0  0  0  0  0  0  0
    0.4277   -8.1156    1.8765 H   0  0  0  0  0  0  0  0  0  0  0  0
    3.5694   -6.4267   -0.0726 H   0  0  0  0  0  0  0  0  0  0  0  0
    3.2556   -6.3934    3.3239 H   0  0  0  0  0  0  0  0  0  0  0  0
    3.4637   -8.0124    5.0491 H   0  0  0  0  0  0  0  0  0  0  0  0
    3.8678   -9.1168    3.7597 H   0  0  0  0  0  0  0  0  0  0  0  0
    4.6373   -5.4233    4.4708 H   0  0  0  0  0  0  0  0  0  0  0  0
    6.8001   -7.5814    2.1465 H   0  0  0  0  0  0  0  0  0  0  0  0
    9.0372   -8.2596    2.6753 H   0  0  0  0  0  0  0  0  0  0  0  0
    8.9477   -5.9466    6.3048 H   0  0  0  0  0  0  0  0  0  0  0  0
    6.6140   -5.2550    5.8048 H   0  0  0  0  0  0  0  0  0  0  0  0
    5.2046   -3.9983    2.8669 H   0  0  0  0  0  0  0  0  0  0  0  0
    3.0622   -4.4749    2.1328 H   0  0  0  0  0  0  0  0  0  0  0  0
    2.9035   -2.3258    1.2379 H   0  0  0  0  0  0  0  0  0  0  0  0
    3.3598   -0.7276   -0.5831 H   0  0  0  0  0  0  0  0  0  0  0  0
    5.8709   -3.6367   -2.5370 H   0  0  0  0  0  0  0  0  0  0  0  0
    5.4261   -5.2477   -0.7154 H   0  0  0  0  0  0  0  0  0  0  0  0
    5.8820   -5.1359    1.9158 H   0  0  0  0  0  0  0  0  0  0  0  0
  1  2  1  0
  1 29  1  0
  1 30  1  0
  1 31  1  0
  2 11  1  0
  2  3  1  0
  2  4  1  0
  3 32  1  0
  3 33  1  0
  3 34  1  0
  4  5  1  0
  4 35  1  0
  4 36  1  0
  5  6  2  0
  5  7  1  0
  7 21  1  0
  7  8  1  0
  7 37  1  6
  8  9  2  0
  8 10  1  0
 10 11  1  0
 10 12  1  0
 10 38  1  6
 11 39  1  0
 11 40  1  0
 12 13  1  0
 12 20  1  0
 12 41  1  1
 13 19  1  0
 13 14  2  0
 14 15  1  0
 14 42  1  0
 15 16  2  0
 15 43  1  0
 16 17  1  0
 16 18  1  0
 18 19  2  0
 18 44  1  0
 19 45  1  0
 20 21  1  0
 20 46  1  0
 20 52  1  0
 21 22  1  0
 21 47  1  1
 22 28  1  0
 22 23  2  0
 23 24  1  0
 23 48  1  0
 24 25  2  0
 24 49  1  0
 25 26  1  0
 25 27  1  0
 27 28  2  0
 27 50  1  0
 28 51  1  0
M  CHG  1  20   1
M  END
>  <i_m_ct_stereo_status>  (319) 
1

>  <s_m_source_file>  (319) 
/var/tmp/pbs.5076255.sched01/tmpo609hgx5/90rinj4u0e.sdf

>  <i_m_source_file_index>  (319) 
43

>  <i_lp_mmshare_version>  (319) 
48012

>  <i_f3d_flags>  (319) 
0

>  <s_epik_input>  (319) 
Tz1DKFtDQEhdMTIpW0NIMl1DKFtDSDNdKShbQ0gzXSlbQ0gyXVtDQEhdKEMxPU8pW0NAQEhdKGMzW2NIXVtjSF1jKEYpW2NIXVtjSF0zKVtOSF1bQ0BIXTJjNFtjSF1bY0hdYyhGKVtjSF1bY0hdNA==

>  <s_epik_cmdline>  (319) 
J2VwaWtfcHl0aG9uJywgJy1waHQnLCAnMi4wJywgJy1waCcsICc3LjAnLCAnLXRuJywgJzgnLCAnLW1hJywgJzIwMCcsICctaW1hZScsICc8aW5maWxlLm1hZT4nLCAnLW9tYWUnLCAnPG91dGZpbGUubWFlPic=

>  <r_lp_tautomer_probability>  (319) 
1

>  <r_epik_Ionization_Penalty>  (319) 
2.11204

>  <r_epik_Ionization_Penalty_Charging>  (319) 
0.577058

>  <r_epik_Ionization_Penalty_Neutral>  (319) 
1.53499

>  <r_epik_State_Penalty>  (319) 
1.20857

>  <r_epik_Charging_Adjusted_Penalty>  (319) 
1.78563

>  <i_epik_Tot_Q>  (319) 
1

>  <i_epik_Tot_abs_Q>  (319) 
1

>  <s_lp_Force_Field>  (319) 
OPLS3e

>  <r_lp_Energy>  (319) 
79.7894

>  <b_lp_Chiralities_Consistent>  (319) 
1

>  <s_lp_Variant>  (319) 
86:0-4

>  <s_i_glide_gridfile>  (319) 
pfpi4k_grid

>  <i_i_glide_lignum>  (319) 
43

>  <i_i_glide_rotatable_bonds>  (319) 
2

>  <r_i_docking_score>  (319) 
-3.37673

>  <r_i_glide_ligand_efficiency>  (319) 
-0.120598

>  <r_i_glide_ligand_efficiency_sa>  (319) 
-0.366205

>  <r_i_glide_ligand_efficiency_ln>  (319) 
-0.779449

>  <r_i_glide_gscore>  (319) 
-3.37673

>  <r_i_glide_lipo>  (319) 
-0.26169

>  <r_i_glide_hbond>  (319) 
-0.16

>  <r_i_glide_metal>  (319) 
-0

>  <r_i_glide_rewards>  (319) 
-0.867216

>  <r_i_glide_evdw>  (319) 
-25.1204

>  <r_i_glide_ecoul>  (319) 
-6.83254

>  <r_i_glide_erotb>  (319) 
0.263105

>  <r_i_glide_esite>  (319) 
-0.0700316

>  <r_i_glide_emodel>  (319) 
-39.6471

>  <r_i_glide_energy>  (319) 
-31.9529

>  <r_i_glide_einternal>  (319) 
0.442661

>  <r_i_glide_intrahb_reward>  (319) 
-0

>  <i_i_glide_confnum>  (319) 
6

>  <i_i_glide_posenum>  (319) 
5

>  <r_i_glide_eff_state_penalty>  (319) 
0

>  <ligand_id>  (319) 
86

>  <original_smiles>  (319) 
CC1(C)CC(=O)C2C(=O)C(C1)C(c1ccc(F)cc1)NC2c1ccc(F)cc1

>  <smiles>  (319) 
[H]c1c([H])c(C2([H])C3([H])C(=O)C([H])([H])C(C([H])([H])[H])(C([H])([H])[H])C([H])([H])C([H])(C3=O)C([H])(c3c([H])c([H])c(F)c([H])c3[H])[N+]2([H])[H])c([H])c([H])c1F

$$$$
86:3:1
     RDKit          3D

 52 55  0  0  1  0  0  0  0  0999 V2000
    1.1469   -7.6692    4.2956 C   0  0  0  0  0  0  0  0  0  0  0  0
    1.9885   -8.5377    3.3350 C   0  0  0  0  0  0  0  0  0  0  0  0
    1.5433  -10.0021    3.5281 C   0  0  0  0  0  0  0  0  0  0  0  0
    1.6223   -8.1367    1.8401 C   0  0  0  0  0  0  0  0  0  0  0  0
    1.9441   -6.6927    1.3096 C   0  0  0  0  0  0  0  0  0  0  0  0
    1.0182   -5.9076    1.0888 O   0  0  0  0  0  0  0  0  0  0  0  0
    3.4221   -6.2570    1.0307 C   0  0  2  0  0  0  0  0  0  0  0  0
    4.2494   -7.3595    1.6011 C   0  0  0  0  0  0  0  0  0  0  0  0
    4.8405   -8.2118    0.9414 O   0  0  0  0  0  0  0  0  0  0  0  0
    4.1901   -7.2541    3.1099 C   0  0  1  0  0  0  0  0  0  0  0  0
    3.5210   -8.4617    3.7546 C   0  0  0  0  0  0  0  0  0  0  0  0
    5.1179   -6.1493    3.6438 C   0  0  1  0  0  0  0  0  0  0  0  0
    6.5634   -6.5550    3.9487 C   0  0  0  0  0  0  0  0  0  0  0  0
    7.2614   -5.9133    4.9972 C   0  0  0  0  0  0  0  0  0  0  0  0
    8.5985   -6.2577    5.2875 C   0  0  0  0  0  0  0  0  0  0  0  0
    9.2537   -7.2454    4.5315 C   0  0  0  0  0  0  0  0  0  0  0  0
   10.5356   -7.5781    4.8081 F   0  0  0  0  0  0  0  0  0  0  0  0
    8.5723   -7.8874    3.4858 C   0  0  0  0  0  0  0  0  0  0  0  0
    7.2405   -7.5453    3.1976 C   0  0  0  0  0  0  0  0  0  0  0  0
    5.0836   -5.0155    2.6518 N   0  0  0  0  0  0  0  0  0  0  0  0
    3.8725   -4.8951    1.7316 C   0  0  1  0  0  0  0  0  0  0  0  0
    4.0644   -3.7510    0.7320 C   0  0  0  0  0  0  0  0  0  0  0  0
    3.3716   -3.7403   -0.5044 C   0  0  0  0  0  0  0  0  0  0  0  0
    3.5627   -2.7010   -1.4292 C   0  0  0  0  0  0  0  0  0  0  0  0
    4.4363   -1.6439   -1.1253 C   0  0  0  0  0  0  0  0  0  0  0  0
    4.6385   -0.6601   -2.0302 F   0  0  0  0  0  0  0  0  0  0  0  0
    5.1047   -1.6174    0.1084 C   0  0  0  0  0  0  0  0  0  0  0  0
    4.9168   -2.6609    1.0343 C   0  0  0  0  0  0  0  0  0  0  0  0
    0.0822   -7.7913    4.0972 H   0  0  0  0  0  0  0  0  0  0  0  0
    1.3704   -6.6065    4.2083 H   0  0  0  0  0  0  0  0  0  0  0  0
    1.3144   -7.9560    5.3334 H   0  0  0  0  0  0  0  0  0  0  0  0
    2.0832  -10.6761    2.8600 H   0  0  0  0  0  0  0  0  0  0  0  0
    0.4795  -10.1305    3.3248 H   0  0  0  0  0  0  0  0  0  0  0  0
    1.7220  -10.3428    4.5491 H   0  0  0  0  0  0  0  0  0  0  0  0
    2.0649   -8.8587    1.1503 H   0  0  0  0  0  0  0  0  0  0  0  0
    0.5488   -8.2662    1.7129 H   0  0  0  0  0  0  0  0  0  0  0  0
    3.6311   -6.2703   -0.0380 H   0  0  0  0  0  0  0  0  0  0  0  0
    3.3313   -6.6291    3.3292 H   0  0  0  0  0  0  0  0  0  0  0  0
    3.6250   -8.4310    4.8439 H   0  0  0  0  0  0  0  0  0  0  0  0
    4.0529   -9.3585    3.4244 H   0  0  0  0  0  0  0  0  0  0  0  0
    4.6806   -5.7608    4.5655 H   0  0  0  0  0  0  0  0  0  0  0  0
    6.7796   -5.1521    5.5934 H   0  0  0  0  0  0  0  0  0  0  0  0
    9.1258   -5.7680    6.0938 H   0  0  0  0  0  0  0  0  0  0  0  0
    9.0695   -8.6451    2.8963 H   0  0  0  0  0  0  0  0  0  0  0  0
    6.7659   -8.0742    2.3892 H   0  0  0  0  0  0  0  0  0  0  0  0
    5.1780   -4.1505    3.1629 H   0  0  0  0  0  0  0  0  0  0  0  0
    3.0537   -4.5654    2.3721 H   0  0  0  0  0  0  0  0  0  0  0  0
    2.6784   -4.5259   -0.7762 H   0  0  0  0  0  0  0  0  0  0  0  0
    3.0345   -2.7207   -2.3728 H   0  0  0  0  0  0  0  0  0  0  0  0
    5.7671   -0.8012    0.3542 H   0  0  0  0  0  0  0  0  0  0  0  0
    5.4468   -2.5906    1.9705 H   0  0  0  0  0  0  0  0  0  0  0  0
    5.8939   -5.1238    2.0572 H   0  0  0  0  0  0  0  0  0  0  0  0
  1  2  1  0
  1 29  1  0
  1 30  1  0
  1 31  1  0
  2 11  1  0
  2  3  1  0
  2  4  1  0
  3 32  1  0
  3 33  1  0
  3 34  1  0
  4  5  1  0
  4 35  1  0
  4 36  1  0
  5  6  2  0
  5  7  1  0
  7 21  1  0
  7  8  1  0
  7 37  1  6
  8  9  2  0
  8 10  1  0
 10 11  1  0
 10 12  1  0
 10 38  1  6
 11 39  1  0
 11 40  1  0
 12 13  1  0
 12 20  1  0
 12 41  1  1
 13 19  1  0
 13 14  2  0
 14 15  1  0
 14 42  1  0
 15 16  2  0
 15 43  1  0
 16 17  1  0
 16 18  1  0
 18 19  2  0
 18 44  1  0
 19 45  1  0
 20 21  1  0
 20 46  1  0
 20 52  1  0
 21 22  1  0
 21 47  1  1
 22 28  1  0
 22 23  2  0
 23 24  1  0
 23 48  1  0
 24 25  2  0
 24 49  1  0
 25 26  1  0
 25 27  1  0
 27 28  2  0
 27 50  1  0
 28 51  1  0
M  CHG  1  20   1
M  END
>  <i_m_ct_stereo_status>  (320) 
1

>  <s_m_source_file>  (320) 
/var/tmp/pbs.5076255.sched01/tmpo609hgx5/90rinj4u0e.sdf

>  <i_m_source_file_index>  (320) 
43

>  <i_lp_mmshare_version>  (320) 
48012

>  <i_f3d_flags>  (320) 
0

>  <s_epik_input>  (320) 
Tz1DKFtDQEhdMTIpW0NIMl1DKFtDSDNdKShbQ0gzXSlbQ0gyXVtDQEhdKEMxPU8pW0NAQEhdKGMzW2NIXVtjSF1jKEYpW2NIXVtjSF0zKVtOSF1bQ0BIXTJjNFtjSF1bY0hdYyhGKVtjSF1bY0hdNA==

>  <s_epik_cmdline>  (320) 
J2VwaWtfcHl0aG9uJywgJy1waHQnLCAnMi4wJywgJy1waCcsICc3LjAnLCAnLXRuJywgJzgnLCAnLW1hJywgJzIwMCcsICctaW1hZScsICc8aW5maWxlLm1hZT4nLCAnLW9tYWUnLCAnPG91dGZpbGUubWFlPic=

>  <r_lp_tautomer_probability>  (320) 
1

>  <r_epik_Ionization_Penalty>  (320) 
2.11204

>  <r_epik_Ionization_Penalty_Charging>  (320) 
0.577058

>  <r_epik_Ionization_Penalty_Neutral>  (320) 
1.53499

>  <r_epik_State_Penalty>  (320) 
1.20857

>  <r_epik_Charging_Adjusted_Penalty>  (320) 
1.78563

>  <i_epik_Tot_Q>  (320) 
1

>  <i_epik_Tot_abs_Q>  (320) 
1

>  <s_lp_Force_Field>  (320) 
OPLS3e

>  <r_lp_Energy>  (320) 
79.7894

>  <b_lp_Chiralities_Consistent>  (320) 
1

>  <s_lp_Variant>  (320) 
86:0-4

>  <s_i_glide_gridfile>  (320) 
pfpi4k_grid

>  <i_i_glide_lignum>  (320) 
43

>  <i_i_glide_rotatable_bonds>  (320) 
2

>  <r_i_docking_score>  (320) 
-3.23597

>  <r_i_glide_ligand_efficiency>  (320) 
-0.11557

>  <r_i_glide_ligand_efficiency_sa>  (320) 
-0.35094

>  <r_i_glide_ligand_efficiency_ln>  (320) 
-0.746957

>  <r_i_glide_gscore>  (320) 
-3.23597

>  <r_i_glide_lipo>  (320) 
-0.174017

>  <r_i_glide_hbond>  (320) 
-0.16

>  <r_i_glide_metal>  (320) 
-0

>  <r_i_glide_rewards>  (320) 
-0.880357

>  <r_i_glide_evdw>  (320) 
-25.6474

>  <r_i_glide_ecoul>  (320) 
-6.27055

>  <r_i_glide_erotb>  (320) 
0.263105

>  <r_i_glide_esite>  (320) 
-0.0617457

>  <r_i_glide_emodel>  (320) 
-37.5691

>  <r_i_glide_energy>  (320) 
-31.918

>  <r_i_glide_einternal>  (320) 
3.93929

>  <r_i_glide_intrahb_reward>  (320) 
-0

>  <i_i_glide_confnum>  (320) 
3

>  <i_i_glide_posenum>  (320) 
3

>  <r_i_glide_eff_state_penalty>  (320) 
0

>  <ligand_id>  (320) 
86

>  <original_smiles>  (320) 
CC1(C)CC(=O)C2C(=O)C(C1)C(c1ccc(F)cc1)NC2c1ccc(F)cc1

>  <smiles>  (320) 
[H]c1c([H])c(C2([H])C3([H])C(=O)C([H])([H])C(C([H])([H])[H])(C([H])([H])[H])C([H])([H])C([H])(C3=O)C([H])(c3c([H])c([H])c(F)c([H])c3[H])[N+]2([H])[H])c([H])c([H])c1F

$$$$
86:3:2
     RDKit          3D

 52 55  0  0  1  0  0  0  0  0999 V2000
   -2.3442    2.8832    3.9717 C   0  0  0  0  0  0  0  0  0  0  0  0
   -1.5593    2.8180    5.3006 C   0  0  0  0  0  0  0  0  0  0  0  0
   -2.5466    3.1386    6.4439 C   0  0  0  0  0  0  0  0  0  0  0  0
   -1.0676    1.3238    5.5292 C   0  0  0  0  0  0  0  0  0  0  0  0
   -0.0440    0.6720    4.5332 C   0  0  0  0  0  0  0  0  0  0  0  0
   -0.4176   -0.2273    3.7836 O   0  0  0  0  0  0  0  0  0  0  0  0
    1.4539    1.1228    4.5150 C   0  0  2  0  0  0  0  0  0  0  0  0
    1.4900    2.3498    5.3725 C   0  0  0  0  0  0  0  0  0  0  0  0
    1.9743    2.4246    6.4984 O   0  0  0  0  0  0  0  0  0  0  0  0
    0.8211    3.4677    4.6195 C   0  0  1  0  0  0  0  0  0  0  0  0
   -0.4499    3.9552    5.3081 C   0  0  0  0  0  0  0  0  0  0  0  0
    1.7748    4.0692    3.5746 C   0  0  1  0  0  0  0  0  0  0  0  0
    2.6681    5.1984    4.0855 C   0  0  0  0  0  0  0  0  0  0  0  0
    2.4075    6.5285    3.6878 C   0  0  0  0  0  0  0  0  0  0  0  0
    3.2388    7.5816    4.1179 C   0  0  0  0  0  0  0  0  0  0  0  0
    4.3427    7.3137    4.9482 C   0  0  0  0  0  0  0  0  0  0  0  0
    5.1457    8.3236    5.3604 F   0  0  0  0  0  0  0  0  0  0  0  0
    4.6083    5.9915    5.3527 C   0  0  0  0  0  0  0  0  0  0  0  0
    3.7752    4.9374    4.9254 C   0  0  0  0  0  0  0  0  0  0  0  0
    2.5817    2.9442    2.9681 N   0  0  0  0  0  0  0  0  0  0  0  0
    2.0141    1.5369    3.0833 C   0  0  1  0  0  0  0  0  0  0  0  0
    3.0275    0.5271    2.5603 C   0  0  0  0  0  0  0  0  0  0  0  0
    2.8627   -0.0528    1.2854 C   0  0  0  0  0  0  0  0  0  0  0  0
    3.8152   -0.9639    0.7861 C   0  0  0  0  0  0  0  0  0  0  0  0
    4.9396   -1.3025    1.5635 C   0  0  0  0  0  0  0  0  0  0  0  0
    5.8636   -2.1673    1.0819 F   0  0  0  0  0  0  0  0  0  0  0  0
    5.1049   -0.7360    2.8401 C   0  0  0  0  0  0  0  0  0  0  0  0
    4.1526    0.1714    3.3427 C   0  0  0  0  0  0  0  0  0  0  0  0
   -3.1772    2.1821    3.9729 H   0  0  0  0  0  0  0  0  0  0  0  0
   -1.7315    2.6319    3.1055 H   0  0  0  0  0  0  0  0  0  0  0  0
   -2.7611    3.8741    3.8005 H   0  0  0  0  0  0  0  0  0  0  0  0
   -2.0640    3.0965    7.4210 H   0  0  0  0  0  0  0  0  0  0  0  0
   -3.3798    2.4398    6.4785 H   0  0  0  0  0  0  0  0  0  0  0  0
   -2.9710    4.1340    6.3316 H   0  0  0  0  0  0  0  0  0  0  0  0
   -0.6766    1.2117    6.5415 H   0  0  0  0  0  0  0  0  0  0  0  0
   -1.9460    0.6800    5.5031 H   0  0  0  0  0  0  0  0  0  0  0  0
    2.0655    0.3617    4.9928 H   0  0  0  0  0  0  0  0  0  0  0  0
    0.2483    2.9977    3.8302 H   0  0  0  0  0  0  0  0  0  0  0  0
   -0.8235    4.8647    4.8323 H   0  0  0  0  0  0  0  0  0  0  0  0
   -0.2003    4.2298    6.3350 H   0  0  0  0  0  0  0  0  0  0  0  0
    1.1644    4.4617    2.7625 H   0  0  0  0  0  0  0  0  0  0  0  0
    1.5656    6.7555    3.0470 H   0  0  0  0  0  0  0  0  0  0  0  0
    3.0345    8.5938    3.8021 H   0  0  0  0  0  0  0  0  0  0  0  0
    5.4552    5.7900    5.9892 H   0  0  0  0  0  0  0  0  0  0  0  0
    4.0020    3.9287    5.2442 H   0  0  0  0  0  0  0  0  0  0  0  0
    2.7577    3.1573    1.9969 H   0  0  0  0  0  0  0  0  0  0  0  0
    1.1696    1.5212    2.3892 H   0  0  0  0  0  0  0  0  0  0  0  0
    2.0044    0.1887    0.6790 H   0  0  0  0  0  0  0  0  0  0  0  0
    3.6766   -1.4011   -0.1895 H   0  0  0  0  0  0  0  0  0  0  0  0
    5.9680   -0.9893    3.4349 H   0  0  0  0  0  0  0  0  0  0  0  0
    4.2962    0.6073    4.3191 H   0  0  0  0  0  0  0  0  0  0  0  0
    3.4819    2.9364    3.4332 H   0  0  0  0  0  0  0  0  0  0  0  0
  1  2  1  0
  1 29  1  0
  1 30  1  0
  1 31  1  0
  2 11  1  0
  2  3  1  0
  2  4  1  0
  3 32  1  0
  3 33  1  0
  3 34  1  0
  4  5  1  0
  4 35  1  0
  4 36  1  0
  5  6  2  0
  5  7  1  0
  7 21  1  0
  7  8  1  0
  7 37  1  1
  8  9  2  0
  8 10  1  0
 10 11  1  0
 10 12  1  0
 10 38  1  6
 11 39  1  0
 11 40  1  0
 12 13  1  0
 12 20  1  0
 12 41  1  6
 13 19  1  0
 13 14  2  0
 14 15  1  0
 14 42  1  0
 15 16  2  0
 15 43  1  0
 16 17  1  0
 16 18  1  0
 18 19  2  0
 18 44  1  0
 19 45  1  0
 20 21  1  0
 20 46  1  0
 20 52  1  0
 21 22  1  0
 21 47  1  6
 22 28  1  0
 22 23  2  0
 23 24  1  0
 23 48  1  0
 24 25  2  0
 24 49  1  0
 25 26  1  0
 25 27  1  0
 27 28  2  0
 27 50  1  0
 28 51  1  0
M  CHG  1  20   1
M  END
>  <i_m_ct_stereo_status>  (321) 
1

>  <s_m_source_file>  (321) 
/var/tmp/pbs.5076255.sched01/tmpo609hgx5/90rinj4u0e.sdf

>  <i_m_source_file_index>  (321) 
43

>  <i_lp_mmshare_version>  (321) 
48012

>  <i_f3d_flags>  (321) 
0

>  <s_epik_input>  (321) 
Tz1DKFtDQEhdMTIpW0NIMl1DKFtDSDNdKShbQ0gzXSlbQ0gyXVtDQEhdKEMxPU8pW0NAQEhdKGMzW2NIXVtjSF1jKEYpW2NIXVtjSF0zKVtOSF1bQ0BIXTJjNFtjSF1bY0hdYyhGKVtjSF1bY0hdNA==

>  <s_epik_cmdline>  (321) 
J2VwaWtfcHl0aG9uJywgJy1waHQnLCAnMi4wJywgJy1waCcsICc3LjAnLCAnLXRuJywgJzgnLCAnLW1hJywgJzIwMCcsICctaW1hZScsICc8aW5maWxlLm1hZT4nLCAnLW9tYWUnLCAnPG91dGZpbGUubWFlPic=

>  <r_lp_tautomer_probability>  (321) 
1

>  <r_epik_Ionization_Penalty>  (321) 
2.11204

>  <r_epik_Ionization_Penalty_Charging>  (321) 
0.577058

>  <r_epik_Ionization_Penalty_Neutral>  (321) 
1.53499

>  <r_epik_State_Penalty>  (321) 
1.20857

>  <r_epik_Charging_Adjusted_Penalty>  (321) 
1.78563

>  <i_epik_Tot_Q>  (321) 
1

>  <i_epik_Tot_abs_Q>  (321) 
1

>  <s_lp_Force_Field>  (321) 
OPLS3e

>  <r_lp_Energy>  (321) 
79.7894

>  <b_lp_Chiralities_Consistent>  (321) 
1

>  <s_lp_Variant>  (321) 
86:0-4

>  <s_i_glide_gridfile>  (321) 
pfpi4k_grid

>  <i_i_glide_lignum>  (321) 
43

>  <i_i_glide_rotatable_bonds>  (321) 
2

>  <r_i_docking_score>  (321) 
-2.94171

>  <r_i_glide_ligand_efficiency>  (321) 
-0.105061

>  <r_i_glide_ligand_efficiency_sa>  (321) 
-0.319027

>  <r_i_glide_ligand_efficiency_ln>  (321) 
-0.679033

>  <r_i_glide_gscore>  (321) 
-2.94171

>  <r_i_glide_lipo>  (321) 
-0.424906

>  <r_i_glide_hbond>  (321) 
0

>  <r_i_glide_metal>  (321) 
-0

>  <r_i_glide_rewards>  (321) 
-0.967486

>  <r_i_glide_evdw>  (321) 
-25.8335

>  <r_i_glide_ecoul>  (321) 
-3.12138

>  <r_i_glide_erotb>  (321) 
0.263105

>  <r_i_glide_esite>  (321) 
-0.0525413

>  <r_i_glide_emodel>  (321) 
-35.7197

>  <r_i_glide_energy>  (321) 
-28.9549

>  <r_i_glide_einternal>  (321) 
0.481975

>  <r_i_glide_intrahb_reward>  (321) 
-0

>  <i_i_glide_confnum>  (321) 
1

>  <i_i_glide_posenum>  (321) 
9

>  <r_i_glide_eff_state_penalty>  (321) 
0

>  <ligand_id>  (321) 
86

>  <original_smiles>  (321) 
CC1(C)CC(=O)C2C(=O)C(C1)C(c1ccc(F)cc1)NC2c1ccc(F)cc1

>  <smiles>  (321) 
[H]c1c([H])c(C2([H])C3([H])C(=O)C([H])([H])C(C([H])([H])[H])(C([H])([H])[H])C([H])([H])C([H])(C3=O)C([H])(c3c([H])c([H])c(F)c([H])c3[H])[N+]2([H])[H])c([H])c([H])c1F

$$$$
86:4:0
     RDKit          3D

 52 55  0  0  1  0  0  0  0  0999 V2000
    3.6068   -1.0465    7.2020 C   0  0  0  0  0  0  0  0  0  0  0  0
    4.0480   -0.6122    5.7965 C   0  0  0  0  0  0  0  0  0  0  0  0
    5.1066    0.5076    5.9328 C   0  0  0  0  0  0  0  0  0  0  0  0
    4.7087   -1.8244    5.0640 C   0  0  0  0  0  0  0  0  0  0  0  0
    4.3980   -1.9369    3.5629 C   0  0  0  0  0  0  0  0  0  0  0  0
    5.2523   -1.6034    2.7404 O   0  0  0  0  0  0  0  0  0  0  0  0
    3.0124   -2.4905    3.1240 C   0  0  1  0  0  0  0  0  0  0  0  0
    2.0309   -2.2967    4.2798 C   0  0  0  0  0  0  0  0  0  0  0  0
    1.5429   -3.2468    4.9000 O   0  0  0  0  0  0  0  0  0  0  0  0
    1.6377   -0.8518    4.5579 C   0  0  1  0  0  0  0  0  0  0  0  0
    2.8459    0.0155    5.0344 C   0  0  0  0  0  0  0  0  0  0  0  0
    0.9808   -0.2983    3.2544 C   0  0  1  0  0  0  0  0  0  0  0  0
    0.4074    1.1128    3.3992 C   0  0  0  0  0  0  0  0  0  0  0  0
    1.2496    2.2519    3.5079 C   0  0  0  0  0  0  0  0  0  0  0  0
    0.7028    3.5397    3.6767 C   0  0  0  0  0  0  0  0  0  0  0  0
   -0.6962    3.7142    3.6858 C   0  0  0  0  0  0  0  0  0  0  0  0
   -1.2274    4.9441    3.8169 F   0  0  0  0  0  0  0  0  0  0  0  0
   -1.5470    2.5992    3.5538 C   0  0  0  0  0  0  0  0  0  0  0  0
   -0.9988    1.3056    3.4192 C   0  0  0  0  0  0  0  0  0  0  0  0
    1.8536   -0.4604    2.0812 N   0  0  0  0  0  0  0  0  0  0  0  0
    2.3698   -1.8212    1.8645 C   0  0  1  0  0  0  0  0  0  0  0  0
    3.2007   -1.9795    0.5949 C   0  0  0  0  0  0  0  0  0  0  0  0
    4.0049   -0.9123    0.1130 C   0  0  0  0  0  0  0  0  0  0  0  0
    4.7505   -1.0601   -1.0767 C   0  0  0  0  0  0  0  0  0  0  0  0
    4.6983   -2.2697   -1.7956 C   0  0  0  0  0  0  0  0  0  0  0  0
    5.4089   -2.4207   -2.9295 F   0  0  0  0  0  0  0  0  0  0  0  0
    3.9006   -3.3339   -1.3273 C   0  0  0  0  0  0  0  0  0  0  0  0
    3.1575   -3.1916   -0.1364 C   0  0  0  0  0  0  0  0  0  0  0  0
    4.4546   -1.4322    7.7709 H   0  0  0  0  0  0  0  0  0  0  0  0
    2.8521   -1.8326    7.1549 H   0  0  0  0  0  0  0  0  0  0  0  0
    3.1838   -0.2103    7.7594 H   0  0  0  0  0  0  0  0  0  0  0  0
    5.4746    0.8389    4.9601 H   0  0  0  0  0  0  0  0  0  0  0  0
    5.9695    0.1731    6.5089 H   0  0  0  0  0  0  0  0  0  0  0  0
    4.6983    1.3842    6.4385 H   0  0  0  0  0  0  0  0  0  0  0  0
    5.7918   -1.7707    5.1777 H   0  0  0  0  0  0  0  0  0  0  0  0
    4.4074   -2.7600    5.5395 H   0  0  0  0  0  0  0  0  0  0  0  0
    3.1317   -3.5520    2.9514 H   0  0  0  0  0  0  0  0  0  0  0  0
    0.8994   -0.8815    5.3565 H   0  0  0  0  0  0  0  0  0  0  0  0
    2.4431    0.8355    5.6382 H   0  0  0  0  0  0  0  0  0  0  0  0
    3.2982    0.4718    4.1569 H   0  0  0  0  0  0  0  0  0  0  0  0
    0.1234   -0.9523    3.0681 H   0  0  0  0  0  0  0  0  0  0  0  0
    2.3167    2.1894    3.4713 H   0  0  0  0  0  0  0  0  0  0  0  0
    1.3587    4.3845    3.7682 H   0  0  0  0  0  0  0  0  0  0  0  0
   -2.6144    2.7403    3.5528 H   0  0  0  0  0  0  0  0  0  0  0  0
   -1.6759    0.4765    3.3300 H   0  0  0  0  0  0  0  0  0  0  0  0
    1.3552   -0.1843    1.2298 H   0  0  0  0  0  0  0  0  0  0  0  0
    1.4664   -2.4102    1.6689 H   0  0  0  0  0  0  0  0  0  0  0  0
    4.0635    0.0165    0.6402 H   0  0  0  0  0  0  0  0  0  0  0  0
    5.3543   -0.2555   -1.4377 H   0  0  0  0  0  0  0  0  0  0  0  0
    3.8649   -4.2491   -1.8884 H   0  0  0  0  0  0  0  0  0  0  0  0
    2.5548   -4.0161    0.2067 H   0  0  0  0  0  0  0  0  0  0  0  0
    2.6442    0.1693    2.1959 H   0  0  0  0  0  0  0  0  0  0  0  0
  1  2  1  0
  1 29  1  0
  1 30  1  0
  1 31  1  0
  2 11  1  0
  2  3  1  0
  2  4  1  0
  3 32  1  0
  3 33  1  0
  3 34  1  0
  4  5  1  0
  4 35  1  0
  4 36  1  0
  5  6  2  0
  5  7  1  0
  7 21  1  0
  7  8  1  0
  7 37  1  6
  8  9  2  0
  8 10  1  0
 10 11  1  0
 10 12  1  0
 10 38  1  1
 11 39  1  0
 11 40  1  0
 12 13  1  0
 12 20  1  0
 12 41  1  6
 13 19  1  0
 13 14  2  0
 14 15  1  0
 14 42  1  0
 15 16  2  0
 15 43  1  0
 16 17  1  0
 16 18  1  0
 18 19  2  0
 18 44  1  0
 19 45  1  0
 20 21  1  0
 20 46  1  0
 20 52  1  0
 21 22  1  0
 21 47  1  6
 22 28  1  0
 22 23  2  0
 23 24  1  0
 23 48  1  0
 24 25  2  0
 24 49  1  0
 25 26  1  0
 25 27  1  0
 27 28  2  0
 27 50  1  0
 28 51  1  0
M  CHG  1  20   1
M  END
>  <i_m_ct_stereo_status>  (322) 
1

>  <s_m_source_file>  (322) 
/var/tmp/pbs.5076255.sched01/tmpo609hgx5/90rinj4u0e.sdf

>  <i_m_source_file_index>  (322) 
44

>  <i_lp_mmshare_version>  (322) 
48012

>  <i_f3d_flags>  (322) 
0

>  <s_epik_input>  (322) 
Tz1DKFtDQEhdMTIpW0NIMl1DKFtDSDNdKShbQ0gzXSlbQ0gyXVtDQEhdKEMxPU8pW0NAQEhdKGMzW2NIXVtjSF1jKEYpW2NIXVtjSF0zKVtOSF1bQ0BIXTJjNFtjSF1bY0hdYyhGKVtjSF1bY0hdNA==

>  <s_epik_cmdline>  (322) 
J2VwaWtfcHl0aG9uJywgJy1waHQnLCAnMi4wJywgJy1waCcsICc3LjAnLCAnLXRuJywgJzgnLCAnLW1hJywgJzIwMCcsICctaW1hZScsICc8aW5maWxlLm1hZT4nLCAnLW9tYWUnLCAnPG91dGZpbGUubWFlPic=

>  <r_lp_tautomer_probability>  (322) 
1

>  <r_epik_Ionization_Penalty>  (322) 
2.11204

>  <r_epik_Ionization_Penalty_Charging>  (322) 
0.577058

>  <r_epik_Ionization_Penalty_Neutral>  (322) 
1.53499

>  <r_epik_State_Penalty>  (322) 
1.20857

>  <r_epik_Charging_Adjusted_Penalty>  (322) 
1.78563

>  <i_epik_Tot_Q>  (322) 
1

>  <i_epik_Tot_abs_Q>  (322) 
1

>  <s_lp_Force_Field>  (322) 
OPLS3e

>  <r_lp_Energy>  (322) 
41.706

>  <b_lp_Chiralities_Consistent>  (322) 
1

>  <s_lp_Variant>  (322) 
86:0-5

>  <s_i_glide_gridfile>  (322) 
pfpi4k_grid

>  <i_i_glide_lignum>  (322) 
44

>  <i_i_glide_rotatable_bonds>  (322) 
2

>  <r_i_docking_score>  (322) 
-3.34531

>  <r_i_glide_ligand_efficiency>  (322) 
-0.119475

>  <r_i_glide_ligand_efficiency_sa>  (322) 
-0.362797

>  <r_i_glide_ligand_efficiency_ln>  (322) 
-0.772195

>  <r_i_glide_gscore>  (322) 
-3.34531

>  <r_i_glide_lipo>  (322) 
-0.0435458

>  <r_i_glide_hbond>  (322) 
-0.081057

>  <r_i_glide_metal>  (322) 
-0

>  <r_i_glide_rewards>  (322) 
-0.899013

>  <r_i_glide_evdw>  (322) 
-24.2334

>  <r_i_glide_ecoul>  (322) 
-8.10756

>  <r_i_glide_erotb>  (322) 
0.263105

>  <r_i_glide_esite>  (322) 
-0.156993

>  <r_i_glide_emodel>  (322) 
-40.2059

>  <r_i_glide_energy>  (322) 
-32.341

>  <r_i_glide_einternal>  (322) 
0.154091

>  <r_i_glide_intrahb_reward>  (322) 
-0

>  <i_i_glide_confnum>  (322) 
1

>  <i_i_glide_posenum>  (322) 
18

>  <r_i_glide_eff_state_penalty>  (322) 
0

>  <ligand_id>  (322) 
86

>  <original_smiles>  (322) 
CC1(C)CC(=O)C2C(=O)C(C1)C(c1ccc(F)cc1)NC2c1ccc(F)cc1

>  <smiles>  (322) 
[H]c1c([H])c(C2([H])C3([H])C(=O)C([H])([H])C(C([H])([H])[H])(C([H])([H])[H])C([H])([H])C([H])(C3=O)C([H])(c3c([H])c([H])c(F)c([H])c3[H])[N+]2([H])[H])c([H])c([H])c1F

$$$$
86:4:1
     RDKit          3D

 52 55  0  0  1  0  0  0  0  0999 V2000
    5.0255   -3.8860    4.3105 C   0  0  0  0  0  0  0  0  0  0  0  0
    3.6551   -3.3090    3.9319 C   0  0  0  0  0  0  0  0  0  0  0  0
    2.6192   -4.4584    3.9295 C   0  0  0  0  0  0  0  0  0  0  0  0
    3.2156   -2.2474    4.9887 C   0  0  0  0  0  0  0  0  0  0  0  0
    2.4878   -1.0098    4.4257 C   0  0  0  0  0  0  0  0  0  0  0  0
    1.2678   -0.9129    4.5412 O   0  0  0  0  0  0  0  0  0  0  0  0
    3.3263    0.0964    3.7335 C   0  0  1  0  0  0  0  0  0  0  0  0
    4.6487   -0.5132    3.2653 C   0  0  0  0  0  0  0  0  0  0  0  0
    5.7299   -0.1974    3.7450 O   0  0  0  0  0  0  0  0  0  0  0  0
    4.5243   -1.4939    2.1018 C   0  0  1  0  0  0  0  0  0  0  0  0
    3.7057   -2.7637    2.4827 C   0  0  0  0  0  0  0  0  0  0  0  0
    3.9124   -0.7116    0.9072 C   0  0  1  0  0  0  0  0  0  0  0  0
    3.8162   -1.5106   -0.3993 C   0  0  0  0  0  0  0  0  0  0  0  0
    3.0064   -2.6625   -0.5269 C   0  0  0  0  0  0  0  0  0  0  0  0
    2.9266   -3.3857   -1.7299 C   0  0  0  0  0  0  0  0  0  0  0  0
    3.6610   -2.9525   -2.8490 C   0  0  0  0  0  0  0  0  0  0  0  0
    3.5908   -3.6286   -4.0210 F   0  0  0  0  0  0  0  0  0  0  0  0
    4.4687   -1.8053   -2.7515 C   0  0  0  0  0  0  0  0  0  0  0  0
    4.5563   -1.0933   -1.5342 C   0  0  0  0  0  0  0  0  0  0  0  0
    2.6125   -0.0808    1.2797 N   0  0  0  0  0  0  0  0  0  0  0  0
    2.6691    0.7935    2.4996 C   0  0  1  0  0  0  0  0  0  0  0  0
    1.3479    1.5003    2.8010 C   0  0  0  0  0  0  0  0  0  0  0  0
    0.1260    1.0650    2.2510 C   0  0  0  0  0  0  0  0  0  0  0  0
   -1.0759    1.7402    2.5472 C   0  0  0  0  0  0  0  0  0  0  0  0
   -1.0663    2.8588    3.4045 C   0  0  0  0  0  0  0  0  0  0  0  0
   -2.2189    3.5132    3.6851 F   0  0  0  0  0  0  0  0  0  0  0  0
    0.1465    3.2962    3.9648 C   0  0  0  0  0  0  0  0  0  0  0  0
    1.3514    2.6267    3.6669 C   0  0  0  0  0  0  0  0  0  0  0  0
    4.9984   -4.3287    5.3056 H   0  0  0  0  0  0  0  0  0  0  0  0
    5.7916   -3.1107    4.3083 H   0  0  0  0  0  0  0  0  0  0  0  0
    5.3364   -4.6602    3.6077 H   0  0  0  0  0  0  0  0  0  0  0  0
    1.6157   -4.1036    3.6871 H   0  0  0  0  0  0  0  0  0  0  0  0
    2.5628   -4.9446    4.9024 H   0  0  0  0  0  0  0  0  0  0  0  0
    2.8723   -5.2292    3.1997 H   0  0  0  0  0  0  0  0  0  0  0  0
    2.5662   -2.7198    5.7249 H   0  0  0  0  0  0  0  0  0  0  0  0
    4.0861   -1.9020    5.5474 H   0  0  0  0  0  0  0  0  0  0  0  0
    3.5541    0.8434    4.4899 H   0  0  0  0  0  0  0  0  0  0  0  0
    5.5346   -1.7938    1.8373 H   0  0  0  0  0  0  0  0  0  0  0  0
    4.0358   -3.5737    1.8287 H   0  0  0  0  0  0  0  0  0  0  0  0
    2.6613   -2.5663    2.2513 H   0  0  0  0  0  0  0  0  0  0  0  0
    4.5767    0.1284    0.7083 H   0  0  0  0  0  0  0  0  0  0  0  0
    2.3602   -3.0193    0.2567 H   0  0  0  0  0  0  0  0  0  0  0  0
    2.2920   -4.2583   -1.7782 H   0  0  0  0  0  0  0  0  0  0  0  0
    5.0165   -1.4750   -3.6173 H   0  0  0  0  0  0  0  0  0  0  0  0
    5.1895   -0.2304   -1.4886 H   0  0  0  0  0  0  0  0  0  0  0  0
    2.2769    0.4636    0.4976 H   0  0  0  0  0  0  0  0  0  0  0  0
    3.3435    1.6047    2.2252 H   0  0  0  0  0  0  0  0  0  0  0  0
    0.0764    0.2169    1.5840 H   0  0  0  0  0  0  0  0  0  0  0  0
   -2.0003    1.4061    2.1069 H   0  0  0  0  0  0  0  0  0  0  0  0
    0.1541    4.1570    4.6199 H   0  0  0  0  0  0  0  0  0  0  0  0
    2.2716    2.9808    4.1015 H   0  0  0  0  0  0  0  0  0  0  0  0
    1.9400   -0.8180    1.4378 H   0  0  0  0  0  0  0  0  0  0  0  0
  1  2  1  0
  1 29  1  0
  1 30  1  0
  1 31  1  0
  2 11  1  0
  2  3  1  0
  2  4  1  0
  3 32  1  0
  3 33  1  0
  3 34  1  0
  4  5  1  0
  4 35  1  0
  4 36  1  0
  5  6  2  0
  5  7  1  0
  7 21  1  0
  7  8  1  0
  7 37  1  1
  8  9  2  0
  8 10  1  0
 10 11  1  0
 10 12  1  0
 10 38  1  6
 11 39  1  0
 11 40  1  0
 12 13  1  0
 12 20  1  0
 12 41  1  6
 13 19  1  0
 13 14  2  0
 14 15  1  0
 14 42  1  0
 15 16  2  0
 15 43  1  0
 16 17  1  0
 16 18  1  0
 18 19  2  0
 18 44  1  0
 19 45  1  0
 20 21  1  0
 20 46  1  0
 20 52  1  0
 21 22  1  0
 21 47  1  6
 22 28  1  0
 22 23  2  0
 23 24  1  0
 23 48  1  0
 24 25  2  0
 24 49  1  0
 25 26  1  0
 25 27  1  0
 27 28  2  0
 27 50  1  0
 28 51  1  0
M  CHG  1  20   1
M  END
>  <i_m_ct_stereo_status>  (323) 
1

>  <s_m_source_file>  (323) 
/var/tmp/pbs.5076255.sched01/tmpo609hgx5/90rinj4u0e.sdf

>  <i_m_source_file_index>  (323) 
44

>  <i_lp_mmshare_version>  (323) 
48012

>  <i_f3d_flags>  (323) 
0

>  <s_epik_input>  (323) 
Tz1DKFtDQEhdMTIpW0NIMl1DKFtDSDNdKShbQ0gzXSlbQ0gyXVtDQEhdKEMxPU8pW0NAQEhdKGMzW2NIXVtjSF1jKEYpW2NIXVtjSF0zKVtOSF1bQ0BIXTJjNFtjSF1bY0hdYyhGKVtjSF1bY0hdNA==

>  <s_epik_cmdline>  (323) 
J2VwaWtfcHl0aG9uJywgJy1waHQnLCAnMi4wJywgJy1waCcsICc3LjAnLCAnLXRuJywgJzgnLCAnLW1hJywgJzIwMCcsICctaW1hZScsICc8aW5maWxlLm1hZT4nLCAnLW9tYWUnLCAnPG91dGZpbGUubWFlPic=

>  <r_lp_tautomer_probability>  (323) 
1

>  <r_epik_Ionization_Penalty>  (323) 
2.11204

>  <r_epik_Ionization_Penalty_Charging>  (323) 
0.577058

>  <r_epik_Ionization_Penalty_Neutral>  (323) 
1.53499

>  <r_epik_State_Penalty>  (323) 
1.20857

>  <r_epik_Charging_Adjusted_Penalty>  (323) 
1.78563

>  <i_epik_Tot_Q>  (323) 
1

>  <i_epik_Tot_abs_Q>  (323) 
1

>  <s_lp_Force_Field>  (323) 
OPLS3e

>  <r_lp_Energy>  (323) 
41.706

>  <b_lp_Chiralities_Consistent>  (323) 
1

>  <s_lp_Variant>  (323) 
86:0-5

>  <s_i_glide_gridfile>  (323) 
pfpi4k_grid

>  <i_i_glide_lignum>  (323) 
44

>  <i_i_glide_rotatable_bonds>  (323) 
2

>  <r_i_docking_score>  (323) 
-3.20302

>  <r_i_glide_ligand_efficiency>  (323) 
-0.114394

>  <r_i_glide_ligand_efficiency_sa>  (323) 
-0.347366

>  <r_i_glide_ligand_efficiency_ln>  (323) 
-0.739351

>  <r_i_glide_gscore>  (323) 
-3.20302

>  <r_i_glide_lipo>  (323) 
-0.200597

>  <r_i_glide_hbond>  (323) 
0

>  <r_i_glide_metal>  (323) 
-0

>  <r_i_glide_rewards>  (323) 
-0.908483

>  <r_i_glide_evdw>  (323) 
-28.9741

>  <r_i_glide_ecoul>  (323) 
-5.33017

>  <r_i_glide_erotb>  (323) 
0.263105

>  <r_i_glide_esite>  (323) 
-0.108814

>  <r_i_glide_emodel>  (323) 
-41.2954

>  <r_i_glide_energy>  (323) 
-34.3043

>  <r_i_glide_einternal>  (323) 
0.990567

>  <r_i_glide_intrahb_reward>  (323) 
-0

>  <i_i_glide_confnum>  (323) 
6

>  <i_i_glide_posenum>  (323) 
16

>  <r_i_glide_eff_state_penalty>  (323) 
0

>  <ligand_id>  (323) 
86

>  <original_smiles>  (323) 
CC1(C)CC(=O)C2C(=O)C(C1)C(c1ccc(F)cc1)NC2c1ccc(F)cc1

>  <smiles>  (323) 
[H]c1c([H])c(C2([H])C3([H])C(=O)C([H])([H])C(C([H])([H])[H])(C([H])([H])[H])C([H])([H])C([H])(C3=O)C([H])(c3c([H])c([H])c(F)c([H])c3[H])[N+]2([H])[H])c([H])c([H])c1F

$$$$
86:4:2
     RDKit          3D

 52 55  0  0  1  0  0  0  0  0999 V2000
    4.1013   -0.5954    7.0543 C   0  0  0  0  0  0  0  0  0  0  0  0
    4.2110   -0.1676    5.5804 C   0  0  0  0  0  0  0  0  0  0  0  0
    4.8649    1.2282    5.5277 C   0  0  0  0  0  0  0  0  0  0  0  0
    5.1558   -1.1686    4.8514 C   0  0  0  0  0  0  0  0  0  0  0  0
    4.7609   -1.5261    3.4130 C   0  0  0  0  0  0  0  0  0  0  0  0
    5.3908   -1.0345    2.4820 O   0  0  0  0  0  0  0  0  0  0  0  0
    3.6022   -2.5365    3.1889 C   0  0  1  0  0  0  0  0  0  0  0  0
    2.7373   -2.5621    4.4469 C   0  0  0  0  0  0  0  0  0  0  0  0
    2.6566   -3.5461    5.1779 O   0  0  0  0  0  0  0  0  0  0  0  0
    1.9194   -1.2967    4.6885 C   0  0  1  0  0  0  0  0  0  0  0  0
    2.7891   -0.0258    4.9442 C   0  0  0  0  0  0  0  0  0  0  0  0
    0.9702   -1.1222    3.4698 C   0  0  1  0  0  0  0  0  0  0  0  0
    0.0122    0.0610    3.6253 C   0  0  0  0  0  0  0  0  0  0  0  0
   -0.0541    1.0936    2.6611 C   0  0  0  0  0  0  0  0  0  0  0  0
   -0.9517    2.1613    2.8238 C   0  0  0  0  0  0  0  0  0  0  0  0
   -1.7935    2.2205    3.9455 C   0  0  0  0  0  0  0  0  0  0  0  0
   -2.6464    3.2587    4.0968 F   0  0  0  0  0  0  0  0  0  0  0  0
   -1.7459    1.1978    4.9069 C   0  0  0  0  0  0  0  0  0  0  0  0
   -0.8533    0.1160    4.7465 C   0  0  0  0  0  0  0  0  0  0  0  0
    1.7464   -1.0922    2.1912 N   0  0  0  0  0  0  0  0  0  0  0  0
    2.6508   -2.2579    1.9846 C   0  0  1  0  0  0  0  0  0  0  0  0
    3.3306   -2.2477    0.6187 C   0  0  0  0  0  0  0  0  0  0  0  0
    3.8144   -1.0473    0.0450 C   0  0  0  0  0  0  0  0  0  0  0  0
    4.4333   -1.0583   -1.2173 C   0  0  0  0  0  0  0  0  0  0  0  0
    4.5739   -2.2639   -1.9198 C   0  0  0  0  0  0  0  0  0  0  0  0
    5.1568   -2.2774   -3.1367 F   0  0  0  0  0  0  0  0  0  0  0  0
    4.1008   -3.4593   -1.3588 C   0  0  0  0  0  0  0  0  0  0  0  0
    3.4771   -3.4552   -0.0955 C   0  0  0  0  0  0  0  0  0  0  0  0
    5.0853   -0.6371    7.5240 H   0  0  0  0  0  0  0  0  0  0  0  0
    3.6530   -1.5841    7.1526 H   0  0  0  0  0  0  0  0  0  0  0  0
    3.4946    0.1063    7.6250 H   0  0  0  0  0  0  0  0  0  0  0  0
    5.0001    1.5629    4.4984 H   0  0  0  0  0  0  0  0  0  0  0  0
    5.8475    1.2339    6.0004 H   0  0  0  0  0  0  0  0  0  0  0  0
    4.2556    1.9744    6.0380 H   0  0  0  0  0  0  0  0  0  0  0  0
    6.1620   -0.7527    4.8220 H   0  0  0  0  0  0  0  0  0  0  0  0
    5.2451   -2.1019    5.4103 H   0  0  0  0  0  0  0  0  0  0  0  0
    4.0483   -3.5223    3.0659 H   0  0  0  0  0  0  0  0  0  0  0  0
    1.3322   -1.4875    5.5854 H   0  0  0  0  0  0  0  0  0  0  0  0
    2.2030    0.6523    5.5679 H   0  0  0  0  0  0  0  0  0  0  0  0
    2.8998    0.5101    4.0004 H   0  0  0  0  0  0  0  0  0  0  0  0
    0.3304   -2.0044    3.4194 H   0  0  0  0  0  0  0  0  0  0  0  0
    0.5640    1.1013    1.7766 H   0  0  0  0  0  0  0  0  0  0  0  0
   -0.9892    2.9438    2.0809 H   0  0  0  0  0  0  0  0  0  0  0  0
   -2.3965    1.2467    5.7683 H   0  0  0  0  0  0  0  0  0  0  0  0
   -0.8387   -0.6641    5.4933 H   0  0  0  0  0  0  0  0  0  0  0  0
    1.1081   -1.0490    1.4061 H   0  0  0  0  0  0  0  0  0  0  0  0
    1.9659   -3.1051    1.9446 H   0  0  0  0  0  0  0  0  0  0  0  0
    3.7182   -0.1071    0.5645 H   0  0  0  0  0  0  0  0  0  0  0  0
    4.7930   -0.1406   -1.6544 H   0  0  0  0  0  0  0  0  0  0  0  0
    4.2171   -4.3822   -1.9046 H   0  0  0  0  0  0  0  0  0  0  0  0
    3.1219   -4.3877    0.3167 H   0  0  0  0  0  0  0  0  0  0  0  0
    2.3067   -0.2515    2.1919 H   0  0  0  0  0  0  0  0  0  0  0  0
  1  2  1  0
  1 29  1  0
  1 30  1  0
  1 31  1  0
  2 11  1  0
  2  3  1  0
  2  4  1  0
  3 32  1  0
  3 33  1  0
  3 34  1  0
  4  5  1  0
  4 35  1  0
  4 36  1  0
  5  6  2  0
  5  7  1  0
  7 21  1  0
  7  8  1  0
  7 37  1  6
  8  9  2  0
  8 10  1  0
 10 11  1  0
 10 12  1  0
 10 38  1  1
 11 39  1  0
 11 40  1  0
 12 13  1  0
 12 20  1  0
 12 41  1  6
 13 19  1  0
 13 14  2  0
 14 15  1  0
 14 42  1  0
 15 16  2  0
 15 43  1  0
 16 17  1  0
 16 18  1  0
 18 19  2  0
 18 44  1  0
 19 45  1  0
 20 21  1  0
 20 46  1  0
 20 52  1  0
 21 22  1  0
 21 47  1  6
 22 28  1  0
 22 23  2  0
 23 24  1  0
 23 48  1  0
 24 25  2  0
 24 49  1  0
 25 26  1  0
 25 27  1  0
 27 28  2  0
 27 50  1  0
 28 51  1  0
M  CHG  1  20   1
M  END
>  <i_m_ct_stereo_status>  (324) 
1

>  <s_m_source_file>  (324) 
/var/tmp/pbs.5076255.sched01/tmpo609hgx5/90rinj4u0e.sdf

>  <i_m_source_file_index>  (324) 
44

>  <i_lp_mmshare_version>  (324) 
48012

>  <i_f3d_flags>  (324) 
0

>  <s_epik_input>  (324) 
Tz1DKFtDQEhdMTIpW0NIMl1DKFtDSDNdKShbQ0gzXSlbQ0gyXVtDQEhdKEMxPU8pW0NAQEhdKGMzW2NIXVtjSF1jKEYpW2NIXVtjSF0zKVtOSF1bQ0BIXTJjNFtjSF1bY0hdYyhGKVtjSF1bY0hdNA==

>  <s_epik_cmdline>  (324) 
J2VwaWtfcHl0aG9uJywgJy1waHQnLCAnMi4wJywgJy1waCcsICc3LjAnLCAnLXRuJywgJzgnLCAnLW1hJywgJzIwMCcsICctaW1hZScsICc8aW5maWxlLm1hZT4nLCAnLW9tYWUnLCAnPG91dGZpbGUubWFlPic=

>  <r_lp_tautomer_probability>  (324) 
1

>  <r_epik_Ionization_Penalty>  (324) 
2.11204

>  <r_epik_Ionization_Penalty_Charging>  (324) 
0.577058

>  <r_epik_Ionization_Penalty_Neutral>  (324) 
1.53499

>  <r_epik_State_Penalty>  (324) 
1.20857

>  <r_epik_Charging_Adjusted_Penalty>  (324) 
1.78563

>  <i_epik_Tot_Q>  (324) 
1

>  <i_epik_Tot_abs_Q>  (324) 
1

>  <s_lp_Force_Field>  (324) 
OPLS3e

>  <r_lp_Energy>  (324) 
41.706

>  <b_lp_Chiralities_Consistent>  (324) 
1

>  <s_lp_Variant>  (324) 
86:0-5

>  <s_i_glide_gridfile>  (324) 
pfpi4k_grid

>  <i_i_glide_lignum>  (324) 
44

>  <i_i_glide_rotatable_bonds>  (324) 
2

>  <r_i_docking_score>  (324) 
-3.16814

>  <r_i_glide_ligand_efficiency>  (324) 
-0.113148

>  <r_i_glide_ligand_efficiency_sa>  (324) 
-0.343583

>  <r_i_glide_ligand_efficiency_ln>  (324) 
-0.7313

>  <r_i_glide_gscore>  (324) 
-3.16814

>  <r_i_glide_lipo>  (324) 
-0.0771377

>  <r_i_glide_hbond>  (324) 
-0.112048

>  <r_i_glide_metal>  (324) 
-0

>  <r_i_glide_rewards>  (324) 
-0.8993

>  <r_i_glide_evdw>  (324) 
-25.0104

>  <r_i_glide_ecoul>  (324) 
-6.67849

>  <r_i_glide_erotb>  (324) 
0.263105

>  <r_i_glide_esite>  (324) 
-0.0904667

>  <r_i_glide_emodel>  (324) 
-38.5211

>  <r_i_glide_energy>  (324) 
-31.6889

>  <r_i_glide_einternal>  (324) 
1.72761

>  <r_i_glide_intrahb_reward>  (324) 
-0

>  <i_i_glide_confnum>  (324) 
1

>  <i_i_glide_posenum>  (324) 
11

>  <r_i_glide_eff_state_penalty>  (324) 
0

>  <ligand_id>  (324) 
86

>  <original_smiles>  (324) 
CC1(C)CC(=O)C2C(=O)C(C1)C(c1ccc(F)cc1)NC2c1ccc(F)cc1

>  <smiles>  (324) 
[H]c1c([H])c(C2([H])C3([H])C(=O)C([H])([H])C(C([H])([H])[H])(C([H])([H])[H])C([H])([H])C([H])(C3=O)C([H])(c3c([H])c([H])c(F)c([H])c3[H])[N+]2([H])[H])c([H])c([H])c1F

$$$$
86:5:0
     RDKit          3D

 50 53  0  0  1  0  0  0  0  0999 V2000
    1.1629  -10.9253    4.1604 C   0  0  0  0  0  0  0  0  0  0  0  0
    1.5060   -9.4549    3.8258 C   0  0  0  0  0  0  0  0  0  0  0  0
    2.7301   -9.1011    4.6830 C   0  0  0  0  0  0  0  0  0  0  0  0
    1.9312   -9.3846    2.3167 C   0  0  0  0  0  0  0  0  0  0  0  0
    2.5420   -8.0228    1.9212 C   0  0  0  0  0  0  0  0  0  0  0  0
    3.7807   -8.1262    1.7984 O   0  0  0  0  0  0  0  0  0  0  0  0
    1.7116   -6.9218    2.0009 C   0  0  0  0  0  0  0  0  0  0  0  0
    0.3127   -7.0491    2.2765 C   0  0  0  0  0  0  0  0  0  0  0  0
   -0.5776   -7.0428    1.4140 O   0  0  0  0  0  0  0  0  0  0  0  0
    0.0330   -7.1152    3.7581 C   0  0  1  0  0  0  0  0  0  0  0  0
    0.2492   -8.5850    4.2410 C   0  0  0  0  0  0  0  0  0  0  0  0
    0.7369   -5.8900    4.4641 C   0  0  1  0  0  0  0  0  0  0  0  0
    0.7854   -5.9968    5.9951 C   0  0  0  0  0  0  0  0  0  0  0  0
   -0.2362   -5.4032    6.7810 C   0  0  0  0  0  0  0  0  0  0  0  0
   -0.2009   -5.5042    8.1890 C   0  0  0  0  0  0  0  0  0  0  0  0
    0.8268   -6.2306    8.8260 C   0  0  0  0  0  0  0  0  0  0  0  0
    0.8458   -6.3332   10.1756 F   0  0  0  0  0  0  0  0  0  0  0  0
    1.8426   -6.8189    8.0498 C   0  0  0  0  0  0  0  0  0  0  0  0
    1.8497   -6.6637    6.6524 C   0  0  0  0  0  0  0  0  0  0  0  0
    2.0305   -5.4681    3.8819 N   0  0  0  0  0  0  0  0  0  0  0  0
    2.1428   -5.5171    2.4090 C   0  0  1  0  0  0  0  0  0  0  0  0
    3.4658   -5.0008    1.8411 C   0  0  0  0  0  0  0  0  0  0  0  0
    3.8188   -5.2372    0.4914 C   0  0  0  0  0  0  0  0  0  0  0  0
    5.0431   -4.7648   -0.0222 C   0  0  0  0  0  0  0  0  0  0  0  0
    5.9132   -4.0371    0.7978 C   0  0  0  0  0  0  0  0  0  0  0  0
    7.0927   -3.5844    0.3148 F   0  0  0  0  0  0  0  0  0  0  0  0
    5.5647   -3.7744    2.1340 C   0  0  0  0  0  0  0  0  0  0  0  0
    4.3473   -4.2556    2.6530 C   0  0  0  0  0  0  0  0  0  0  0  0
    2.0177  -11.5817    3.9937 H   0  0  0  0  0  0  0  0  0  0  0  0
    0.3344  -11.2960    3.5575 H   0  0  0  0  0  0  0  0  0  0  0  0
    0.8793  -11.0323    5.2080 H   0  0  0  0  0  0  0  0  0  0  0  0
    3.0461   -8.0840    4.4806 H   0  0  0  0  0  0  0  0  0  0  0  0
    3.5833   -9.7524    4.4776 H   0  0  0  0  0  0  0  0  0  0  0  0
    2.4947   -9.1970    5.7418 H   0  0  0  0  0  0  0  0  0  0  0  0
    2.6612  -10.1693    2.1210 H   0  0  0  0  0  0  0  0  0  0  0  0
    1.0836   -9.6187    1.6782 H   0  0  0  0  0  0  0  0  0  0  0  0
   -1.0352   -6.9362    3.8834 H   0  0  0  0  0  0  0  0  0  0  0  0
   -0.6267   -9.1289    3.8803 H   0  0  0  0  0  0  0  0  0  0  0  0
    0.1331   -8.6151    5.3233 H   0  0  0  0  0  0  0  0  0  0  0  0
    0.0850   -5.0370    4.2488 H   0  0  0  0  0  0  0  0  0  0  0  0
   -1.0291   -4.8501    6.2970 H   0  0  0  0  0  0  0  0  0  0  0  0
   -0.9658   -5.0292    8.7818 H   0  0  0  0  0  0  0  0  0  0  0  0
    2.6362   -7.3767    8.5220 H   0  0  0  0  0  0  0  0  0  0  0  0
    2.6862   -7.0523    6.1071 H   0  0  0  0  0  0  0  0  0  0  0  0
    2.2235   -4.5266    4.1825 H   0  0  0  0  0  0  0  0  0  0  0  0
    1.4078   -4.8008    2.0281 H   0  0  0  0  0  0  0  0  0  0  0  0
    3.1566   -5.8019   -0.1499 H   0  0  0  0  0  0  0  0  0  0  0  0
    5.3083   -4.9723   -1.0467 H   0  0  0  0  0  0  0  0  0  0  0  0
    6.2201   -3.2075    2.7741 H   0  0  0  0  0  0  0  0  0  0  0  0
    4.1159   -4.0418    3.6827 H   0  0  0  0  0  0  0  0  0  0  0  0
  1  2  1  0
  1 29  1  0
  1 30  1  0
  1 31  1  0
  2 11  1  0
  2  3  1  0
  2  4  1  0
  3 32  1  0
  3 33  1  0
  3 34  1  0
  4  5  1  0
  4 35  1  0
  4 36  1  0
  5  6  1  0
  5  7  2  0
  7 21  1  0
  7  8  1  0
  8  9  2  0
  8 10  1  0
 10 11  1  0
 10 12  1  0
 10 37  1  6
 11 38  1  0
 11 39  1  0
 12 13  1  0
 12 20  1  0
 12 40  1  1
 13 19  1  0
 13 14  2  0
 14 15  1  0
 14 41  1  0
 15 16  2  0
 15 42  1  0
 16 17  1  0
 16 18  1  0
 18 19  2  0
 18 43  1  0
 19 44  1  0
 20 21  1  0
 20 45  1  0
 21 22  1  0
 21 46  1  6
 22 28  1  0
 22 23  2  0
 23 24  1  0
 23 47  1  0
 24 25  2  0
 24 48  1  0
 25 26  1  0
 25 27  1  0
 27 28  2  0
 27 49  1  0
 28 50  1  0
M  CHG  1   6  -1
M  END
>  <i_m_ct_stereo_status>  (325) 
1

>  <s_m_source_file>  (325) 
/var/tmp/pbs.5076255.sched01/tmpo609hgx5/90rinj4u0e.sdf

>  <i_m_source_file_index>  (325) 
45

>  <i_lp_mmshare_version>  (325) 
48012

>  <i_f3d_flags>  (325) 
0

>  <s_epik_input>  (325) 
Tz1DKFtDQEhdMTIpW0NIMl1DKFtDSDNdKShbQ0gzXSlbQ0gyXVtDQEhdKEMxPU8pW0NAQEhdKGMzW2NIXVtjSF1jKEYpW2NIXVtjSF0zKVtOSF1bQ0BIXTJjNFtjSF1bY0hdYyhGKVtjSF1bY0hdNA==

>  <s_epik_cmdline>  (325) 
J2VwaWtfcHl0aG9uJywgJy1waHQnLCAnMi4wJywgJy1waCcsICc3LjAnLCAnLXRuJywgJzgnLCAnLW1hJywgJzIwMCcsICctaW1hZScsICc8aW5maWxlLm1hZT4nLCAnLW9tYWUnLCAnPG91dGZpbGUubWFlPic=

>  <r_epik_Ionization_Penalty>  (325) 
1.37428

>  <r_epik_Ionization_Penalty_Charging>  (325) 
0

>  <r_epik_Ionization_Penalty_Neutral>  (325) 
1.37428

>  <r_epik_State_Penalty>  (325) 
2.64184

>  <r_epik_Charging_Adjusted_Penalty>  (325) 
2.64184

>  <i_epik_Tot_Q>  (325) 
-1

>  <i_epik_Tot_abs_Q>  (325) 
1

>  <s_lp_Force_Field>  (325) 
OPLS3e

>  <r_lp_Energy>  (325) 
54.0007

>  <b_lp_Chiralities_Consistent>  (325) 
1

>  <s_lp_Variant>  (325) 
86:0-6

>  <s_i_glide_gridfile>  (325) 
pfpi4k_grid

>  <i_i_glide_lignum>  (325) 
45

>  <i_i_glide_rotatable_bonds>  (325) 
2

>  <r_i_docking_score>  (325) 
-2.83359

>  <r_i_glide_ligand_efficiency>  (325) 
-0.101199

>  <r_i_glide_ligand_efficiency_sa>  (325) 
-0.307301

>  <r_i_glide_ligand_efficiency_ln>  (325) 
-0.654075

>  <r_i_glide_gscore>  (325) 
-2.83359

>  <r_i_glide_lipo>  (325) 
-0.373305

>  <r_i_glide_hbond>  (325) 
-0.0631109

>  <r_i_glide_metal>  (325) 
-0

>  <r_i_glide_rewards>  (325) 
-0.988993

>  <r_i_glide_evdw>  (325) 
-26.4372

>  <r_i_glide_ecoul>  (325) 
-1.78285

>  <r_i_glide_erotb>  (325) 
0.265597

>  <r_i_glide_esite>  (325) 
-0.0844863

>  <r_i_glide_emodel>  (325) 
-32.6384

>  <r_i_glide_energy>  (325) 
-28.2201

>  <r_i_glide_einternal>  (325) 
1.28449

>  <r_i_glide_intrahb_reward>  (325) 
-0

>  <i_i_glide_confnum>  (325) 
4

>  <i_i_glide_posenum>  (325) 
11

>  <r_i_glide_eff_state_penalty>  (325) 
0

>  <ligand_id>  (325) 
86

>  <original_smiles>  (325) 
CC1(C)CC(=O)C2C(=O)C(C1)C(c1ccc(F)cc1)NC2c1ccc(F)cc1

>  <smiles>  (325) 
[H]c1c([H])c(C2([H])C3=C([O-])C([H])([H])C(C([H])([H])[H])(C([H])([H])[H])C([H])([H])C([H])(C3=O)C([H])(c3c([H])c([H])c(F)c([H])c3[H])N2[H])c([H])c([H])c1F

$$$$
86:5:1
     RDKit          3D

 50 53  0  0  1  0  0  0  0  0999 V2000
    4.4114   -0.0745    6.7429 C   0  0  0  0  0  0  0  0  0  0  0  0
    3.9218   -0.4879    5.3359 C   0  0  0  0  0  0  0  0  0  0  0  0
    4.2751    0.6816    4.4077 C   0  0  0  0  0  0  0  0  0  0  0  0
    4.7338   -1.7574    4.8870 C   0  0  0  0  0  0  0  0  0  0  0  0
    4.5219   -2.1128    3.4063 C   0  0  0  0  0  0  0  0  0  0  0  0
    5.5295   -1.7625    2.7432 O   0  0  0  0  0  0  0  0  0  0  0  0
    3.2471   -2.5151    3.0387 C   0  0  0  0  0  0  0  0  0  0  0  0
    2.1904   -2.7183    4.0087 C   0  0  0  0  0  0  0  0  0  0  0  0
    1.8547   -3.7854    4.5188 O   0  0  0  0  0  0  0  0  0  0  0  0
    1.5297   -1.4096    4.3381 C   0  0  1  0  0  0  0  0  0  0  0  0
    2.3568   -0.6697    5.4319 C   0  0  0  0  0  0  0  0  0  0  0  0
    1.1021   -0.6899    3.0027 C   0  0  1  0  0  0  0  0  0  0  0  0
    0.6049    0.7449    3.2215 C   0  0  0  0  0  0  0  0  0  0  0  0
    1.4655    1.8637    3.1102 C   0  0  0  0  0  0  0  0  0  0  0  0
    1.0016    3.1632    3.3838 C   0  0  0  0  0  0  0  0  0  0  0  0
   -0.3537    3.3743    3.6952 C   0  0  0  0  0  0  0  0  0  0  0  0
   -0.8166    4.6284    3.9252 F   0  0  0  0  0  0  0  0  0  0  0  0
   -1.2319    2.2771    3.7639 C   0  0  0  0  0  0  0  0  0  0  0  0
   -0.7517    0.9689    3.5445 C   0  0  0  0  0  0  0  0  0  0  0  0
    2.0009   -0.8346    1.8356 N   0  0  0  0  0  0  0  0  0  0  0  0
    2.6197   -2.1656    1.7005 C   0  0  1  0  0  0  0  0  0  0  0  0
    3.5013   -2.3493    0.4647 C   0  0  0  0  0  0  0  0  0  0  0  0
    4.0310   -1.2375   -0.2386 C   0  0  0  0  0  0  0  0  0  0  0  0
    4.8412   -1.4321   -1.3723 C   0  0  0  0  0  0  0  0  0  0  0  0
    5.1298   -2.7385   -1.8097 C   0  0  0  0  0  0  0  0  0  0  0  0
    5.9057   -2.9321   -2.8998 F   0  0  0  0  0  0  0  0  0  0  0  0
    4.6167   -3.8447   -1.1202 C   0  0  0  0  0  0  0  0  0  0  0  0
    3.8007   -3.6494    0.0141 C   0  0  0  0  0  0  0  0  0  0  0  0
    5.4759    0.1656    6.7440 H   0  0  0  0  0  0  0  0  0  0  0  0
    4.2484   -0.8636    7.4786 H   0  0  0  0  0  0  0  0  0  0  0  0
    3.8839    0.8143    7.0945 H   0  0  0  0  0  0  0  0  0  0  0  0
    3.9847    0.4450    3.3881 H   0  0  0  0  0  0  0  0  0  0  0  0
    5.3470    0.8800    4.3829 H   0  0  0  0  0  0  0  0  0  0  0  0
    3.7774    1.5972    4.7207 H   0  0  0  0  0  0  0  0  0  0  0  0
    5.7932   -1.5633    5.0696 H   0  0  0  0  0  0  0  0  0  0  0  0
    4.4964   -2.6143    5.5214 H   0  0  0  0  0  0  0  0  0  0  0  0
    0.5959   -1.6729    4.8289 H   0  0  0  0  0  0  0  0  0  0  0  0
    2.1690   -1.2239    6.3535 H   0  0  0  0  0  0  0  0  0  0  0  0
    1.8979    0.2988    5.6163 H   0  0  0  0  0  0  0  0  0  0  0  0
    0.2241   -1.2598    2.6831 H   0  0  0  0  0  0  0  0  0  0  0  0
    2.4900    1.7509    2.7976 H   0  0  0  0  0  0  0  0  0  0  0  0
    1.6858    3.9963    3.3152 H   0  0  0  0  0  0  0  0  0  0  0  0
   -2.2786    2.4340    3.9793 H   0  0  0  0  0  0  0  0  0  0  0  0
   -1.4373    0.1357    3.6011 H   0  0  0  0  0  0  0  0  0  0  0  0
    1.4658   -0.6588    0.9854 H   0  0  0  0  0  0  0  0  0  0  0  0
    1.8058   -2.8687    1.5355 H   0  0  0  0  0  0  0  0  0  0  0  0
    3.8153   -0.2343    0.0965 H   0  0  0  0  0  0  0  0  0  0  0  0
    5.2281   -0.5753   -1.9007 H   0  0  0  0  0  0  0  0  0  0  0  0
    4.8399   -4.8448   -1.4604 H   0  0  0  0  0  0  0  0  0  0  0  0
    3.4076   -4.5044    0.5426 H   0  0  0  0  0  0  0  0  0  0  0  0
  1  2  1  0
  1 29  1  0
  1 30  1  0
  1 31  1  0
  2 11  1  0
  2  3  1  0
  2  4  1  0
  3 32  1  0
  3 33  1  0
  3 34  1  0
  4  5  1  0
  4 35  1  0
  4 36  1  0
  5  6  1  0
  5  7  2  0
  7 21  1  0
  7  8  1  0
  8  9  2  0
  8 10  1  0
 10 11  1  0
 10 12  1  0
 10 37  1  1
 11 38  1  0
 11 39  1  0
 12 13  1  0
 12 20  1  0
 12 40  1  6
 13 19  1  0
 13 14  2  0
 14 15  1  0
 14 41  1  0
 15 16  2  0
 15 42  1  0
 16 17  1  0
 16 18  1  0
 18 19  2  0
 18 43  1  0
 19 44  1  0
 20 21  1  0
 20 45  1  0
 21 22  1  0
 21 46  1  6
 22 28  1  0
 22 23  2  0
 23 24  1  0
 23 47  1  0
 24 25  2  0
 24 48  1  0
 25 26  1  0
 25 27  1  0
 27 28  2  0
 27 49  1  0
 28 50  1  0
M  CHG  1   6  -1
M  END
>  <i_m_ct_stereo_status>  (326) 
1

>  <s_m_source_file>  (326) 
/var/tmp/pbs.5076255.sched01/tmpo609hgx5/90rinj4u0e.sdf

>  <i_m_source_file_index>  (326) 
45

>  <i_lp_mmshare_version>  (326) 
48012

>  <i_f3d_flags>  (326) 
0

>  <s_epik_input>  (326) 
Tz1DKFtDQEhdMTIpW0NIMl1DKFtDSDNdKShbQ0gzXSlbQ0gyXVtDQEhdKEMxPU8pW0NAQEhdKGMzW2NIXVtjSF1jKEYpW2NIXVtjSF0zKVtOSF1bQ0BIXTJjNFtjSF1bY0hdYyhGKVtjSF1bY0hdNA==

>  <s_epik_cmdline>  (326) 
J2VwaWtfcHl0aG9uJywgJy1waHQnLCAnMi4wJywgJy1waCcsICc3LjAnLCAnLXRuJywgJzgnLCAnLW1hJywgJzIwMCcsICctaW1hZScsICc8aW5maWxlLm1hZT4nLCAnLW9tYWUnLCAnPG91dGZpbGUubWFlPic=

>  <r_epik_Ionization_Penalty>  (326) 
1.37428

>  <r_epik_Ionization_Penalty_Charging>  (326) 
0

>  <r_epik_Ionization_Penalty_Neutral>  (326) 
1.37428

>  <r_epik_State_Penalty>  (326) 
2.64184

>  <r_epik_Charging_Adjusted_Penalty>  (326) 
2.64184

>  <i_epik_Tot_Q>  (326) 
-1

>  <i_epik_Tot_abs_Q>  (326) 
1

>  <s_lp_Force_Field>  (326) 
OPLS3e

>  <r_lp_Energy>  (326) 
54.0007

>  <b_lp_Chiralities_Consistent>  (326) 
1

>  <s_lp_Variant>  (326) 
86:0-6

>  <s_i_glide_gridfile>  (326) 
pfpi4k_grid

>  <i_i_glide_lignum>  (326) 
45

>  <i_i_glide_rotatable_bonds>  (326) 
2

>  <r_i_docking_score>  (326) 
-2.73582

>  <r_i_glide_ligand_efficiency>  (326) 
-0.0977079

>  <r_i_glide_ligand_efficiency_sa>  (326) 
-0.296699

>  <r_i_glide_ligand_efficiency_ln>  (326) 
-0.631508

>  <r_i_glide_gscore>  (326) 
-2.73582

>  <r_i_glide_lipo>  (326) 
-0.108764

>  <r_i_glide_hbond>  (326) 
-0.16

>  <r_i_glide_metal>  (326) 
-0

>  <r_i_glide_rewards>  (326) 
-0.966619

>  <r_i_glide_evdw>  (326) 
-25.4183

>  <r_i_glide_ecoul>  (326) 
-2.63414

>  <r_i_glide_erotb>  (326) 
0.265597

>  <r_i_glide_esite>  (326) 
-0.1

>  <r_i_glide_emodel>  (326) 
-33.28

>  <r_i_glide_energy>  (326) 
-28.0524

>  <r_i_glide_einternal>  (326) 
0.0776407

>  <r_i_glide_intrahb_reward>  (326) 
-0

>  <i_i_glide_confnum>  (326) 
5

>  <i_i_glide_posenum>  (326) 
17

>  <r_i_glide_eff_state_penalty>  (326) 
0

>  <ligand_id>  (326) 
86

>  <original_smiles>  (326) 
CC1(C)CC(=O)C2C(=O)C(C1)C(c1ccc(F)cc1)NC2c1ccc(F)cc1

>  <smiles>  (326) 
[H]c1c([H])c(C2([H])C3=C([O-])C([H])([H])C(C([H])([H])[H])(C([H])([H])[H])C([H])([H])C([H])(C3=O)C([H])(c3c([H])c([H])c(F)c([H])c3[H])N2[H])c([H])c([H])c1F

$$$$
86:5:2
     RDKit          3D

 50 53  0  0  1  0  0  0  0  0999 V2000
    5.5020   -5.1583    2.7270 C   0  0  0  0  0  0  0  0  0  0  0  0
    4.7217   -3.8263    2.6235 C   0  0  0  0  0  0  0  0  0  0  0  0
    3.3374   -4.1876    2.0590 C   0  0  0  0  0  0  0  0  0  0  0  0
    4.5438   -3.2594    4.0770 C   0  0  0  0  0  0  0  0  0  0  0  0
    3.5559   -2.0773    4.1403 C   0  0  0  0  0  0  0  0  0  0  0  0
    2.4640   -2.4555    4.6319 O   0  0  0  0  0  0  0  0  0  0  0  0
    3.9124   -0.9283    3.4739 C   0  0  0  0  0  0  0  0  0  0  0  0
    5.2232   -0.7671    2.8774 C   0  0  0  0  0  0  0  0  0  0  0  0
    6.1875   -0.2083    3.4010 O   0  0  0  0  0  0  0  0  0  0  0  0
    5.2655   -1.3645    1.4934 C   0  0  1  0  0  0  0  0  0  0  0  0
    5.5114   -2.9031    1.6146 C   0  0  0  0  0  0  0  0  0  0  0  0
    4.0690   -0.7861    0.6557 C   0  0  1  0  0  0  0  0  0  0  0  0
    3.8705   -1.5228   -0.6717 C   0  0  0  0  0  0  0  0  0  0  0  0
    3.0193   -2.6385   -0.7928 C   0  0  0  0  0  0  0  0  0  0  0  0
    2.8582   -3.2928   -2.0230 C   0  0  0  0  0  0  0  0  0  0  0  0
    3.5595   -2.8338   -3.1484 C   0  0  0  0  0  0  0  0  0  0  0  0
    3.4226   -3.4683   -4.3294 F   0  0  0  0  0  0  0  0  0  0  0  0
    4.3983   -1.7147   -3.0513 C   0  0  0  0  0  0  0  0  0  0  0  0
    4.5663   -1.0658   -1.8163 C   0  0  0  0  0  0  0  0  0  0  0  0
    2.8088   -0.5279    1.3893 N   0  0  0  0  0  0  0  0  0  0  0  0
    2.9583    0.0209    2.7496 C   0  0  1  0  0  0  0  0  0  0  0  0
    1.6585    0.3438    3.4841 C   0  0  0  0  0  0  0  0  0  0  0  0
    0.4088    0.3577    2.8201 C   0  0  0  0  0  0  0  0  0  0  0  0
   -0.7720    0.6526    3.5289 C   0  0  0  0  0  0  0  0  0  0  0  0
   -0.7148    0.9410    4.9018 C   0  0  0  0  0  0  0  0  0  0  0  0
   -1.8454    1.2045    5.5866 F   0  0  0  0  0  0  0  0  0  0  0  0
    0.5202    0.9437    5.5688 C   0  0  0  0  0  0  0  0  0  0  0  0
    1.6997    0.6539    4.8607 C   0  0  0  0  0  0  0  0  0  0  0  0
    4.9680   -5.8868    3.3376 H   0  0  0  0  0  0  0  0  0  0  0  0
    6.4895   -5.0216    3.1664 H   0  0  0  0  0  0  0  0  0  0  0  0
    5.6403   -5.6039    1.7421 H   0  0  0  0  0  0  0  0  0  0  0  0
    2.7221   -3.2962    1.9767 H   0  0  0  0  0  0  0  0  0  0  0  0
    2.7994   -4.8846    2.7053 H   0  0  0  0  0  0  0  0  0  0  0  0
    3.4287   -4.6501    1.0791 H   0  0  0  0  0  0  0  0  0  0  0  0
    4.1766   -4.0613    4.7200 H   0  0  0  0  0  0  0  0  0  0  0  0
    5.5016   -2.9657    4.5084 H   0  0  0  0  0  0  0  0  0  0  0  0
    6.1619   -0.9720    1.0198 H   0  0  0  0  0  0  0  0  0  0  0  0
    6.5667   -2.9955    1.8803 H   0  0  0  0  0  0  0  0  0  0  0  0
    5.4613   -3.3410    0.6202 H   0  0  0  0  0  0  0  0  0  0  0  0
    4.3950    0.2241    0.3831 H   0  0  0  0  0  0  0  0  0  0  0  0
    2.3877   -2.9608    0.0238 H   0  0  0  0  0  0  0  0  0  0  0  0
    2.1961   -4.1361   -2.1030 H   0  0  0  0  0  0  0  0  0  0  0  0
    4.9167   -1.3504   -3.9264 H   0  0  0  0  0  0  0  0  0  0  0  0
    5.2062   -0.2065   -1.7441 H   0  0  0  0  0  0  0  0  0  0  0  0
    2.2322    0.0838    0.8323 H   0  0  0  0  0  0  0  0  0  0  0  0
    3.4492    0.9943    2.6424 H   0  0  0  0  0  0  0  0  0  0  0  0
    0.3450    0.1346    1.7635 H   0  0  0  0  0  0  0  0  0  0  0  0
   -1.7168    0.6560    3.0107 H   0  0  0  0  0  0  0  0  0  0  0  0
    0.5658    1.1596    6.6223 H   0  0  0  0  0  0  0  0  0  0  0  0
    2.6446    0.6500    5.3789 H   0  0  0  0  0  0  0  0  0  0  0  0
  1  2  1  0
  1 29  1  0
  1 30  1  0
  1 31  1  0
  2 11  1  0
  2  3  1  0
  2  4  1  0
  3 32  1  0
  3 33  1  0
  3 34  1  0
  4  5  1  0
  4 35  1  0
  4 36  1  0
  5  6  1  0
  5  7  2  0
  7 21  1  0
  7  8  1  0
  8  9  2  0
  8 10  1  0
 10 11  1  0
 10 12  1  0
 10 37  1  6
 11 38  1  0
 11 39  1  0
 12 13  1  0
 12 20  1  0
 12 40  1  6
 13 19  1  0
 13 14  2  0
 14 15  1  0
 14 41  1  0
 15 16  2  0
 15 42  1  0
 16 17  1  0
 16 18  1  0
 18 19  2  0
 18 43  1  0
 19 44  1  0
 20 21  1  0
 20 45  1  0
 21 22  1  0
 21 46  1  6
 22 28  1  0
 22 23  2  0
 23 24  1  0
 23 47  1  0
 24 25  2  0
 24 48  1  0
 25 26  1  0
 25 27  1  0
 27 28  2  0
 27 49  1  0
 28 50  1  0
M  CHG  1   6  -1
M  END
>  <i_m_ct_stereo_status>  (327) 
1

>  <s_m_source_file>  (327) 
/var/tmp/pbs.5076255.sched01/tmpo609hgx5/90rinj4u0e.sdf

>  <i_m_source_file_index>  (327) 
45

>  <i_lp_mmshare_version>  (327) 
48012

>  <i_f3d_flags>  (327) 
0

>  <s_epik_input>  (327) 
Tz1DKFtDQEhdMTIpW0NIMl1DKFtDSDNdKShbQ0gzXSlbQ0gyXVtDQEhdKEMxPU8pW0NAQEhdKGMzW2NIXVtjSF1jKEYpW2NIXVtjSF0zKVtOSF1bQ0BIXTJjNFtjSF1bY0hdYyhGKVtjSF1bY0hdNA==

>  <s_epik_cmdline>  (327) 
J2VwaWtfcHl0aG9uJywgJy1waHQnLCAnMi4wJywgJy1waCcsICc3LjAnLCAnLXRuJywgJzgnLCAnLW1hJywgJzIwMCcsICctaW1hZScsICc8aW5maWxlLm1hZT4nLCAnLW9tYWUnLCAnPG91dGZpbGUubWFlPic=

>  <r_epik_Ionization_Penalty>  (327) 
1.37428

>  <r_epik_Ionization_Penalty_Charging>  (327) 
0

>  <r_epik_Ionization_Penalty_Neutral>  (327) 
1.37428

>  <r_epik_State_Penalty>  (327) 
2.64184

>  <r_epik_Charging_Adjusted_Penalty>  (327) 
2.64184

>  <i_epik_Tot_Q>  (327) 
-1

>  <i_epik_Tot_abs_Q>  (327) 
1

>  <s_lp_Force_Field>  (327) 
OPLS3e

>  <r_lp_Energy>  (327) 
54.0007

>  <b_lp_Chiralities_Consistent>  (327) 
1

>  <s_lp_Variant>  (327) 
86:0-6

>  <s_i_glide_gridfile>  (327) 
pfpi4k_grid

>  <i_i_glide_lignum>  (327) 
45

>  <i_i_glide_rotatable_bonds>  (327) 
2

>  <r_i_docking_score>  (327) 
-2.63737

>  <r_i_glide_ligand_efficiency>  (327) 
-0.0941917

>  <r_i_glide_ligand_efficiency_sa>  (327) 
-0.286021

>  <r_i_glide_ligand_efficiency_ln>  (327) 
-0.608782

>  <r_i_glide_gscore>  (327) 
-2.63737

>  <r_i_glide_lipo>  (327) 
-0.451799

>  <r_i_glide_hbond>  (327) 
0

>  <r_i_glide_metal>  (327) 
-0

>  <r_i_glide_rewards>  (327) 
-0.966972

>  <r_i_glide_evdw>  (327) 
-26.8162

>  <r_i_glide_ecoul>  (327) 
-0.5219

>  <r_i_glide_erotb>  (327) 
0.265597

>  <r_i_glide_esite>  (327) 
-0.0650973

>  <r_i_glide_emodel>  (327) 
-31.8867

>  <r_i_glide_energy>  (327) 
-27.3381

>  <r_i_glide_einternal>  (327) 
0.677042

>  <r_i_glide_intrahb_reward>  (327) 
-0

>  <i_i_glide_confnum>  (327) 
1

>  <i_i_glide_posenum>  (327) 
25

>  <r_i_glide_eff_state_penalty>  (327) 
0

>  <ligand_id>  (327) 
86

>  <original_smiles>  (327) 
CC1(C)CC(=O)C2C(=O)C(C1)C(c1ccc(F)cc1)NC2c1ccc(F)cc1

>  <smiles>  (327) 
[H]c1c([H])c(C2([H])C3=C([O-])C([H])([H])C(C([H])([H])[H])(C([H])([H])[H])C([H])([H])C([H])(C3=O)C([H])(c3c([H])c([H])c(F)c([H])c3[H])N2[H])c([H])c([H])c1F

$$$$
88:0:0
     RDKit          3D

 29 31  0  0  1  0  0  0  0  0999 V2000
    7.1014  -11.1366    3.2838 C   0  0  0  0  0  0  0  0  0  0  0  0
    6.1791  -10.8292    2.0933 C   0  0  0  0  0  0  0  0  0  0  0  0
    5.6971   -9.4502    2.1168 N   0  0  0  0  0  0  0  0  0  0  0  0
    6.5910   -8.4390    2.0044 N   0  0  0  0  0  0  0  0  0  0  0  0
    5.8331   -7.3577    2.1088 C   0  0  0  0  0  0  0  0  0  0  0  0
    4.5025   -7.5799    2.2729 N   0  0  0  0  0  0  0  0  0  0  0  0
    4.4641   -8.9105    2.2165 C   0  0  0  0  0  0  0  0  0  0  0  0
    3.2096   -9.7294    2.2864 C   0  0  2  0  0  0  0  0  0  0  0  0
    1.9486   -9.0664    1.6812 C   0  0  0  0  0  0  0  0  0  0  0  0
    0.7509   -9.7133    2.4109 C   0  0  0  0  0  0  0  0  0  0  0  0
    1.3772  -10.0544    3.6476 N   0  0  0  0  0  0  0  0  0  0  0  0
    0.8731  -10.3715    4.8474 C   0  0  0  0  0  0  0  0  0  0  0  0
    1.9395  -10.6674    5.6058 N   0  0  0  0  0  0  0  0  0  0  0  0
    3.1133  -10.5063    4.8985 C   0  0  0  0  0  0  0  0  0  0  0  0
    2.7208  -10.0967    3.6396 C   0  0  0  0  0  0  0  0  0  0  0  0
    7.4348  -12.1747    3.2716 H   0  0  0  0  0  0  0  0  0  0  0  0
    6.5771  -10.9600    4.2238 H   0  0  0  0  0  0  0  0  0  0  0  0
    7.9876  -10.5020    3.2807 H   0  0  0  0  0  0  0  0  0  0  0  0
    6.7072  -10.9831    1.1537 H   0  0  0  0  0  0  0  0  0  0  0  0
    5.3546  -11.5453    2.1030 H   0  0  0  0  0  0  0  0  0  0  0  0
    6.2698   -6.3701    2.0792 H   0  0  0  0  0  0  0  0  0  0  0  0
    3.3383  -10.6559    1.7395 H   0  0  0  0  0  0  0  0  0  0  0  0
    1.9227   -8.0186    1.9837 H   0  0  0  0  0  0  0  0  0  0  0  0
    1.9172   -9.0931    0.5956 H   0  0  0  0  0  0  0  0  0  0  0  0
   -0.1027   -9.0626    2.5902 H   0  0  0  0  0  0  0  0  0  0  0  0
    0.4475  -10.6447    1.9380 H   0  0  0  0  0  0  0  0  0  0  0  0
   -0.1619  -10.3910    5.1283 H   0  0  0  0  0  0  0  0  0  0  0  0
    4.0902  -10.7093    5.3004 H   0  0  0  0  0  0  0  0  0  0  0  0
    1.8333  -11.0432    6.5514 H   0  0  0  0  0  0  0  0  0  0  0  0
  1  2  1  0
  1 16  1  0
  1 17  1  0
  1 18  1  0
  2  3  1  0
  2 19  1  0
  2 20  1  0
  3  7  1  0
  3  4  1  0
  4  5  2  0
  5  6  1  0
  5 21  1  0
  6  7  2  0
  7  8  1  0
  8 15  1  0
  8  9  1  0
  8 22  1  6
  9 10  1  0
  9 23  1  0
  9 24  1  0
 10 11  1  0
 10 25  1  0
 10 26  1  0
 11 15  1  0
 11 12  1  0
 12 13  2  0
 12 27  1  0
 13 14  1  0
 13 29  1  0
 14 15  2  0
 14 28  1  0
M  CHG  1  13   1
M  END
>  <i_m_ct_stereo_status>  (328) 
1

>  <s_m_source_file>  (328) 
/var/tmp/pbs.5076255.sched01/tmpnhftudgm/135squ2m_dv.sdf

>  <i_m_source_file_index>  (328) 
2

>  <i_lp_mmshare_version>  (328) 
48012

>  <i_f3d_flags>  (328) 
0

>  <s_epik_input>  (328) 
W0NIM11bQ0gyXW4xbltjSF1uYzFbQ0BIXShbQ0gyXVtDSDJdMiljKG4yMylbY0hdbltjSF0z

>  <s_epik_cmdline>  (328) 
J2VwaWtfcHl0aG9uJywgJy1waHQnLCAnMi4wJywgJy1waCcsICc3LjAnLCAnLXRuJywgJzgnLCAnLW1hJywgJzIwMCcsICctaW1hZScsICc8aW5maWxlLm1hZT4nLCAnLW9tYWUnLCAnPG91dGZpbGUubWFlPic=

>  <r_lp_tautomer_probability>  (328) 
1

>  <r_epik_Ionization_Penalty>  (328) 
0.353833

>  <r_epik_Ionization_Penalty_Charging>  (328) 
0

>  <r_epik_Ionization_Penalty_Neutral>  (328) 
0.353833

>  <r_epik_State_Penalty>  (328) 
0.350227

>  <r_epik_Charging_Adjusted_Penalty>  (328) 
0.350227

>  <i_epik_Tot_Q>  (328) 
1

>  <i_epik_Tot_abs_Q>  (328) 
1

>  <s_lp_Force_Field>  (328) 
OPLS3e

>  <r_lp_Energy>  (328) 
23.4317

>  <b_lp_Chiralities_Consistent>  (328) 
1

>  <s_lp_Variant>  (328) 
88:0-1

>  <s_i_glide_gridfile>  (328) 
pfpi4k_grid

>  <i_i_glide_lignum>  (328) 
2

>  <i_i_glide_rotatable_bonds>  (328) 
2

>  <r_i_docking_score>  (328) 
-4.09119

>  <r_i_glide_ligand_efficiency>  (328) 
-0.272746

>  <r_i_glide_ligand_efficiency_sa>  (328) 
-0.67265

>  <r_i_glide_ligand_efficiency_ln>  (328) 
-1.10333

>  <r_i_glide_gscore>  (328) 
-4.09119

>  <r_i_glide_lipo>  (328) 
-0.134763

>  <r_i_glide_hbond>  (328) 
-0.199879

>  <r_i_glide_metal>  (328) 
-0

>  <r_i_glide_rewards>  (328) 
-2.11033

>  <r_i_glide_evdw>  (328) 
-14.3336

>  <r_i_glide_ecoul>  (328) 
-7.6088

>  <r_i_glide_erotb>  (328) 
0.394246

>  <r_i_glide_esite>  (328) 
-0.182471

>  <r_i_glide_emodel>  (328) 
-29.7044

>  <r_i_glide_energy>  (328) 
-21.9424

>  <r_i_glide_einternal>  (328) 
2.80212

>  <r_i_glide_intrahb_reward>  (328) 
-0

>  <i_i_glide_confnum>  (328) 
1

>  <i_i_glide_posenum>  (328) 
21

>  <r_i_glide_eff_state_penalty>  (328) 
0

>  <ligand_id>  (328) 
88

>  <original_smiles>  (328) 
CCn1ncnc1C1CCn2cncc21

>  <smiles>  (328) 
[H]c1nc(C2([H])c3c([H])[n+]([H])c([H])n3C([H])([H])C2([H])[H])n(C([H])([H])C([H])([H])[H])n1

$$$$
88:0:1
     RDKit          3D

 29 31  0  0  1  0  0  0  0  0999 V2000
   -1.2143   -8.5965    2.1595 C   0  0  0  0  0  0  0  0  0  0  0  0
   -1.1771   -8.9771    3.6410 C   0  0  0  0  0  0  0  0  0  0  0  0
   -0.4292   -8.0049    4.4280 N   0  0  0  0  0  0  0  0  0  0  0  0
   -0.8650   -6.7217    4.4854 N   0  0  0  0  0  0  0  0  0  0  0  0
    0.0326   -6.1541    5.2769 C   0  0  0  0  0  0  0  0  0  0  0  0
    1.0155   -6.9661    5.7619 N   0  0  0  0  0  0  0  0  0  0  0  0
    0.6669   -8.1223    5.1979 C   0  0  0  0  0  0  0  0  0  0  0  0
    1.3738   -9.4356    5.4338 C   0  0  2  0  0  0  0  0  0  0  0  0
    2.5538   -9.3704    6.4515 C   0  0  0  0  0  0  0  0  0  0  0  0
    3.5108  -10.5152    6.0566 C   0  0  0  0  0  0  0  0  0  0  0  0
    3.2192  -10.6036    4.6581 N   0  0  0  0  0  0  0  0  0  0  0  0
    3.8799  -11.1710    3.6467 C   0  0  0  0  0  0  0  0  0  0  0  0
    3.1150  -10.9804    2.5620 N   0  0  0  0  0  0  0  0  0  0  0  0
    1.9528  -10.3085    2.9051 C   0  0  0  0  0  0  0  0  0  0  0  0
    2.0561  -10.0519    4.2572 C   0  0  0  0  0  0  0  0  0  0  0  0
   -1.7449   -9.3529    1.5752 H   0  0  0  0  0  0  0  0  0  0  0  0
   -0.2064   -8.4910    1.7557 H   0  0  0  0  0  0  0  0  0  0  0  0
   -1.7088   -7.6361    2.0303 H   0  0  0  0  0  0  0  0  0  0  0  0
   -2.1899   -9.0317    4.0401 H   0  0  0  0  0  0  0  0  0  0  0  0
   -0.7433   -9.9731    3.7266 H   0  0  0  0  0  0  0  0  0  0  0  0
   -0.0153   -5.1021    5.5120 H   0  0  0  0  0  0  0  0  0  0  0  0
    0.6544  -10.1730    5.7906 H   0  0  0  0  0  0  0  0  0  0  0  0
    3.1299   -8.4647    6.2541 H   0  0  0  0  0  0  0  0  0  0  0  0
    2.2558   -9.3352    7.4981 H   0  0  0  0  0  0  0  0  0  0  0  0
    4.5743  -10.3121    6.1746 H   0  0  0  0  0  0  0  0  0  0  0  0
    3.2227  -11.4691    6.5051 H   0  0  0  0  0  0  0  0  0  0  0  0
    4.8338  -11.6573    3.6752 H   0  0  0  0  0  0  0  0  0  0  0  0
    1.1722  -10.0902    2.1850 H   0  0  0  0  0  0  0  0  0  0  0  0
    3.3945  -11.3267    1.6373 H   0  0  0  0  0  0  0  0  0  0  0  0
  1  2  1  0
  1 16  1  0
  1 17  1  0
  1 18  1  0
  2  3  1  0
  2 19  1  0
  2 20  1  0
  3  7  1  0
  3  4  1  0
  4  5  2  0
  5  6  1  0
  5 21  1  0
  6  7  2  0
  7  8  1  0
  8 15  1  0
  8  9  1  0
  8 22  1  1
  9 10  1  0
  9 23  1  0
  9 24  1  0
 10 11  1  0
 10 25  1  0
 10 26  1  0
 11 15  1  0
 11 12  1  0
 12 13  2  0
 12 27  1  0
 13 14  1  0
 13 29  1  0
 14 15  2  0
 14 28  1  0
M  CHG  1  13   1
M  END
>  <i_m_ct_stereo_status>  (329) 
1

>  <s_m_source_file>  (329) 
/var/tmp/pbs.5076255.sched01/tmpnhftudgm/135squ2m_dv.sdf

>  <i_m_source_file_index>  (329) 
2

>  <i_lp_mmshare_version>  (329) 
48012

>  <i_f3d_flags>  (329) 
0

>  <s_epik_input>  (329) 
W0NIM11bQ0gyXW4xbltjSF1uYzFbQ0BIXShbQ0gyXVtDSDJdMiljKG4yMylbY0hdbltjSF0z

>  <s_epik_cmdline>  (329) 
J2VwaWtfcHl0aG9uJywgJy1waHQnLCAnMi4wJywgJy1waCcsICc3LjAnLCAnLXRuJywgJzgnLCAnLW1hJywgJzIwMCcsICctaW1hZScsICc8aW5maWxlLm1hZT4nLCAnLW9tYWUnLCAnPG91dGZpbGUubWFlPic=

>  <r_lp_tautomer_probability>  (329) 
1

>  <r_epik_Ionization_Penalty>  (329) 
0.353833

>  <r_epik_Ionization_Penalty_Charging>  (329) 
0

>  <r_epik_Ionization_Penalty_Neutral>  (329) 
0.353833

>  <r_epik_State_Penalty>  (329) 
0.350227

>  <r_epik_Charging_Adjusted_Penalty>  (329) 
0.350227

>  <i_epik_Tot_Q>  (329) 
1

>  <i_epik_Tot_abs_Q>  (329) 
1

>  <s_lp_Force_Field>  (329) 
OPLS3e

>  <r_lp_Energy>  (329) 
23.4317

>  <b_lp_Chiralities_Consistent>  (329) 
1

>  <s_lp_Variant>  (329) 
88:0-1

>  <s_i_glide_gridfile>  (329) 
pfpi4k_grid

>  <i_i_glide_lignum>  (329) 
2

>  <i_i_glide_rotatable_bonds>  (329) 
2

>  <r_i_docking_score>  (329) 
-4.01688

>  <r_i_glide_ligand_efficiency>  (329) 
-0.267792

>  <r_i_glide_ligand_efficiency_sa>  (329) 
-0.660432

>  <r_i_glide_ligand_efficiency_ln>  (329) 
-1.08329

>  <r_i_glide_gscore>  (329) 
-4.01688

>  <r_i_glide_lipo>  (329) 
-0.0776556

>  <r_i_glide_hbond>  (329) 
-0.2

>  <r_i_glide_metal>  (329) 
-0

>  <r_i_glide_rewards>  (329) 
-2.01647

>  <r_i_glide_evdw>  (329) 
-14.8589

>  <r_i_glide_ecoul>  (329) 
-7.70704

>  <r_i_glide_erotb>  (329) 
0.394246

>  <r_i_glide_esite>  (329) 
-0.218001

>  <r_i_glide_emodel>  (329) 
-29.7841

>  <r_i_glide_energy>  (329) 
-22.566

>  <r_i_glide_einternal>  (329) 
3.4746

>  <r_i_glide_intrahb_reward>  (329) 
-0

>  <i_i_glide_confnum>  (329) 
2

>  <i_i_glide_posenum>  (329) 
2

>  <r_i_glide_eff_state_penalty>  (329) 
0

>  <ligand_id>  (329) 
88

>  <original_smiles>  (329) 
CCn1ncnc1C1CCn2cncc21

>  <smiles>  (329) 
[H]c1nc(C2([H])c3c([H])[n+]([H])c([H])n3C([H])([H])C2([H])[H])n(C([H])([H])C([H])([H])[H])n1

$$$$
88:0:2
     RDKit          3D

 29 31  0  0  1  0  0  0  0  0999 V2000
    6.7071  -11.5882    1.5037 C   0  0  0  0  0  0  0  0  0  0  0  0
    6.3309  -10.1488    1.1260 C   0  0  0  0  0  0  0  0  0  0  0  0
    6.1373   -9.3071    2.2953 N   0  0  0  0  0  0  0  0  0  0  0  0
    7.1904   -8.6292    2.7969 N   0  0  0  0  0  0  0  0  0  0  0  0
    6.6617   -7.9932    3.8333 C   0  0  0  0  0  0  0  0  0  0  0  0
    5.3265   -8.2022    4.0538 N   0  0  0  0  0  0  0  0  0  0  0  0
    5.0553   -9.0341    3.0473 C   0  0  0  0  0  0  0  0  0  0  0  0
    3.7058   -9.6062    2.7267 C   0  0  2  0  0  0  0  0  0  0  0  0
    2.7368   -8.6122    2.0281 C   0  0  0  0  0  0  0  0  0  0  0  0
    1.3188   -9.0902    2.4355 C   0  0  0  0  0  0  0  0  0  0  0  0
    1.6139   -9.7116    3.6923 N   0  0  0  0  0  0  0  0  0  0  0  0
    0.8449  -10.0766    4.7297 C   0  0  0  0  0  0  0  0  0  0  0  0
    1.6904  -10.6576    5.6026 N   0  0  0  0  0  0  0  0  0  0  0  0
    2.9795  -10.6379    5.1192 C   0  0  0  0  0  0  0  0  0  0  0  0
    2.9003  -10.0219    3.8937 C   0  0  0  0  0  0  0  0  0  0  0  0
    6.8324  -12.2294    0.6267 H   0  0  0  0  0  0  0  0  0  0  0  0
    5.9182  -12.0278    2.1131 H   0  0  0  0  0  0  0  0  0  0  0  0
    7.6293  -11.6114    2.0834 H   0  0  0  0  0  0  0  0  0  0  0  0
    7.1205   -9.7115    0.5128 H   0  0  0  0  0  0  0  0  0  0  0  0
    5.4296  -10.1536    0.5128 H   0  0  0  0  0  0  0  0  0  0  0  0
    7.2849   -7.3606    4.4503 H   0  0  0  0  0  0  0  0  0  0  0  0
    3.7973  -10.5046    2.1186 H   0  0  0  0  0  0  0  0  0  0  0  0
    2.8662   -7.6427    2.5104 H   0  0  0  0  0  0  0  0  0  0  0  0
    2.9164   -8.4640    0.9651 H   0  0  0  0  0  0  0  0  0  0  0  0
    0.5681   -8.3161    2.5881 H   0  0  0  0  0  0  0  0  0  0  0  0
    0.9582   -9.8767    1.7670 H   0  0  0  0  0  0  0  0  0  0  0  0
   -0.2067   -9.9213    4.8254 H   0  0  0  0  0  0  0  0  0  0  0  0
    3.8069  -11.0745    5.6633 H   0  0  0  0  0  0  0  0  0  0  0  0
    1.4226  -11.1287    6.4781 H   0  0  0  0  0  0  0  0  0  0  0  0
  1  2  1  0
  1 16  1  0
  1 17  1  0
  1 18  1  0
  2  3  1  0
  2 19  1  0
  2 20  1  0
  3  7  1  0
  3  4  1  0
  4  5  2  0
  5  6  1  0
  5 21  1  0
  6  7  2  0
  7  8  1  0
  8 15  1  0
  8  9  1  0
  8 22  1  6
  9 10  1  0
  9 23  1  0
  9 24  1  0
 10 11  1  0
 10 25  1  0
 10 26  1  0
 11 15  1  0
 11 12  1  0
 12 13  2  0
 12 27  1  0
 13 14  1  0
 13 29  1  0
 14 15  2  0
 14 28  1  0
M  CHG  1  13   1
M  END
>  <i_m_ct_stereo_status>  (330) 
1

>  <s_m_source_file>  (330) 
/var/tmp/pbs.5076255.sched01/tmpnhftudgm/135squ2m_dv.sdf

>  <i_m_source_file_index>  (330) 
2

>  <i_lp_mmshare_version>  (330) 
48012

>  <i_f3d_flags>  (330) 
0

>  <s_epik_input>  (330) 
W0NIM11bQ0gyXW4xbltjSF1uYzFbQ0BIXShbQ0gyXVtDSDJdMiljKG4yMylbY0hdbltjSF0z

>  <s_epik_cmdline>  (330) 
J2VwaWtfcHl0aG9uJywgJy1waHQnLCAnMi4wJywgJy1waCcsICc3LjAnLCAnLXRuJywgJzgnLCAnLW1hJywgJzIwMCcsICctaW1hZScsICc8aW5maWxlLm1hZT4nLCAnLW9tYWUnLCAnPG91dGZpbGUubWFlPic=

>  <r_lp_tautomer_probability>  (330) 
1

>  <r_epik_Ionization_Penalty>  (330) 
0.353833

>  <r_epik_Ionization_Penalty_Charging>  (330) 
0

>  <r_epik_Ionization_Penalty_Neutral>  (330) 
0.353833

>  <r_epik_State_Penalty>  (330) 
0.350227

>  <r_epik_Charging_Adjusted_Penalty>  (330) 
0.350227

>  <i_epik_Tot_Q>  (330) 
1

>  <i_epik_Tot_abs_Q>  (330) 
1

>  <s_lp_Force_Field>  (330) 
OPLS3e

>  <r_lp_Energy>  (330) 
23.4317

>  <b_lp_Chiralities_Consistent>  (330) 
1

>  <s_lp_Variant>  (330) 
88:0-1

>  <s_i_glide_gridfile>  (330) 
pfpi4k_grid

>  <i_i_glide_lignum>  (330) 
2

>  <i_i_glide_rotatable_bonds>  (330) 
2

>  <r_i_docking_score>  (330) 
-3.78167

>  <r_i_glide_ligand_efficiency>  (330) 
-0.252112

>  <r_i_glide_ligand_efficiency_sa>  (330) 
-0.621761

>  <r_i_glide_ligand_efficiency_ln>  (330) 
-1.01986

>  <r_i_glide_gscore>  (330) 
-3.78167

>  <r_i_glide_lipo>  (330) 
-0.037522

>  <r_i_glide_hbond>  (330) 
-0.2

>  <r_i_glide_metal>  (330) 
-0

>  <r_i_glide_rewards>  (330) 
-2.02375

>  <r_i_glide_evdw>  (330) 
-14.3137

>  <r_i_glide_ecoul>  (330) 
-6.97542

>  <r_i_glide_erotb>  (330) 
0.394246

>  <r_i_glide_esite>  (330) 
-0.152653

>  <r_i_glide_emodel>  (330) 
-29.7153

>  <r_i_glide_energy>  (330) 
-21.2891

>  <r_i_glide_einternal>  (330) 
0.0812364

>  <r_i_glide_intrahb_reward>  (330) 
-0

>  <i_i_glide_confnum>  (330) 
1

>  <i_i_glide_posenum>  (330) 
3

>  <r_i_glide_eff_state_penalty>  (330) 
0

>  <ligand_id>  (330) 
88

>  <original_smiles>  (330) 
CCn1ncnc1C1CCn2cncc21

>  <smiles>  (330) 
[H]c1nc(C2([H])c3c([H])[n+]([H])c([H])n3C([H])([H])C2([H])[H])n(C([H])([H])C([H])([H])[H])n1

$$$$
88:1:0
     RDKit          3D

 28 30  0  0  1  0  0  0  0  0999 V2000
    6.2777   -9.1346    2.9537 C   0  0  0  0  0  0  0  0  0  0  0  0
    5.2148   -9.3651    1.8806 C   0  0  0  0  0  0  0  0  0  0  0  0
    4.4200   -8.1591    1.5982 N   0  0  0  0  0  0  0  0  0  0  0  0
    5.0073   -7.1712    0.8896 N   0  0  0  0  0  0  0  0  0  0  0  0
    4.0653   -6.2329    0.8106 C   0  0  0  0  0  0  0  0  0  0  0  0
    2.8817   -6.5484    1.4233 N   0  0  0  0  0  0  0  0  0  0  0  0
    3.1785   -7.7691    1.8972 C   0  0  0  0  0  0  0  0  0  0  0  0
    2.2433   -8.6237    2.7212 C   0  0  2  0  0  0  0  0  0  0  0  0
    1.9034  -10.0223    2.1318 C   0  0  0  0  0  0  0  0  0  0  0  0
    0.4964  -10.3889    2.6641 C   0  0  0  0  0  0  0  0  0  0  0  0
   -0.0533   -9.0867    2.8843 N   0  0  0  0  0  0  0  0  0  0  0  0
   -1.2607   -8.5591    3.0102 C   0  0  0  0  0  0  0  0  0  0  0  0
   -1.2232   -7.2291    3.1604 N   0  0  0  0  0  0  0  0  0  0  0  0
    0.1444   -6.9212    3.1403 C   0  0  0  0  0  0  0  0  0  0  0  0
    0.8597   -8.0774    2.9151 C   0  0  0  0  0  0  0  0  0  0  0  0
    6.7974  -10.0658    3.1768 H   0  0  0  0  0  0  0  0  0  0  0  0
    5.8158   -8.7969    3.8758 H   0  0  0  0  0  0  0  0  0  0  0  0
    7.0182   -8.4026    2.6471 H   0  0  0  0  0  0  0  0  0  0  0  0
    5.6769   -9.6848    0.9471 H   0  0  0  0  0  0  0  0  0  0  0  0
    4.6099  -10.1935    2.2143 H   0  0  0  0  0  0  0  0  0  0  0  0
    4.2501   -5.2898    0.3057 H   0  0  0  0  0  0  0  0  0  0  0  0
    2.6843   -8.7391    3.7139 H   0  0  0  0  0  0  0  0  0  0  0  0
    1.8158   -9.8769    1.0531 H   0  0  0  0  0  0  0  0  0  0  0  0
    2.6053  -10.8337    2.3089 H   0  0  0  0  0  0  0  0  0  0  0  0
   -0.1048  -10.9781    1.9724 H   0  0  0  0  0  0  0  0  0  0  0  0
    0.5771  -10.8868    3.6312 H   0  0  0  0  0  0  0  0  0  0  0  0
   -2.1587   -9.1534    2.9807 H   0  0  0  0  0  0  0  0  0  0  0  0
    0.5071   -5.8946    3.2550 H   0  0  0  0  0  0  0  0  0  0  0  0
  1  2  1  0
  1 16  1  0
  1 17  1  0
  1 18  1  0
  2  3  1  0
  2 19  1  0
  2 20  1  0
  3  7  1  0
  3  4  1  0
  4  5  2  0
  5  6  1  0
  5 21  1  0
  6  7  2  0
  7  8  1  0
  8 15  1  0
  8  9  1  0
  8 22  1  1
  9 10  1  0
  9 23  1  0
  9 24  1  0
 10 11  1  0
 10 25  1  0
 10 26  1  0
 11 15  1  0
 11 12  1  0
 12 13  2  0
 12 27  1  0
 13 14  1  0
 14 15  2  0
 14 28  1  0
M  END
>  <i_m_ct_stereo_status>  (331) 
1

>  <s_m_source_file>  (331) 
/var/tmp/pbs.5076255.sched01/tmpnhftudgm/135squ2m_dv.sdf

>  <i_m_source_file_index>  (331) 
3

>  <i_lp_mmshare_version>  (331) 
48012

>  <i_f3d_flags>  (331) 
0

>  <s_epik_input>  (331) 
W0NIM11bQ0gyXW4xbltjSF1uYzFbQ0BIXShbQ0gyXVtDSDJdMiljKG4yMylbY0hdbltjSF0z

>  <s_epik_cmdline>  (331) 
J2VwaWtfcHl0aG9uJywgJy1waHQnLCAnMi4wJywgJy1waCcsICc3LjAnLCAnLXRuJywgJzgnLCAnLW1hJywgJzIwMCcsICctaW1hZScsICc8aW5maWxlLm1hZT4nLCAnLW9tYWUnLCAnPG91dGZpbGUubWFlPic=

>  <r_lp_tautomer_probability>  (331) 
1

>  <r_epik_Ionization_Penalty>  (331) 
0.473646

>  <r_epik_Ionization_Penalty_Charging>  (331) 
0.473575

>  <r_epik_Ionization_Penalty_Neutral>  (331) 
7.05086e-05

>  <r_epik_State_Penalty>  (331) 
0.478009

>  <r_epik_Charging_Adjusted_Penalty>  (331) 
0.951584

>  <i_epik_Tot_Q>  (331) 
0

>  <i_epik_Tot_abs_Q>  (331) 
0

>  <s_lp_Force_Field>  (331) 
OPLS3e

>  <r_lp_Energy>  (331) 
18.0913

>  <b_lp_Chiralities_Consistent>  (331) 
1

>  <s_lp_Variant>  (331) 
88:0-2

>  <s_i_glide_gridfile>  (331) 
pfpi4k_grid

>  <i_i_glide_lignum>  (331) 
3

>  <i_i_glide_rotatable_bonds>  (331) 
2

>  <r_i_docking_score>  (331) 
-3.75106

>  <r_i_glide_ligand_efficiency>  (331) 
-0.250071

>  <r_i_glide_ligand_efficiency_sa>  (331) 
-0.616728

>  <r_i_glide_ligand_efficiency_ln>  (331) 
-1.0116

>  <r_i_glide_gscore>  (331) 
-3.75106

>  <r_i_glide_lipo>  (331) 
-0.25419

>  <r_i_glide_hbond>  (331) 
-0.099153

>  <r_i_glide_metal>  (331) 
-0

>  <r_i_glide_rewards>  (331) 
-2.15989

>  <r_i_glide_evdw>  (331) 
-19.911

>  <r_i_glide_ecoul>  (331) 
-3.77768

>  <r_i_glide_erotb>  (331) 
0.397518

>  <r_i_glide_esite>  (331) 
-0.0731465

>  <r_i_glide_emodel>  (331) 
-28.9093

>  <r_i_glide_energy>  (331) 
-23.6886

>  <r_i_glide_einternal>  (331) 
1.29465

>  <r_i_glide_intrahb_reward>  (331) 
-0

>  <i_i_glide_confnum>  (331) 
1

>  <i_i_glide_posenum>  (331) 
28

>  <r_i_glide_eff_state_penalty>  (331) 
0

>  <ligand_id>  (331) 
88

>  <original_smiles>  (331) 
CCn1ncnc1C1CCn2cncc21

>  <smiles>  (331) 
[H]c1nc(C2([H])c3c([H])nc([H])n3C([H])([H])C2([H])[H])n(C([H])([H])C([H])([H])[H])n1

$$$$
88:1:1
     RDKit          3D

 28 30  0  0  1  0  0  0  0  0999 V2000
    5.8788   -9.5869    1.3058 C   0  0  0  0  0  0  0  0  0  0  0  0
    5.3515   -8.6165    2.3707 C   0  0  0  0  0  0  0  0  0  0  0  0
    4.4076   -7.6454    1.8153 N   0  0  0  0  0  0  0  0  0  0  0  0
    4.8719   -6.6559    1.0243 N   0  0  0  0  0  0  0  0  0  0  0  0
    3.7677   -5.9808    0.7070 C   0  0  0  0  0  0  0  0  0  0  0  0
    2.6073   -6.4563    1.2479 N   0  0  0  0  0  0  0  0  0  0  0  0
    3.0763   -7.5017    1.9347 C   0  0  0  0  0  0  0  0  0  0  0  0
    2.2375   -8.4567    2.7463 C   0  0  2  0  0  0  0  0  0  0  0  0
    2.0547   -9.8628    2.1142 C   0  0  0  0  0  0  0  0  0  0  0  0
    0.7034  -10.3885    2.6831 C   0  0  0  0  0  0  0  0  0  0  0  0
    0.0154   -9.1533    2.9192 N   0  0  0  0  0  0  0  0  0  0  0  0
   -1.2376   -8.7394    3.1155 C   0  0  0  0  0  0  0  0  0  0  0  0
   -1.3168   -7.4160    3.3036 N   0  0  0  0  0  0  0  0  0  0  0  0
    0.0128   -6.9789    3.2486 C   0  0  0  0  0  0  0  0  0  0  0  0
    0.8192   -8.0599    2.9797 C   0  0  0  0  0  0  0  0  0  0  0  0
    6.5807  -10.3033    1.7322 H   0  0  0  0  0  0  0  0  0  0  0  0
    6.3958   -9.0674    0.5023 H   0  0  0  0  0  0  0  0  0  0  0  0
    5.0606  -10.1543    0.8686 H   0  0  0  0  0  0  0  0  0  0  0  0
    4.9020   -9.1760    3.1906 H   0  0  0  0  0  0  0  0  0  0  0  0
    6.1915   -8.0690    2.8002 H   0  0  0  0  0  0  0  0  0  0  0  0
    3.8138   -5.1191    0.0632 H   0  0  0  0  0  0  0  0  0  0  0  0
    2.7006   -8.5695    3.7284 H   0  0  0  0  0  0  0  0  0  0  0  0
    1.9105   -9.7266    1.0410 H   0  0  0  0  0  0  0  0  0  0  0  0
    2.9032  -10.5381    2.2267 H   0  0  0  0  0  0  0  0  0  0  0  0
    0.1372  -11.0316    2.0138 H   0  0  0  0  0  0  0  0  0  0  0  0
    0.8523  -10.8894    3.6483 H   0  0  0  0  0  0  0  0  0  0  0  0
   -2.0821   -9.4041    3.1048 H   0  0  0  0  0  0  0  0  0  0  0  0
    0.2755   -5.9419    3.3953 H   0  0  0  0  0  0  0  0  0  0  0  0
  1  2  1  0
  1 16  1  0
  1 17  1  0
  1 18  1  0
  2  3  1  0
  2 19  1  0
  2 20  1  0
  3  7  1  0
  3  4  1  0
  4  5  2  0
  5  6  1  0
  5 21  1  0
  6  7  2  0
  7  8  1  0
  8 15  1  0
  8  9  1  0
  8 22  1  1
  9 10  1  0
  9 23  1  0
  9 24  1  0
 10 11  1  0
 10 25  1  0
 10 26  1  0
 11 15  1  0
 11 12  1  0
 12 13  2  0
 12 27  1  0
 13 14  1  0
 14 15  2  0
 14 28  1  0
M  END
>  <i_m_ct_stereo_status>  (332) 
1

>  <s_m_source_file>  (332) 
/var/tmp/pbs.5076255.sched01/tmpnhftudgm/135squ2m_dv.sdf

>  <i_m_source_file_index>  (332) 
3

>  <i_lp_mmshare_version>  (332) 
48012

>  <i_f3d_flags>  (332) 
0

>  <s_epik_input>  (332) 
W0NIM11bQ0gyXW4xbltjSF1uYzFbQ0BIXShbQ0gyXVtDSDJdMiljKG4yMylbY0hdbltjSF0z

>  <s_epik_cmdline>  (332) 
J2VwaWtfcHl0aG9uJywgJy1waHQnLCAnMi4wJywgJy1waCcsICc3LjAnLCAnLXRuJywgJzgnLCAnLW1hJywgJzIwMCcsICctaW1hZScsICc8aW5maWxlLm1hZT4nLCAnLW9tYWUnLCAnPG91dGZpbGUubWFlPic=

>  <r_lp_tautomer_probability>  (332) 
1

>  <r_epik_Ionization_Penalty>  (332) 
0.473646

>  <r_epik_Ionization_Penalty_Charging>  (332) 
0.473575

>  <r_epik_Ionization_Penalty_Neutral>  (332) 
7.05086e-05

>  <r_epik_State_Penalty>  (332) 
0.478009

>  <r_epik_Charging_Adjusted_Penalty>  (332) 
0.951584

>  <i_epik_Tot_Q>  (332) 
0

>  <i_epik_Tot_abs_Q>  (332) 
0

>  <s_lp_Force_Field>  (332) 
OPLS3e

>  <r_lp_Energy>  (332) 
18.0913

>  <b_lp_Chiralities_Consistent>  (332) 
1

>  <s_lp_Variant>  (332) 
88:0-2

>  <s_i_glide_gridfile>  (332) 
pfpi4k_grid

>  <i_i_glide_lignum>  (332) 
3

>  <i_i_glide_rotatable_bonds>  (332) 
2

>  <r_i_docking_score>  (332) 
-3.6216

>  <r_i_glide_ligand_efficiency>  (332) 
-0.24144

>  <r_i_glide_ligand_efficiency_sa>  (332) 
-0.595442

>  <r_i_glide_ligand_efficiency_ln>  (332) 
-0.976686

>  <r_i_glide_gscore>  (332) 
-3.6216

>  <r_i_glide_lipo>  (332) 
-0.244676

>  <r_i_glide_hbond>  (332) 
-0.0126899

>  <r_i_glide_metal>  (332) 
-0

>  <r_i_glide_rewards>  (332) 
-2.15421

>  <r_i_glide_evdw>  (332) 
-20.439

>  <r_i_glide_ecoul>  (332) 
-3.34577

>  <r_i_glide_erotb>  (332) 
0.397518

>  <r_i_glide_esite>  (332) 
-0.0837255

>  <r_i_glide_emodel>  (332) 
-29.5052

>  <r_i_glide_energy>  (332) 
-23.7847

>  <r_i_glide_einternal>  (332) 
0.489227

>  <r_i_glide_intrahb_reward>  (332) 
-0

>  <i_i_glide_confnum>  (332) 
1

>  <i_i_glide_posenum>  (332) 
16

>  <r_i_glide_eff_state_penalty>  (332) 
0

>  <ligand_id>  (332) 
88

>  <original_smiles>  (332) 
CCn1ncnc1C1CCn2cncc21

>  <smiles>  (332) 
[H]c1nc(C2([H])c3c([H])nc([H])n3C([H])([H])C2([H])[H])n(C([H])([H])C([H])([H])[H])n1

$$$$
88:1:2
     RDKit          3D

 28 30  0  0  1  0  0  0  0  0999 V2000
    5.9429   -6.4187    3.0191 C   0  0  0  0  0  0  0  0  0  0  0  0
    5.2727   -7.2114    1.8875 C   0  0  0  0  0  0  0  0  0  0  0  0
    4.0875   -6.5319    1.3713 N   0  0  0  0  0  0  0  0  0  0  0  0
    4.2448   -5.5042    0.5097 N   0  0  0  0  0  0  0  0  0  0  0  0
    2.9903   -5.1264    0.2678 C   0  0  0  0  0  0  0  0  0  0  0  0
    2.0155   -5.8505    0.8977 N   0  0  0  0  0  0  0  0  0  0  0  0
    2.7714   -6.7046    1.5941 C   0  0  0  0  0  0  0  0  0  0  0  0
    2.2560   -7.7836    2.5098 C   0  0  2  0  0  0  0  0  0  0  0  0
    2.2093   -9.2021    1.8800 C   0  0  0  0  0  0  0  0  0  0  0  0
    1.0762   -9.9461    2.6396 C   0  0  0  0  0  0  0  0  0  0  0  0
    0.2451   -8.8462    3.0197 N   0  0  0  0  0  0  0  0  0  0  0  0
   -1.0134   -8.6537    3.4282 C   0  0  0  0  0  0  0  0  0  0  0  0
   -1.2758   -7.3568    3.6662 N   0  0  0  0  0  0  0  0  0  0  0  0
   -0.0600   -6.7031    3.4191 C   0  0  0  0  0  0  0  0  0  0  0  0
    0.8548   -7.6317    2.9830 C   0  0  0  0  0  0  0  0  0  0  0  0
    6.8217   -6.9356    3.4115 H   0  0  0  0  0  0  0  0  0  0  0  0
    5.2484   -6.2637    3.8431 H   0  0  0  0  0  0  0  0  0  0  0  0
    6.2710   -5.4380    2.6735 H   0  0  0  0  0  0  0  0  0  0  0  0
    5.9822   -7.3297    1.0683 H   0  0  0  0  0  0  0  0  0  0  0  0
    5.0289   -8.2183    2.2268 H   0  0  0  0  0  0  0  0  0  0  0  0
    2.7892   -4.3052   -0.4049 H   0  0  0  0  0  0  0  0  0  0  0  0
    2.8918   -7.8196    3.3948 H   0  0  0  0  0  0  0  0  0  0  0  0
    1.8491   -9.0802    0.8605 H   0  0  0  0  0  0  0  0  0  0  0  0
    3.1634   -9.7250    1.8182 H   0  0  0  0  0  0  0  0  0  0  0  0
    0.5218  -10.6732    2.0528 H   0  0  0  0  0  0  0  0  0  0  0  0
    1.4674  -10.4120    3.5504 H   0  0  0  0  0  0  0  0  0  0  0  0
   -1.7358   -9.4396    3.5242 H   0  0  0  0  0  0  0  0  0  0  0  0
    0.0453   -5.6362    3.5689 H   0  0  0  0  0  0  0  0  0  0  0  0
  1  2  1  0
  1 16  1  0
  1 17  1  0
  1 18  1  0
  2  3  1  0
  2 19  1  0
  2 20  1  0
  3  7  1  0
  3  4  1  0
  4  5  2  0
  5  6  1  0
  5 21  1  0
  6  7  2  0
  7  8  1  0
  8 15  1  0
  8  9  1  0
  8 22  1  1
  9 10  1  0
  9 23  1  0
  9 24  1  0
 10 11  1  0
 10 25  1  0
 10 26  1  0
 11 15  1  0
 11 12  1  0
 12 13  2  0
 12 27  1  0
 13 14  1  0
 14 15  2  0
 14 28  1  0
M  END
>  <i_m_ct_stereo_status>  (333) 
1

>  <s_m_source_file>  (333) 
/var/tmp/pbs.5076255.sched01/tmpnhftudgm/135squ2m_dv.sdf

>  <i_m_source_file_index>  (333) 
3

>  <i_lp_mmshare_version>  (333) 
48012

>  <i_f3d_flags>  (333) 
0

>  <s_epik_input>  (333) 
W0NIM11bQ0gyXW4xbltjSF1uYzFbQ0BIXShbQ0gyXVtDSDJdMiljKG4yMylbY0hdbltjSF0z

>  <s_epik_cmdline>  (333) 
J2VwaWtfcHl0aG9uJywgJy1waHQnLCAnMi4wJywgJy1waCcsICc3LjAnLCAnLXRuJywgJzgnLCAnLW1hJywgJzIwMCcsICctaW1hZScsICc8aW5maWxlLm1hZT4nLCAnLW9tYWUnLCAnPG91dGZpbGUubWFlPic=

>  <r_lp_tautomer_probability>  (333) 
1

>  <r_epik_Ionization_Penalty>  (333) 
0.473646

>  <r_epik_Ionization_Penalty_Charging>  (333) 
0.473575

>  <r_epik_Ionization_Penalty_Neutral>  (333) 
7.05086e-05

>  <r_epik_State_Penalty>  (333) 
0.478009

>  <r_epik_Charging_Adjusted_Penalty>  (333) 
0.951584

>  <i_epik_Tot_Q>  (333) 
0

>  <i_epik_Tot_abs_Q>  (333) 
0

>  <s_lp_Force_Field>  (333) 
OPLS3e

>  <r_lp_Energy>  (333) 
18.0913

>  <b_lp_Chiralities_Consistent>  (333) 
1

>  <s_lp_Variant>  (333) 
88:0-2

>  <s_i_glide_gridfile>  (333) 
pfpi4k_grid

>  <i_i_glide_lignum>  (333) 
3

>  <i_i_glide_rotatable_bonds>  (333) 
2

>  <r_i_docking_score>  (333) 
-3.61538

>  <r_i_glide_ligand_efficiency>  (333) 
-0.241026

>  <r_i_glide_ligand_efficiency_sa>  (333) 
-0.59442

>  <r_i_glide_ligand_efficiency_ln>  (333) 
-0.975009

>  <r_i_glide_gscore>  (333) 
-3.61538

>  <r_i_glide_lipo>  (333) 
-0.246058

>  <r_i_glide_hbond>  (333) 
-0.00668968

>  <r_i_glide_metal>  (333) 
-0

>  <r_i_glide_rewards>  (333) 
-2.1304

>  <r_i_glide_evdw>  (333) 
-18.1285

>  <r_i_glide_ecoul>  (333) 
-3.91961

>  <r_i_glide_erotb>  (333) 
0.397518

>  <r_i_glide_esite>  (333) 
-0.135387

>  <r_i_glide_emodel>  (333) 
-27.7603

>  <r_i_glide_energy>  (333) 
-22.0481

>  <r_i_glide_einternal>  (333) 
0.240692

>  <r_i_glide_intrahb_reward>  (333) 
-0

>  <i_i_glide_confnum>  (333) 
3

>  <i_i_glide_posenum>  (333) 
37

>  <r_i_glide_eff_state_penalty>  (333) 
0

>  <ligand_id>  (333) 
88

>  <original_smiles>  (333) 
CCn1ncnc1C1CCn2cncc21

>  <smiles>  (333) 
[H]c1nc(C2([H])c3c([H])nc([H])n3C([H])([H])C2([H])[H])n(C([H])([H])C([H])([H])[H])n1

$$$$
90:0:0
     RDKit          3D

 30 33  0  0  1  0  0  0  0  0999 V2000
    5.4268   -9.0910    2.6629 C   0  0  0  0  0  0  0  0  0  0  0  0
    6.1515   -7.8548    2.3948 N   0  0  0  0  0  0  0  0  0  0  0  0
    7.4785   -7.8566    2.7015 N   0  0  0  0  0  0  0  0  0  0  0  0
    7.9288   -6.6653    2.3507 C   0  0  0  0  0  0  0  0  0  0  0  0
    6.8784   -5.8708    1.8152 C   0  0  0  0  0  0  0  0  0  0  0  0
    7.1093   -4.2498    1.2734 Cl  0  0  0  0  0  0  0  0  0  0  0  0
    5.7384   -6.6335    1.8424 C   0  0  0  0  0  0  0  0  0  0  0  0
    4.3576   -6.3424    1.4235 C   0  0  0  0  0  0  0  0  0  0  0  0
    3.2245   -7.0052    1.8040 N   0  0  0  0  0  0  0  0  0  0  0  0
    2.0734   -6.4098    1.1855 O   0  0  0  0  0  0  0  0  0  0  0  0
    2.6906   -5.4412    0.4700 C   0  0  0  0  0  0  0  0  0  0  0  0
    2.1742   -4.4862   -0.4036 C   0  0  0  0  0  0  0  0  0  0  0  0
    3.4309   -3.8570   -0.7738 C   0  0  0  0  0  0  0  0  0  0  0  0
    3.6036   -2.7524   -1.7190 C   0  0  0  0  0  0  0  0  0  0  0  0
    2.8176   -2.6501   -2.8877 C   0  0  0  0  0  0  0  0  0  0  0  0
    3.0137   -1.5448   -3.7299 C   0  0  0  0  0  0  0  0  0  0  0  0
    3.9128   -0.5783   -3.4899 N   0  0  0  0  0  0  0  0  0  0  0  0
    4.6245   -0.6655   -2.3539 C   0  0  0  0  0  0  0  0  0  0  0  0
    4.5356   -1.7333   -1.4470 C   0  0  0  0  0  0  0  0  0  0  0  0
    4.5258   -4.4292   -0.1916 N   0  0  0  0  0  0  0  0  0  0  0  0
    3.9737   -5.3887    0.5666 N   0  0  0  0  0  0  0  0  0  0  0  0
    4.4677   -8.8973    3.1372 H   0  0  0  0  0  0  0  0  0  0  0  0
    5.9966   -9.7244    3.3479 H   0  0  0  0  0  0  0  0  0  0  0  0
    5.2763   -9.6473    1.7364 H   0  0  0  0  0  0  0  0  0  0  0  0
    8.9740   -6.4145    2.4964 H   0  0  0  0  0  0  0  0  0  0  0  0
    1.1445   -4.3828   -0.7248 H   0  0  0  0  0  0  0  0  0  0  0  0
    2.0657   -3.3909   -3.1370 H   0  0  0  0  0  0  0  0  0  0  0  0
    2.4441   -1.4079   -4.6370 H   0  0  0  0  0  0  0  0  0  0  0  0
    5.3447    0.1194   -2.2036 H   0  0  0  0  0  0  0  0  0  0  0  0
    5.1472   -1.7623   -0.5576 H   0  0  0  0  0  0  0  0  0  0  0  0
  1  2  1  0
  1 22  1  0
  1 23  1  0
  1 24  1  0
  2  7  1  0
  2  3  1  0
  3  4  2  0
  4  5  1  0
  4 25  1  0
  5  6  1  0
  5  7  2  0
  7  8  1  0
  8 21  1  0
  8  9  2  0
  9 10  1  0
 10 11  1  0
 11 21  1  0
 11 12  2  0
 12 13  1  0
 12 26  1  0
 13 14  1  0
 13 20  2  0
 14 19  1  0
 14 15  2  0
 15 16  1  0
 15 27  1  0
 16 17  2  0
 16 28  1  0
 17 18  1  0
 18 19  2  0
 18 29  1  0
 19 30  1  0
 20 21  1  0
M  END
>  <i_m_ct_stereo_status>  (334) 
1

>  <s_m_source_file>  (334) 
/var/tmp/pbs.5076255.sched01/tmpnhftudgm/135squ2m_dv.sdf

>  <i_m_source_file_index>  (334) 
5

>  <i_lp_mmshare_version>  (334) 
48012

>  <i_f3d_flags>  (334) 
0

>  <s_epik_input>  (334) 
W0NIM11uMW5bY0hdYyhDbCljMS1jKG5vMiluKGMyMyluYyhbY0hdMyktYzRbY0hdW2NIXW5bY0hdW2NIXTQ=

>  <s_epik_cmdline>  (334) 
J2VwaWtfcHl0aG9uJywgJy1waHQnLCAnMi4wJywgJy1waCcsICc3LjAnLCAnLXRuJywgJzgnLCAnLW1hJywgJzIwMCcsICctaW1hZScsICc8aW5maWxlLm1hZT4nLCAnLW9tYWUnLCAnPG91dGZpbGUubWFlPic=

>  <r_lp_tautomer_probability>  (334) 
1

>  <r_epik_Ionization_Penalty>  (334) 
0.00470942

>  <r_epik_Ionization_Penalty_Charging>  (334) 
0

>  <r_epik_Ionization_Penalty_Neutral>  (334) 
0.00470942

>  <r_epik_State_Penalty>  (334) 
0.00340952

>  <r_epik_Charging_Adjusted_Penalty>  (334) 
0.00340952

>  <i_epik_Tot_Q>  (334) 
0

>  <i_epik_Tot_abs_Q>  (334) 
0

>  <s_lp_Force_Field>  (334) 
OPLS3e

>  <r_lp_Energy>  (334) 
20.6983

>  <b_lp_Chiralities_Consistent>  (334) 
1

>  <s_lp_Variant>  (334) 
90:0-1

>  <s_i_glide_gridfile>  (334) 
pfpi4k_grid

>  <i_i_glide_lignum>  (334) 
5

>  <i_i_glide_rotatable_bonds>  (334) 
2

>  <r_i_docking_score>  (334) 
-3.10366

>  <r_i_glide_ligand_efficiency>  (334) 
-0.147793

>  <r_i_glide_ligand_efficiency_sa>  (334) 
-0.40775

>  <r_i_glide_ligand_efficiency_ln>  (334) 
-0.767373

>  <r_i_glide_gscore>  (334) 
-3.10366

>  <r_i_glide_lipo>  (334) 
-0.415298

>  <r_i_glide_hbond>  (334) 
0

>  <r_i_glide_metal>  (334) 
-0

>  <r_i_glide_rewards>  (334) 
-1.52734

>  <r_i_glide_evdw>  (334) 
-25.1605

>  <r_i_glide_ecoul>  (334) 
-1.8812

>  <r_i_glide_erotb>  (334) 
0.406664

>  <r_i_glide_esite>  (334) 
-0.0274752

>  <r_i_glide_emodel>  (334) 
-31.1798

>  <r_i_glide_energy>  (334) 
-27.0417

>  <r_i_glide_einternal>  (334) 
1.81431

>  <r_i_glide_intrahb_reward>  (334) 
-0

>  <i_i_glide_confnum>  (334) 
5

>  <i_i_glide_posenum>  (334) 
24

>  <r_i_glide_eff_state_penalty>  (334) 
0

>  <ligand_id>  (334) 
90

>  <original_smiles>  (334) 
Cn1ncc(Cl)c1-c1noc2cc(-c3ccncc3)nn12

>  <smiles>  (334) 
[H]c1nc([H])c([H])c(-c2nn3c(-c4c(Cl)c([H])nn4C([H])([H])[H])noc3c2[H])c1[H]

$$$$
90:0:1
     RDKit          3D

 30 33  0  0  1  0  0  0  0  0999 V2000
    3.5107   -2.5188   -0.9527 C   0  0  0  0  0  0  0  0  0  0  0  0
    4.3998   -1.8497   -0.0238 N   0  0  0  0  0  0  0  0  0  0  0  0
    5.6235   -1.4565   -0.4693 N   0  0  0  0  0  0  0  0  0  0  0  0
    6.2018   -0.8727    0.5692 C   0  0  0  0  0  0  0  0  0  0  0  0
    5.3463   -0.8926    1.7026 C   0  0  0  0  0  0  0  0  0  0  0  0
    5.6895   -0.2603    3.2758 Cl  0  0  0  0  0  0  0  0  0  0  0  0
    4.2047   -1.5183    1.3092 C   0  0  0  0  0  0  0  0  0  0  0  0
    2.9814   -1.8110    2.0609 C   0  0  0  0  0  0  0  0  0  0  0  0
    2.5499   -3.0488    2.4175 N   0  0  0  0  0  0  0  0  0  0  0  0
    1.3408   -2.8961    3.1881 O   0  0  0  0  0  0  0  0  0  0  0  0
    1.1841   -1.5570    3.1720 C   0  0  0  0  0  0  0  0  0  0  0  0
    0.2146   -0.7186    3.6986 C   0  0  0  0  0  0  0  0  0  0  0  0
    0.7662    0.5506    3.2482 C   0  0  0  0  0  0  0  0  0  0  0  0
    0.1852    1.8778    3.4967 C   0  0  0  0  0  0  0  0  0  0  0  0
    0.9832    3.0415    3.5050 C   0  0  0  0  0  0  0  0  0  0  0  0
    0.3725    4.2849    3.7608 C   0  0  0  0  0  0  0  0  0  0  0  0
   -0.9405    4.4317    4.0364 N   0  0  0  0  0  0  0  0  0  0  0  0
   -1.6983    3.3194    4.0286 C   0  0  0  0  0  0  0  0  0  0  0  0
   -1.1877    2.0302    3.7809 C   0  0  0  0  0  0  0  0  0  0  0  0
    1.9412    0.4275    2.5431 N   0  0  0  0  0  0  0  0  0  0  0  0
    2.1109   -0.9071    2.5352 N   0  0  0  0  0  0  0  0  0  0  0  0
    3.0271   -3.3752   -0.4790 H   0  0  0  0  0  0  0  0  0  0  0  0
    4.0662   -2.8745   -1.8233 H   0  0  0  0  0  0  0  0  0  0  0  0
    2.7480   -1.8230   -1.3034 H   0  0  0  0  0  0  0  0  0  0  0  0
    7.1941   -0.4589    0.4600 H   0  0  0  0  0  0  0  0  0  0  0  0
   -0.6501   -1.0492    4.2518 H   0  0  0  0  0  0  0  0  0  0  0  0
    2.0413    2.9896    3.3027 H   0  0  0  0  0  0  0  0  0  0  0  0
    0.9568    5.1914    3.7548 H   0  0  0  0  0  0  0  0  0  0  0  0
   -2.7460    3.4732    4.2348 H   0  0  0  0  0  0  0  0  0  0  0  0
   -1.8657    1.1893    3.8006 H   0  0  0  0  0  0  0  0  0  0  0  0
  1  2  1  0
  1 22  1  0
  1 23  1  0
  1 24  1  0
  2  7  1  0
  2  3  1  0
  3  4  2  0
  4  5  1  0
  4 25  1  0
  5  6  1  0
  5  7  2  0
  7  8  1  0
  8 21  1  0
  8  9  2  0
  9 10  1  0
 10 11  1  0
 11 21  1  0
 11 12  2  0
 12 13  1  0
 12 26  1  0
 13 14  1  0
 13 20  2  0
 14 19  1  0
 14 15  2  0
 15 16  1  0
 15 27  1  0
 16 17  2  0
 16 28  1  0
 17 18  1  0
 18 19  2  0
 18 29  1  0
 19 30  1  0
 20 21  1  0
M  END
>  <i_m_ct_stereo_status>  (335) 
1

>  <s_m_source_file>  (335) 
/var/tmp/pbs.5076255.sched01/tmpnhftudgm/135squ2m_dv.sdf

>  <i_m_source_file_index>  (335) 
5

>  <i_lp_mmshare_version>  (335) 
48012

>  <i_f3d_flags>  (335) 
0

>  <s_epik_input>  (335) 
W0NIM11uMW5bY0hdYyhDbCljMS1jKG5vMiluKGMyMyluYyhbY0hdMyktYzRbY0hdW2NIXW5bY0hdW2NIXTQ=

>  <s_epik_cmdline>  (335) 
J2VwaWtfcHl0aG9uJywgJy1waHQnLCAnMi4wJywgJy1waCcsICc3LjAnLCAnLXRuJywgJzgnLCAnLW1hJywgJzIwMCcsICctaW1hZScsICc8aW5maWxlLm1hZT4nLCAnLW9tYWUnLCAnPG91dGZpbGUubWFlPic=

>  <r_lp_tautomer_probability>  (335) 
1

>  <r_epik_Ionization_Penalty>  (335) 
0.00470942

>  <r_epik_Ionization_Penalty_Charging>  (335) 
0

>  <r_epik_Ionization_Penalty_Neutral>  (335) 
0.00470942

>  <r_epik_State_Penalty>  (335) 
0.00340952

>  <r_epik_Charging_Adjusted_Penalty>  (335) 
0.00340952

>  <i_epik_Tot_Q>  (335) 
0

>  <i_epik_Tot_abs_Q>  (335) 
0

>  <s_lp_Force_Field>  (335) 
OPLS3e

>  <r_lp_Energy>  (335) 
20.6983

>  <b_lp_Chiralities_Consistent>  (335) 
1

>  <s_lp_Variant>  (335) 
90:0-1

>  <s_i_glide_gridfile>  (335) 
pfpi4k_grid

>  <i_i_glide_lignum>  (335) 
5

>  <i_i_glide_rotatable_bonds>  (335) 
2

>  <r_i_docking_score>  (335) 
-3.0666

>  <r_i_glide_ligand_efficiency>  (335) 
-0.146028

>  <r_i_glide_ligand_efficiency_sa>  (335) 
-0.402881

>  <r_i_glide_ligand_efficiency_ln>  (335) 
-0.75821

>  <r_i_glide_gscore>  (335) 
-3.0666

>  <r_i_glide_lipo>  (335) 
-0.348833

>  <r_i_glide_hbond>  (335) 
-0.00298689

>  <r_i_glide_metal>  (335) 
-0

>  <r_i_glide_rewards>  (335) 
-1.35884

>  <r_i_glide_evdw>  (335) 
-23.092

>  <r_i_glide_ecoul>  (335) 
-3.68376

>  <r_i_glide_erotb>  (335) 
0.406664

>  <r_i_glide_esite>  (335) 
-0.0554352

>  <r_i_glide_emodel>  (335) 
-30.8384

>  <r_i_glide_energy>  (335) 
-26.7757

>  <r_i_glide_einternal>  (335) 
2.18323

>  <r_i_glide_intrahb_reward>  (335) 
-0

>  <i_i_glide_confnum>  (335) 
2

>  <i_i_glide_posenum>  (335) 
19

>  <r_i_glide_eff_state_penalty>  (335) 
0

>  <ligand_id>  (335) 
90

>  <original_smiles>  (335) 
Cn1ncc(Cl)c1-c1noc2cc(-c3ccncc3)nn12

>  <smiles>  (335) 
[H]c1nc([H])c([H])c(-c2nn3c(-c4c(Cl)c([H])nn4C([H])([H])[H])noc3c2[H])c1[H]

$$$$
90:0:2
     RDKit          3D

 30 33  0  0  1  0  0  0  0  0999 V2000
    2.2126    0.2194    1.5108 C   0  0  0  0  0  0  0  0  0  0  0  0
    1.7142   -0.6213    2.5824 N   0  0  0  0  0  0  0  0  0  0  0  0
    2.4159   -1.7472    2.8811 N   0  0  0  0  0  0  0  0  0  0  0  0
    1.7820   -2.3058    3.8982 C   0  0  0  0  0  0  0  0  0  0  0  0
    0.6419   -1.5407    4.2570 C   0  0  0  0  0  0  0  0  0  0  0  0
   -0.5000   -1.9399    5.4932 Cl  0  0  0  0  0  0  0  0  0  0  0  0
    0.6088   -0.4661    3.4137 C   0  0  0  0  0  0  0  0  0  0  0  0
   -0.3395    0.6538    3.3411 C   0  0  0  0  0  0  0  0  0  0  0  0
   -0.8097    1.2304    2.2006 N   0  0  0  0  0  0  0  0  0  0  0  0
   -1.7287    2.2789    2.5757 O   0  0  0  0  0  0  0  0  0  0  0  0
   -1.6723    2.2153    3.9140 C   0  0  0  0  0  0  0  0  0  0  0  0
   -2.2900    2.9518    4.9144 C   0  0  0  0  0  0  0  0  0  0  0  0
   -1.7117    2.2754    6.0671 C   0  0  0  0  0  0  0  0  0  0  0  0
   -1.9920    2.5765    7.4705 C   0  0  0  0  0  0  0  0  0  0  0  0
   -0.9674    2.5588    8.4412 C   0  0  0  0  0  0  0  0  0  0  0  0
   -1.2951    2.8754    9.7731 C   0  0  0  0  0  0  0  0  0  0  0  0
   -2.5374    3.1979   10.1694 N   0  0  0  0  0  0  0  0  0  0  0  0
   -3.5144    3.2169    9.2483 C   0  0  0  0  0  0  0  0  0  0  0  0
   -3.2892    2.9256    7.8899 C   0  0  0  0  0  0  0  0  0  0  0  0
   -0.8410    1.2686    5.7373 N   0  0  0  0  0  0  0  0  0  0  0  0
   -0.8862    1.3011    4.3838 N   0  0  0  0  0  0  0  0  0  0  0  0
    1.3918    0.5579    0.8763 H   0  0  0  0  0  0  0  0  0  0  0  0
    2.9113   -0.3352    0.8809 H   0  0  0  0  0  0  0  0  0  0  0  0
    2.7304    1.0864    1.9222 H   0  0  0  0  0  0  0  0  0  0  0  0
    2.1609   -3.2288    4.3165 H   0  0  0  0  0  0  0  0  0  0  0  0
   -2.9833    3.7570    4.7438 H   0  0  0  0  0  0  0  0  0  0  0  0
    0.0519    2.3317    8.1711 H   0  0  0  0  0  0  0  0  0  0  0  0
   -0.5397    2.8781   10.5443 H   0  0  0  0  0  0  0  0  0  0  0  0
   -4.5035    3.4328    9.6195 H   0  0  0  0  0  0  0  0  0  0  0  0
   -4.1235    2.9440    7.2024 H   0  0  0  0  0  0  0  0  0  0  0  0
  1  2  1  0
  1 22  1  0
  1 23  1  0
  1 24  1  0
  2  7  1  0
  2  3  1  0
  3  4  2  0
  4  5  1  0
  4 25  1  0
  5  6  1  0
  5  7  2  0
  7  8  1  0
  8 21  1  0
  8  9  2  0
  9 10  1  0
 10 11  1  0
 11 21  1  0
 11 12  2  0
 12 13  1  0
 12 26  1  0
 13 14  1  0
 13 20  2  0
 14 19  1  0
 14 15  2  0
 15 16  1  0
 15 27  1  0
 16 17  2  0
 16 28  1  0
 17 18  1  0
 18 19  2  0
 18 29  1  0
 19 30  1  0
 20 21  1  0
M  END
>  <i_m_ct_stereo_status>  (336) 
1

>  <s_m_source_file>  (336) 
/var/tmp/pbs.5076255.sched01/tmpnhftudgm/135squ2m_dv.sdf

>  <i_m_source_file_index>  (336) 
5

>  <i_lp_mmshare_version>  (336) 
48012

>  <i_f3d_flags>  (336) 
0

>  <s_epik_input>  (336) 
W0NIM11uMW5bY0hdYyhDbCljMS1jKG5vMiluKGMyMyluYyhbY0hdMyktYzRbY0hdW2NIXW5bY0hdW2NIXTQ=

>  <s_epik_cmdline>  (336) 
J2VwaWtfcHl0aG9uJywgJy1waHQnLCAnMi4wJywgJy1waCcsICc3LjAnLCAnLXRuJywgJzgnLCAnLW1hJywgJzIwMCcsICctaW1hZScsICc8aW5maWxlLm1hZT4nLCAnLW9tYWUnLCAnPG91dGZpbGUubWFlPic=

>  <r_lp_tautomer_probability>  (336) 
1

>  <r_epik_Ionization_Penalty>  (336) 
0.00470942

>  <r_epik_Ionization_Penalty_Charging>  (336) 
0

>  <r_epik_Ionization_Penalty_Neutral>  (336) 
0.00470942

>  <r_epik_State_Penalty>  (336) 
0.00340952

>  <r_epik_Charging_Adjusted_Penalty>  (336) 
0.00340952

>  <i_epik_Tot_Q>  (336) 
0

>  <i_epik_Tot_abs_Q>  (336) 
0

>  <s_lp_Force_Field>  (336) 
OPLS3e

>  <r_lp_Energy>  (336) 
20.6983

>  <b_lp_Chiralities_Consistent>  (336) 
1

>  <s_lp_Variant>  (336) 
90:0-1

>  <s_i_glide_gridfile>  (336) 
pfpi4k_grid

>  <i_i_glide_lignum>  (336) 
5

>  <i_i_glide_rotatable_bonds>  (336) 
2

>  <r_i_docking_score>  (336) 
-2.59593

>  <r_i_glide_ligand_efficiency>  (336) 
-0.123616

>  <r_i_glide_ligand_efficiency_sa>  (336) 
-0.341047

>  <r_i_glide_ligand_efficiency_ln>  (336) 
-0.64184

>  <r_i_glide_gscore>  (336) 
-2.59593

>  <r_i_glide_lipo>  (336) 
-0.152482

>  <r_i_glide_hbond>  (336) 
0

>  <r_i_glide_metal>  (336) 
-0

>  <r_i_glide_rewards>  (336) 
-1.35884

>  <r_i_glide_evdw>  (336) 
-26.5688

>  <r_i_glide_ecoul>  (336) 
0.110532

>  <r_i_glide_erotb>  (336) 
0.406664

>  <r_i_glide_esite>  (336) 
-0.179411

>  <r_i_glide_emodel>  (336) 
-29.968

>  <r_i_glide_energy>  (336) 
-26.4583

>  <r_i_glide_einternal>  (336) 
1.74595

>  <r_i_glide_intrahb_reward>  (336) 
-0

>  <i_i_glide_confnum>  (336) 
2

>  <i_i_glide_posenum>  (336) 
33

>  <r_i_glide_eff_state_penalty>  (336) 
0

>  <ligand_id>  (336) 
90

>  <original_smiles>  (336) 
Cn1ncc(Cl)c1-c1noc2cc(-c3ccncc3)nn12

>  <smiles>  (336) 
[H]c1nc([H])c([H])c(-c2nn3c(-c4c(Cl)c([H])nn4C([H])([H])[H])noc3c2[H])c1[H]

$$$$
91:0:0
     RDKit          3D

 28 30  0  0  1  0  0  0  0  0999 V2000
    3.6905   -2.7137    5.7948 C   0  0  0  0  0  0  0  0  0  0  0  0
    3.4071   -3.0074    4.4146 N   0  0  0  0  0  0  0  0  0  0  0  0
    3.7350   -2.2286    3.3338 C   0  0  0  0  0  0  0  0  0  0  0  0
    3.2583   -2.8839    2.2268 C   0  0  0  0  0  0  0  0  0  0  0  0
    3.3536   -2.5206    0.7990 C   0  0  0  0  0  0  0  0  0  0  0  0
    2.7552   -3.3137   -0.1082 N   0  0  0  0  0  0  0  0  0  0  0  0
    3.0368   -2.7126   -1.3183 C   0  0  0  0  0  0  0  0  0  0  0  0
    2.6905   -3.0595   -2.6366 C   0  0  0  0  0  0  0  0  0  0  0  0
    3.1258   -2.2900   -3.7318 C   0  0  0  0  0  0  0  0  0  0  0  0
    3.9204   -1.1378   -3.5363 C   0  0  0  0  0  0  0  0  0  0  0  0
    4.2776   -0.7781   -2.2178 C   0  0  0  0  0  0  0  0  0  0  0  0
    3.8296   -1.5555   -1.1268 C   0  0  0  0  0  0  0  0  0  0  0  0
    3.9946   -1.4446    0.2556 N   0  0  0  0  0  0  0  0  0  0  0  0
    4.7360   -0.3725    0.9043 C   0  0  0  0  0  0  0  0  0  0  0  0
    2.6610   -4.0800    2.7429 C   0  0  0  0  0  0  0  0  0  0  0  0
    2.7462   -4.1395    4.0726 N   0  0  0  0  0  0  0  0  0  0  0  0
    4.2380   -1.7697    5.8506 H   0  0  0  0  0  0  0  0  0  0  0  0
    4.3122   -3.4928    6.2318 H   0  0  0  0  0  0  0  0  0  0  0  0
    2.7636   -2.5887    6.3563 H   0  0  0  0  0  0  0  0  0  0  0  0
    4.2858   -1.3128    3.5072 H   0  0  0  0  0  0  0  0  0  0  0  0
    2.0502   -3.9198   -2.8216 H   0  0  0  0  0  0  0  0  0  0  0  0
    2.8161   -2.5757   -4.7173 H   0  0  0  0  0  0  0  0  0  0  0  0
    4.2500   -0.5228   -4.3647 H   0  0  0  0  0  0  0  0  0  0  0  0
    4.8395    0.1008   -2.0323 H   0  0  0  0  0  0  0  0  0  0  0  0
    4.7247    0.5142    0.2678 H   0  0  0  0  0  0  0  0  0  0  0  0
    5.7790   -0.6925    1.0575 H   0  0  0  0  0  0  0  0  0  0  0  0
    4.2832   -0.0618    1.8350 H   0  0  0  0  0  0  0  0  0  0  0  0
    2.1952   -4.8889    2.2074 H   0  0  0  0  0  0  0  0  0  0  0  0
  1  2  1  0
  1 17  1  0
  1 18  1  0
  1 19  1  0
  2 16  1  0
  2  3  1  0
  3  4  2  0
  3 20  1  0
  4  5  1  0
  4 15  1  0
  5 13  1  0
  5  6  2  0
  6  7  1  0
  7 12  2  0
  7  8  1  0
  8  9  2  0
  8 21  1  0
  9 10  1  0
  9 22  1  0
 10 11  2  0
 10 23  1  0
 11 12  1  0
 11 24  1  0
 12 13  1  0
 13 14  1  0
 14 25  1  0
 14 26  1  0
 14 27  1  0
 15 16  2  0
 15 28  1  0
M  END
>  <i_m_ct_stereo_status>  (337) 
1

>  <s_m_source_file>  (337) 
/var/tmp/pbs.5076255.sched01/tmpnhftudgm/135squ2m_dv.sdf

>  <i_m_source_file_index>  (337) 
6

>  <i_lp_mmshare_version>  (337) 
48012

>  <i_f3d_flags>  (337) 
0

>  <s_epik_input>  (337) 
W0NIM11uMVtjSF1jKFtjSF1uMSktYyhuMiluKFtDSDNdKWMoYzIzKVtjSF1bY0hdW2NIXVtjSF0z

>  <s_epik_cmdline>  (337) 
J2VwaWtfcHl0aG9uJywgJy1waHQnLCAnMi4wJywgJy1waCcsICc3LjAnLCAnLXRuJywgJzgnLCAnLW1hJywgJzIwMCcsICctaW1hZScsICc8aW5maWxlLm1hZT4nLCAnLW9tYWUnLCAnPG91dGZpbGUubWFlPic=

>  <r_lp_tautomer_probability>  (337) 
1

>  <r_epik_Ionization_Penalty>  (337) 
0.00449553

>  <r_epik_Ionization_Penalty_Charging>  (337) 
0

>  <r_epik_Ionization_Penalty_Neutral>  (337) 
0.00449553

>  <r_epik_State_Penalty>  (337) 
0.00323432

>  <r_epik_Charging_Adjusted_Penalty>  (337) 
0.00323432

>  <i_epik_Tot_Q>  (337) 
0

>  <i_epik_Tot_abs_Q>  (337) 
0

>  <s_lp_Force_Field>  (337) 
OPLS3e

>  <r_lp_Energy>  (337) 
17.0124

>  <b_lp_Chiralities_Consistent>  (337) 
1

>  <s_lp_Variant>  (337) 
91:0-1

>  <s_i_glide_gridfile>  (337) 
pfpi4k_grid

>  <i_i_glide_lignum>  (337) 
6

>  <i_i_glide_rotatable_bonds>  (337) 
1

>  <r_i_docking_score>  (337) 
-3.3304

>  <r_i_glide_ligand_efficiency>  (337) 
-0.20815

>  <r_i_glide_ligand_efficiency_sa>  (337) 
-0.524506

>  <r_i_glide_ligand_efficiency_ln>  (337) 
-0.88279

>  <r_i_glide_gscore>  (337) 
-3.3304

>  <r_i_glide_lipo>  (337) 
-0.571913

>  <r_i_glide_hbond>  (337) 
0

>  <r_i_glide_metal>  (337) 
-0

>  <r_i_glide_rewards>  (337) 
-1.96193

>  <r_i_glide_evdw>  (337) 
-18.5273

>  <r_i_glide_ecoul>  (337) 
-1.19984

>  <r_i_glide_erotb>  (337) 
0.36967

>  <r_i_glide_esite>  (337) 
-0.0598886

>  <r_i_glide_emodel>  (337) 
-24.2349

>  <r_i_glide_energy>  (337) 
-19.7272

>  <r_i_glide_einternal>  (337) 
0.00971796

>  <r_i_glide_intrahb_reward>  (337) 
-0

>  <i_i_glide_confnum>  (337) 
4

>  <i_i_glide_posenum>  (337) 
2

>  <r_i_glide_eff_state_penalty>  (337) 
0

>  <ligand_id>  (337) 
91

>  <original_smiles>  (337) 
Cn1cc(-c2nc3ccccc3n2C)cn1

>  <smiles>  (337) 
[H]c1nn(C([H])([H])[H])c([H])c1-c1nc2c([H])c([H])c([H])c([H])c2n1C([H])([H])[H]

$$$$
91:0:1
     RDKit          3D

 28 30  0  0  1  0  0  0  0  0999 V2000
    4.0760   -4.4076    5.4897 C   0  0  0  0  0  0  0  0  0  0  0  0
    3.7090   -4.4269    4.0972 N   0  0  0  0  0  0  0  0  0  0  0  0
    4.0130   -3.4652    3.1666 C   0  0  0  0  0  0  0  0  0  0  0  0
    3.4576   -3.8842    1.9874 C   0  0  0  0  0  0  0  0  0  0  0  0
    3.4790   -3.2529    0.6614 C   0  0  0  0  0  0  0  0  0  0  0  0
    2.7207   -3.7796   -0.3187 N   0  0  0  0  0  0  0  0  0  0  0  0
    3.0221   -3.0027   -1.4274 C   0  0  0  0  0  0  0  0  0  0  0  0
    2.5573   -3.0504   -2.7564 C   0  0  0  0  0  0  0  0  0  0  0  0
    3.0043   -2.1300   -3.7188 C   0  0  0  0  0  0  0  0  0  0  0  0
    3.9324   -1.1227   -3.3777 C   0  0  0  0  0  0  0  0  0  0  0  0
    4.3964   -1.0606   -2.0477 C   0  0  0  0  0  0  0  0  0  0  0  0
    3.9451   -1.9827   -1.0875 C   0  0  0  0  0  0  0  0  0  0  0  0
    4.2037   -2.1598    0.2762 N   0  0  0  0  0  0  0  0  0  0  0  0
    5.1134   -1.3123    1.0245 C   0  0  0  0  0  0  0  0  0  0  0  0
    2.8444   -5.1419    2.2964 C   0  0  0  0  0  0  0  0  0  0  0  0
    2.9913   -5.4551    3.5835 N   0  0  0  0  0  0  0  0  0  0  0  0
    4.6695   -3.5098    5.6913 H   0  0  0  0  0  0  0  0  0  0  0  0
    4.6863   -5.2762    5.7343 H   0  0  0  0  0  0  0  0  0  0  0  0
    3.1858   -4.3677    6.1176 H   0  0  0  0  0  0  0  0  0  0  0  0
    4.5925   -2.6106    3.4923 H   0  0  0  0  0  0  0  0  0  0  0  0
    1.8437   -3.8158   -3.0476 H   0  0  0  0  0  0  0  0  0  0  0  0
    2.6084   -2.1717   -4.7250 H   0  0  0  0  0  0  0  0  0  0  0  0
    4.2651   -0.3929   -4.1019 H   0  0  0  0  0  0  0  0  0  0  0  0
    5.0691   -0.2836   -1.7401 H   0  0  0  0  0  0  0  0  0  0  0  0
    5.1602   -0.3241    0.5586 H   0  0  0  0  0  0  0  0  0  0  0  0
    6.1160   -1.7582    1.0192 H   0  0  0  0  0  0  0  0  0  0  0  0
    4.7647   -1.1451    2.0344 H   0  0  0  0  0  0  0  0  0  0  0  0
    2.3130   -5.8191    1.6468 H   0  0  0  0  0  0  0  0  0  0  0  0
  1  2  1  0
  1 17  1  0
  1 18  1  0
  1 19  1  0
  2 16  1  0
  2  3  1  0
  3  4  2  0
  3 20  1  0
  4  5  1  0
  4 15  1  0
  5 13  1  0
  5  6  2  0
  6  7  1  0
  7 12  2  0
  7  8  1  0
  8  9  2  0
  8 21  1  0
  9 10  1  0
  9 22  1  0
 10 11  2  0
 10 23  1  0
 11 12  1  0
 11 24  1  0
 12 13  1  0
 13 14  1  0
 14 25  1  0
 14 26  1  0
 14 27  1  0
 15 16  2  0
 15 28  1  0
M  END
>  <i_m_ct_stereo_status>  (338) 
1

>  <s_m_source_file>  (338) 
/var/tmp/pbs.5076255.sched01/tmpnhftudgm/135squ2m_dv.sdf

>  <i_m_source_file_index>  (338) 
6

>  <i_lp_mmshare_version>  (338) 
48012

>  <i_f3d_flags>  (338) 
0

>  <s_epik_input>  (338) 
W0NIM11uMVtjSF1jKFtjSF1uMSktYyhuMiluKFtDSDNdKWMoYzIzKVtjSF1bY0hdW2NIXVtjSF0z

>  <s_epik_cmdline>  (338) 
J2VwaWtfcHl0aG9uJywgJy1waHQnLCAnMi4wJywgJy1waCcsICc3LjAnLCAnLXRuJywgJzgnLCAnLW1hJywgJzIwMCcsICctaW1hZScsICc8aW5maWxlLm1hZT4nLCAnLW9tYWUnLCAnPG91dGZpbGUubWFlPic=

>  <r_lp_tautomer_probability>  (338) 
1

>  <r_epik_Ionization_Penalty>  (338) 
0.00449553

>  <r_epik_Ionization_Penalty_Charging>  (338) 
0

>  <r_epik_Ionization_Penalty_Neutral>  (338) 
0.00449553

>  <r_epik_State_Penalty>  (338) 
0.00323432

>  <r_epik_Charging_Adjusted_Penalty>  (338) 
0.00323432

>  <i_epik_Tot_Q>  (338) 
0

>  <i_epik_Tot_abs_Q>  (338) 
0

>  <s_lp_Force_Field>  (338) 
OPLS3e

>  <r_lp_Energy>  (338) 
17.0124

>  <b_lp_Chiralities_Consistent>  (338) 
1

>  <s_lp_Variant>  (338) 
91:0-1

>  <s_i_glide_gridfile>  (338) 
pfpi4k_grid

>  <i_i_glide_lignum>  (338) 
6

>  <i_i_glide_rotatable_bonds>  (338) 
1

>  <r_i_docking_score>  (338) 
-3.21762

>  <r_i_glide_ligand_efficiency>  (338) 
-0.201101

>  <r_i_glide_ligand_efficiency_sa>  (338) 
-0.506743

>  <r_i_glide_ligand_efficiency_ln>  (338) 
-0.852895

>  <r_i_glide_gscore>  (338) 
-3.21762

>  <r_i_glide_lipo>  (338) 
-0.504536

>  <r_i_glide_hbond>  (338) 
0

>  <r_i_glide_metal>  (338) 
-0

>  <r_i_glide_rewards>  (338) 
-1.96193

>  <r_i_glide_evdw>  (338) 
-19.0641

>  <r_i_glide_ecoul>  (338) 
-1.00082

>  <r_i_glide_erotb>  (338) 
0.36967

>  <r_i_glide_esite>  (338) 
-0.0174991

>  <r_i_glide_emodel>  (338) 
-24.3044

>  <r_i_glide_energy>  (338) 
-20.0649

>  <r_i_glide_einternal>  (338) 
0.0301173

>  <r_i_glide_intrahb_reward>  (338) 
-0

>  <i_i_glide_confnum>  (338) 
1

>  <i_i_glide_posenum>  (338) 
10

>  <r_i_glide_eff_state_penalty>  (338) 
0

>  <ligand_id>  (338) 
91

>  <original_smiles>  (338) 
Cn1cc(-c2nc3ccccc3n2C)cn1

>  <smiles>  (338) 
[H]c1nn(C([H])([H])[H])c([H])c1-c1nc2c([H])c([H])c([H])c([H])c2n1C([H])([H])[H]

$$$$
91:0:2
     RDKit          3D

 28 30  0  0  1  0  0  0  0  0999 V2000
   -0.1727   -1.4749    6.0539 C   0  0  0  0  0  0  0  0  0  0  0  0
   -0.2920   -2.9144    6.1337 N   0  0  0  0  0  0  0  0  0  0  0  0
    0.2268   -3.8756    5.2854 C   0  0  0  0  0  0  0  0  0  0  0  0
   -0.1522   -5.0814    5.8048 C   0  0  0  0  0  0  0  0  0  0  0  0
    0.1214   -6.4123    5.2737 C   0  0  0  0  0  0  0  0  0  0  0  0
   -0.0321   -6.6686    3.9701 N   0  0  0  0  0  0  0  0  0  0  0  0
    0.2679   -8.0170    3.8828 C   0  0  0  0  0  0  0  0  0  0  0  0
    0.2758   -8.8837    2.7700 C   0  0  0  0  0  0  0  0  0  0  0  0
    0.6203  -10.2431    2.9263 C   0  0  0  0  0  0  0  0  0  0  0  0
    0.9717  -10.7570    4.1889 C   0  0  0  0  0  0  0  0  0  0  0  0
    0.9683   -9.9077    5.3109 C   0  0  0  0  0  0  0  0  0  0  0  0
    0.6182   -8.5522    5.1517 C   0  0  0  0  0  0  0  0  0  0  0  0
    0.5091   -7.4758    6.0269 N   0  0  0  0  0  0  0  0  0  0  0  0
    0.7657   -7.5219    7.4565 C   0  0  0  0  0  0  0  0  0  0  0  0
   -0.9066   -4.7696    6.9659 C   0  0  0  0  0  0  0  0  0  0  0  0
   -0.9912   -3.4579    7.1579 N   0  0  0  0  0  0  0  0  0  0  0  0
    0.4466   -1.1927    5.2000 H   0  0  0  0  0  0  0  0  0  0  0  0
    0.2925   -1.0938    6.9635 H   0  0  0  0  0  0  0  0  0  0  0  0
   -1.1578   -1.0225    5.9383 H   0  0  0  0  0  0  0  0  0  0  0  0
    0.8020   -3.6226    4.4048 H   0  0  0  0  0  0  0  0  0  0  0  0
    0.0147   -8.5109    1.7924 H   0  0  0  0  0  0  0  0  0  0  0  0
    0.6053  -10.9038    2.0783 H   0  0  0  0  0  0  0  0  0  0  0  0
    1.2186  -11.8045    4.3006 H   0  0  0  0  0  0  0  0  0  0  0  0
    1.2175  -10.3105    6.2803 H   0  0  0  0  0  0  0  0  0  0  0  0
    1.5406   -8.2576    7.6659 H   0  0  0  0  0  0  0  0  0  0  0  0
   -0.1412   -7.8139    7.9836 H   0  0  0  0  0  0  0  0  0  0  0  0
    1.1071   -6.5547    7.8228 H   0  0  0  0  0  0  0  0  0  0  0  0
   -1.4041   -5.4447    7.6479 H   0  0  0  0  0  0  0  0  0  0  0  0
  1  2  1  0
  1 17  1  0
  1 18  1  0
  1 19  1  0
  2 16  1  0
  2  3  1  0
  3  4  2  0
  3 20  1  0
  4  5  1  0
  4 15  1  0
  5 13  1  0
  5  6  2  0
  6  7  1  0
  7 12  2  0
  7  8  1  0
  8  9  2  0
  8 21  1  0
  9 10  1  0
  9 22  1  0
 10 11  2  0
 10 23  1  0
 11 12  1  0
 11 24  1  0
 12 13  1  0
 13 14  1  0
 14 25  1  0
 14 26  1  0
 14 27  1  0
 15 16  2  0
 15 28  1  0
M  END
>  <i_m_ct_stereo_status>  (339) 
1

>  <s_m_source_file>  (339) 
/var/tmp/pbs.5076255.sched01/tmpnhftudgm/135squ2m_dv.sdf

>  <i_m_source_file_index>  (339) 
6

>  <i_lp_mmshare_version>  (339) 
48012

>  <i_f3d_flags>  (339) 
0

>  <s_epik_input>  (339) 
W0NIM11uMVtjSF1jKFtjSF1uMSktYyhuMiluKFtDSDNdKWMoYzIzKVtjSF1bY0hdW2NIXVtjSF0z

>  <s_epik_cmdline>  (339) 
J2VwaWtfcHl0aG9uJywgJy1waHQnLCAnMi4wJywgJy1waCcsICc3LjAnLCAnLXRuJywgJzgnLCAnLW1hJywgJzIwMCcsICctaW1hZScsICc8aW5maWxlLm1hZT4nLCAnLW9tYWUnLCAnPG91dGZpbGUubWFlPic=

>  <r_lp_tautomer_probability>  (339) 
1

>  <r_epik_Ionization_Penalty>  (339) 
0.00449553

>  <r_epik_Ionization_Penalty_Charging>  (339) 
0

>  <r_epik_Ionization_Penalty_Neutral>  (339) 
0.00449553

>  <r_epik_State_Penalty>  (339) 
0.00323432

>  <r_epik_Charging_Adjusted_Penalty>  (339) 
0.00323432

>  <i_epik_Tot_Q>  (339) 
0

>  <i_epik_Tot_abs_Q>  (339) 
0

>  <s_lp_Force_Field>  (339) 
OPLS3e

>  <r_lp_Energy>  (339) 
17.0124

>  <b_lp_Chiralities_Consistent>  (339) 
1

>  <s_lp_Variant>  (339) 
91:0-1

>  <s_i_glide_gridfile>  (339) 
pfpi4k_grid

>  <i_i_glide_lignum>  (339) 
6

>  <i_i_glide_rotatable_bonds>  (339) 
1

>  <r_i_docking_score>  (339) 
-3.17975

>  <r_i_glide_ligand_efficiency>  (339) 
-0.198734

>  <r_i_glide_ligand_efficiency_sa>  (339) 
-0.500779

>  <r_i_glide_ligand_efficiency_ln>  (339) 
-0.842855

>  <r_i_glide_gscore>  (339) 
-3.17975

>  <r_i_glide_lipo>  (339) 
-0.109026

>  <r_i_glide_hbond>  (339) 
0

>  <r_i_glide_metal>  (339) 
-0

>  <r_i_glide_rewards>  (339) 
-1.96193

>  <r_i_glide_evdw>  (339) 
-17.959

>  <r_i_glide_ecoul>  (339) 
-3.52702

>  <r_i_glide_erotb>  (339) 
0.36967

>  <r_i_glide_esite>  (339) 
-0.0514597

>  <r_i_glide_emodel>  (339) 
-25.4611

>  <r_i_glide_energy>  (339) 
-21.486

>  <r_i_glide_einternal>  (339) 
1.47818

>  <r_i_glide_intrahb_reward>  (339) 
-0

>  <i_i_glide_confnum>  (339) 
1

>  <i_i_glide_posenum>  (339) 
14

>  <r_i_glide_eff_state_penalty>  (339) 
0

>  <ligand_id>  (339) 
91

>  <original_smiles>  (339) 
Cn1cc(-c2nc3ccccc3n2C)cn1

>  <smiles>  (339) 
[H]c1nn(C([H])([H])[H])c([H])c1-c1nc2c([H])c([H])c([H])c([H])c2n1C([H])([H])[H]

$$$$
92:0:0
     RDKit          3D

 62 66  0  0  1  0  0  0  0  0999 V2000
    7.8635   -3.8875   -0.2724 C   0  0  0  0  0  0  0  0  0  0  0  0
    6.3602   -3.7627   -0.6162 C   0  0  0  0  0  0  0  0  0  0  0  0
    6.3433   -3.2120   -2.0706 C   0  0  0  0  0  0  0  0  0  0  0  0
    5.5154   -2.9648    0.4589 C   0  0  0  0  0  0  0  0  0  0  0  0
    6.1984   -2.2398    1.3406 C   0  0  0  0  0  0  0  0  0  0  0  0
    5.4652   -1.8695    2.5422 C   0  0  2  0  0  0  0  0  0  0  0  0
    4.9892   -3.3092    3.0172 C   0  0  0  0  0  0  0  0  0  0  0  0
    3.8104   -3.8587    2.1113 C   0  0  1  0  0  0  0  0  0  0  0  0
    3.8221   -5.3832    1.9071 C   0  0  0  0  0  0  0  0  0  0  0  0
    4.8958   -6.0100    2.0571 O   0  0  0  0  0  0  0  0  0  0  0  0
    2.7235   -5.9046    1.6025 O   0  0  0  0  0  0  0  0  0  0  0  0
    2.7220   -3.5338    3.0333 O   0  0  0  0  0  0  0  0  0  0  0  0
    2.4910   -2.1517    3.4364 C   0  0  0  0  0  0  0  0  0  0  0  0
    0.9527   -2.1098    3.5732 C   0  0  0  0  0  0  0  0  0  0  0  0
    3.0428   -1.7335    4.8186 C   0  0  0  0  0  0  0  0  0  0  0  0
    2.9883   -1.2253    2.2955 C   0  0  2  0  0  0  0  0  0  0  0  0
    2.7841   -2.0024    1.0596 C   0  0  0  0  0  0  0  0  0  0  0  0
    3.8987   -3.0888    0.6820 C   0  0  1  0  0  0  0  0  0  0  0  0
    3.4174   -3.2054   -0.8040 C   0  0  1  0  0  0  0  0  0  0  0  0
    2.0790   -3.5861   -1.4404 C   0  0  0  0  0  0  0  0  0  0  0  0
    2.2831   -3.1637   -2.9399 C   0  0  0  0  0  0  0  0  0  0  0  0
    3.4562   -2.1407   -3.0250 C   0  0  1  0  0  0  0  0  0  0  0  0
    3.2522   -0.9533   -3.9708 C   0  0  0  0  0  0  0  0  0  0  0  0
    3.6322   -1.7896   -1.5195 C   0  0  2  0  0  0  0  0  0  0  0  0
    4.6635   -0.6841   -0.9088 C   0  0  0  0  0  0  0  0  0  0  0  0
    4.6248   -0.0442    0.6186 C   0  0  0  0  0  0  0  0  0  0  0  0
    4.4394   -0.7688    2.0884 C   0  0  2  0  0  0  0  0  0  0  0  0
    8.0040   -4.4646    0.6533 H   0  0  0  0  0  0  0  0  0  0  0  0
    8.3375   -2.9020   -0.2162 H   0  0  0  0  0  0  0  0  0  0  0  0
    8.4197   -4.3458   -1.0953 H   0  0  0  0  0  0  0  0  0  0  0  0
    5.9339   -4.7814   -0.6198 H   0  0  0  0  0  0  0  0  0  0  0  0
    5.4006   -3.3154   -2.3941 H   0  0  0  0  0  0  0  0  0  0  0  0
    6.8710   -3.8265   -2.8004 H   0  0  0  0  0  0  0  0  0  0  0  0
    6.7919   -2.2159   -2.2220 H   0  0  0  0  0  0  0  0  0  0  0  0
    7.2633   -2.1125    1.3613 H   0  0  0  0  0  0  0  0  0  0  0  0
    6.1841   -1.4585    3.2380 H   0  0  0  0  0  0  0  0  0  0  0  0
    5.8461   -3.9831    2.9784 H   0  0  0  0  0  0  0  0  0  0  0  0
    4.7760   -3.3659    4.0792 H   0  0  0  0  0  0  0  0  0  0  0  0
    0.5742   -1.1029    3.7372 H   0  0  0  0  0  0  0  0  0  0  0  0
    0.6092   -2.7345    4.3958 H   0  0  0  0  0  0  0  0  0  0  0  0
    0.4518   -2.4893    2.6941 H   0  0  0  0  0  0  0  0  0  0  0  0
    2.5220   -0.8554    5.2001 H   0  0  0  0  0  0  0  0  0  0  0  0
    4.0927   -1.4584    4.8008 H   0  0  0  0  0  0  0  0  0  0  0  0
    2.9212   -2.5351    5.5445 H   0  0  0  0  0  0  0  0  0  0  0  0
    2.3620   -0.3335    2.2910 H   0  0  0  0  0  0  0  0  0  0  0  0
    1.8323   -2.5327    1.0884 H   0  0  0  0  0  0  0  0  0  0  0  0
    2.4973   -1.1935    0.4271 H   0  0  0  0  0  0  0  0  0  0  0  0
    3.9648   -4.0550   -1.1790 H   0  0  0  0  0  0  0  0  0  0  0  0
    1.8541   -4.6457   -1.3138 H   0  0  0  0  0  0  0  0  0  0  0  0
    1.2386   -3.0705   -1.0194 H   0  0  0  0  0  0  0  0  0  0  0  0
    2.5485   -4.0361   -3.5414 H   0  0  0  0  0  0  0  0  0  0  0  0
    1.3544   -2.7694   -3.3575 H   0  0  0  0  0  0  0  0  0  0  0  0
    4.2554   -2.6405   -3.5219 H   0  0  0  0  0  0  0  0  0  0  0  0
    2.3723   -0.3350   -3.7317 H   0  0  0  0  0  0  0  0  0  0  0  0
    3.1664   -1.3281   -5.0015 H   0  0  0  0  0  0  0  0  0  0  0  0
    4.1488   -0.3182   -3.9527 H   0  0  0  0  0  0  0  0  0  0  0  0
    2.7239   -1.1968   -1.4751 H   0  0  0  0  0  0  0  0  0  0  0  0
    5.7005   -0.9603   -1.0427 H   0  0  0  0  0  0  0  0  0  0  0  0
    4.5947    0.1475   -1.6009 H   0  0  0  0  0  0  0  0  0  0  0  0
    5.5550    0.5209    0.7010 H   0  0  0  0  0  0  0  0  0  0  0  0
    3.8630    0.7317    0.5811 H   0  0  0  0  0  0  0  0  0  0  0  0
    4.5788    0.0318    2.8097 H   0  0  0  0  0  0  0  0  0  0  0  0
  1  2  1  0
  1 28  1  0
  1 29  1  0
  1 30  1  0
  2  3  1  0
  2  4  1  0
  2 31  1  0
  3 32  1  0
  3 33  1  0
  3 34  1  0
 18  4  1  6
  4  5  2  0
  5  6  1  0
  5 35  1  0
  6 27  1  0
  6  7  1  0
  6 36  1  1
  7  8  1  0
  7 37  1  0
  7 38  1  0
  8 18  1  0
  8  9  1  6
  8 12  1  0
  9 10  2  0
  9 11  1  0
 12 13  1  0
 13 14  1  0
 13 15  1  0
 13 16  1  0
 14 39  1  0
 14 40  1  0
 14 41  1  0
 15 42  1  0
 15 43  1  0
 15 44  1  0
 16 27  1  0
 16 17  1  0
 16 45  1  6
 17 18  1  0
 17 46  1  0
 17 47  1  0
 18 19  1  0
 19 24  1  0
 19 20  1  0
 19 48  1  6
 20 21  1  0
 20 49  1  0
 20 50  1  0
 21 22  1  0
 21 51  1  0
 21 52  1  0
 22 23  1  0
 22 24  1  0
 22 53  1  6
 23 54  1  0
 23 55  1  0
 23 56  1  0
 24 25  1  0
 24 57  1  1
 25 26  1  0
 25 58  1  0
 25 59  1  0
 26 27  1  0
 26 60  1  0
 26 61  1  0
 27 62  1  1
M  CHG  1  11  -1
M  END
>  <i_m_ct_stereo_status>  (340) 
1

>  <s_m_source_file>  (340) 
/var/tmp/pbs.5076255.sched01/tmpnhftudgm/135squ2m_dv.sdf

>  <i_m_source_file_index>  (340) 
7

>  <i_lp_mmshare_version>  (340) 
48012

>  <i_f3d_flags>  (340) 
0

>  <s_epik_input>  (340) 
W0NIM11bQ0hdKFtDSDNdKUMxPVtDSF1bQ0BIXShbQ0gyXVtDQEBdMihDMTM0KUMoPU8pW09IXSlbQ0BIXShbQ0BASF0oW0NIMl0zKUMoTzIpKFtDSDNdKVtDSDNdKVtDSDJdW0NIMl1bQ0BASF01W0NAQEhdNFtDSDJdW0NIMl1bQ0BIXTVbQ0gzXQ==

>  <s_epik_cmdline>  (340) 
J2VwaWtfcHl0aG9uJywgJy1waHQnLCAnMi4wJywgJy1waCcsICc3LjAnLCAnLXRuJywgJzgnLCAnLW1hJywgJzIwMCcsICctaW1hZScsICc8aW5maWxlLm1hZT4nLCAnLW9tYWUnLCAnPG91dGZpbGUubWFlPic=

>  <r_epik_Ionization_Penalty>  (340) 
0.00059439

>  <r_epik_Ionization_Penalty_Charging>  (340) 
0.000594389

>  <r_epik_Ionization_Penalty_Neutral>  (340) 
1.07868e-09

>  <r_epik_State_Penalty>  (340) 
0.000374127

>  <r_epik_Charging_Adjusted_Penalty>  (340) 
0.000968516

>  <i_epik_Tot_Q>  (340) 
-1

>  <i_epik_Tot_abs_Q>  (340) 
1

>  <s_lp_Force_Field>  (340) 
OPLS3e

>  <r_lp_Energy>  (340) 
228.733

>  <b_lp_Chiralities_Consistent>  (340) 
1

>  <s_lp_Variant>  (340) 
92:0-1

>  <s_i_glide_gridfile>  (340) 
pfpi4k_grid

>  <i_i_glide_lignum>  (340) 
7

>  <i_i_glide_rotatable_bonds>  (340) 
2

>  <r_i_docking_score>  (340) 
-3.05881

>  <r_i_glide_ligand_efficiency>  (340) 
-0.113289

>  <r_i_glide_ligand_efficiency_sa>  (340) 
-0.339868

>  <r_i_glide_ligand_efficiency_ln>  (340) 
-0.712041

>  <r_i_glide_gscore>  (340) 
-3.05881

>  <r_i_glide_lipo>  (340) 
-1.29228

>  <r_i_glide_hbond>  (340) 
0

>  <r_i_glide_metal>  (340) 
-0

>  <r_i_glide_rewards>  (340) 
-0.888795

>  <r_i_glide_evdw>  (340) 
-20.2769

>  <r_i_glide_ecoul>  (340) 
0.590362

>  <r_i_glide_erotb>  (340) 
0

>  <r_i_glide_esite>  (340) 
0

>  <r_i_glide_emodel>  (340) 
-16.9368

>  <r_i_glide_energy>  (340) 
-19.6865

>  <r_i_glide_einternal>  (340) 
4.83181

>  <r_i_glide_intrahb_reward>  (340) 
-0

>  <i_i_glide_confnum>  (340) 
1

>  <i_i_glide_posenum>  (340) 
3

>  <r_i_glide_eff_state_penalty>  (340) 
0

>  <ligand_id>  (340) 
92

>  <original_smiles>  (340) 
CC(C)C1=CC2CC3(C(=O)O)OC(C)(C)C4CC13C1CCC(C)C1CCC24

>  <smiles>  (340) 
[H]C1=C(C([H])(C([H])([H])[H])C([H])([H])[H])C23C([H])([H])C4([H])C([H])(C([H])([H])C([H])([H])C5([H])C([H])(C([H])([H])[H])C([H])([H])C([H])([H])C52[H])C1([H])C([H])([H])C3(C(=O)[O-])OC4(C([H])([H])[H])C([H])([H])[H]

$$$$
92:0:1
     RDKit          3D

 62 66  0  0  1  0  0  0  0  0999 V2000
    6.0477   -5.2140    0.3742 C   0  0  0  0  0  0  0  0  0  0  0  0
    6.1854   -3.7471   -0.0668 C   0  0  0  0  0  0  0  0  0  0  0  0
    7.6795   -3.4273   -0.3026 C   0  0  0  0  0  0  0  0  0  0  0  0
    5.4434   -2.8088    0.9273 C   0  0  0  0  0  0  0  0  0  0  0  0
    6.2032   -2.0003    1.6786 C   0  0  0  0  0  0  0  0  0  0  0  0
    5.5036   -1.4192    2.8038 C   0  0  2  0  0  0  0  0  0  0  0  0
    4.9159   -2.7229    3.4819 C   0  0  0  0  0  0  0  0  0  0  0  0
    3.6945   -3.3245    2.6756 C   0  0  1  0  0  0  0  0  0  0  0  0
    3.5962   -4.8465    2.7125 C   0  0  0  0  0  0  0  0  0  0  0  0
    4.3062   -5.4612    3.5476 O   0  0  0  0  0  0  0  0  0  0  0  0
    2.7792   -5.3902    1.9378 O   0  0  0  0  0  0  0  0  0  0  0  0
    2.6429   -2.7864    3.5289 O   0  0  0  0  0  0  0  0  0  0  0  0
    2.5278   -1.3476    3.7241 C   0  0  0  0  0  0  0  0  0  0  0  0
    1.0006   -1.1669    3.8693 C   0  0  0  0  0  0  0  0  0  0  0  0
    3.1041   -0.7649    5.0423 C   0  0  0  0  0  0  0  0  0  0  0  0
    3.0688   -0.6436    2.4442 C   0  0  2  0  0  0  0  0  0  0  0  0
    2.7961   -1.5804    1.3434 C   0  0  0  0  0  0  0  0  0  0  0  0
    3.8373   -2.7858    1.1521 C   0  0  1  0  0  0  0  0  0  0  0  0
    3.4189   -3.1205   -0.3059 C   0  0  1  0  0  0  0  0  0  0  0  0
    2.1079   -3.5852   -0.8716 C   0  0  0  0  0  0  0  0  0  0  0  0
    2.2665   -3.2902   -2.4036 C   0  0  0  0  0  0  0  0  0  0  0  0
    3.5346   -2.4058   -2.5940 C   0  0  1  0  0  0  0  0  0  0  0  0
    3.3931   -1.3650   -3.7272 C   0  0  0  0  0  0  0  0  0  0  0  0
    3.6834   -1.8225   -1.1953 C   0  0  2  0  0  0  0  0  0  0  0  0
    4.7899   -0.7230   -0.7613 C   0  0  0  0  0  0  0  0  0  0  0  0
    4.7911    0.1299    0.6458 C   0  0  0  0  0  0  0  0  0  0  0  0
    4.5475   -0.3457    2.2006 C   0  0  2  0  0  0  0  0  0  0  0  0
    5.0164   -5.5640    0.3773 H   0  0  0  0  0  0  0  0  0  0  0  0
    6.4434   -5.3614    1.3805 H   0  0  0  0  0  0  0  0  0  0  0  0
    6.5943   -5.8579   -0.2949 H   0  0  0  0  0  0  0  0  0  0  0  0
    5.8103   -3.6458   -1.0868 H   0  0  0  0  0  0  0  0  0  0  0  0
    7.8175   -2.3948   -0.6294 H   0  0  0  0  0  0  0  0  0  0  0  0
    8.1007   -4.0522   -1.0887 H   0  0  0  0  0  0  0  0  0  0  0  0
    8.2766   -3.5940    0.5952 H   0  0  0  0  0  0  0  0  0  0  0  0
    7.2644   -1.9120    1.6144 H   0  0  0  0  0  0  0  0  0  0  0  0
    6.2233   -0.9194    3.4441 H   0  0  0  0  0  0  0  0  0  0  0  0
    5.7170   -3.4557    3.5180 H   0  0  0  0  0  0  0  0  0  0  0  0
    4.6975   -2.6013    4.5330 H   0  0  0  0  0  0  0  0  0  0  0  0
    0.7202   -0.1110    3.9019 H   0  0  0  0  0  0  0  0  0  0  0  0
    0.6450   -1.6355    4.7940 H   0  0  0  0  0  0  0  0  0  0  0  0
    0.4525   -1.6316    3.0500 H   0  0  0  0  0  0  0  0  0  0  0  0
    2.6499    0.1974    5.2811 H   0  0  0  0  0  0  0  0  0  0  0  0
    4.1748   -0.5692    5.0056 H   0  0  0  0  0  0  0  0  0  0  0  0
    2.9168   -1.4317    5.8889 H   0  0  0  0  0  0  0  0  0  0  0  0
    2.5103    0.2874    2.3307 H   0  0  0  0  0  0  0  0  0  0  0  0
    1.8117   -2.0213    1.4544 H   0  0  0  0  0  0  0  0  0  0  0  0
    2.5631   -0.8543    0.5883 H   0  0  0  0  0  0  0  0  0  0  0  0
    3.9252   -4.0045   -0.6343 H   0  0  0  0  0  0  0  0  0  0  0  0
    1.8617   -4.6204   -0.6294 H   0  0  0  0  0  0  0  0  0  0  0  0
    1.3967   -2.9597   -0.4055 H   0  0  0  0  0  0  0  0  0  0  0  0
    2.3423   -4.1959   -2.9979 H   0  0  0  0  0  0  0  0  0  0  0  0
    1.3771   -2.7803   -2.7736 H   0  0  0  0  0  0  0  0  0  0  0  0
    4.3938   -3.0383   -2.7981 H   0  0  0  0  0  0  0  0  0  0  0  0
    2.5671   -0.6735   -3.5527 H   0  0  0  0  0  0  0  0  0  0  0  0
    3.2046   -1.8620   -4.6810 H   0  0  0  0  0  0  0  0  0  0  0  0
    4.2915   -0.7507   -3.8348 H   0  0  0  0  0  0  0  0  0  0  0  0
    2.8098   -1.1780   -1.2751 H   0  0  0  0  0  0  0  0  0  0  0  0
    5.7854   -1.1412   -0.9414 H   0  0  0  0  0  0  0  0  0  0  0  0
    4.7100    0.0283   -1.5606 H   0  0  0  0  0  0  0  0  0  0  0  0
    5.7805    0.5590    0.6699 H   0  0  0  0  0  0  0  0  0  0  0  0
    4.0862    0.9483    0.4913 H   0  0  0  0  0  0  0  0  0  0  0  0
    4.7322    0.5397    2.8119 H   0  0  0  0  0  0  0  0  0  0  0  0
  1  2  1  0
  1 28  1  0
  1 29  1  0
  1 30  1  0
  2  3  1  0
  2  4  1  0
  2 31  1  0
  3 32  1  0
  3 33  1  0
  3 34  1  0
 18  4  1  6
  4  5  2  0
  5  6  1  0
  5 35  1  0
  6 27  1  0
  6  7  1  0
  6 36  1  1
  7  8  1  0
  7 37  1  0
  7 38  1  0
  8 18  1  0
  8  9  1  6
  8 12  1  0
  9 10  2  0
  9 11  1  0
 12 13  1  0
 13 14  1  0
 13 15  1  0
 13 16  1  0
 14 39  1  0
 14 40  1  0
 14 41  1  0
 15 42  1  0
 15 43  1  0
 15 44  1  0
 16 27  1  0
 16 17  1  0
 16 45  1  6
 17 18  1  0
 17 46  1  0
 17 47  1  0
 18 19  1  0
 19 24  1  0
 19 20  1  0
 19 48  1  6
 20 21  1  0
 20 49  1  0
 20 50  1  0
 21 22  1  0
 21 51  1  0
 21 52  1  0
 22 23  1  0
 22 24  1  0
 22 53  1  6
 23 54  1  0
 23 55  1  0
 23 56  1  0
 24 25  1  0
 24 57  1  1
 25 26  1  0
 25 58  1  0
 25 59  1  0
 26 27  1  0
 26 60  1  0
 26 61  1  0
 27 62  1  1
M  CHG  1  11  -1
M  END
>  <i_m_ct_stereo_status>  (341) 
1

>  <s_m_source_file>  (341) 
/var/tmp/pbs.5076255.sched01/tmpnhftudgm/135squ2m_dv.sdf

>  <i_m_source_file_index>  (341) 
7

>  <i_lp_mmshare_version>  (341) 
48012

>  <i_f3d_flags>  (341) 
0

>  <s_epik_input>  (341) 
W0NIM11bQ0hdKFtDSDNdKUMxPVtDSF1bQ0BIXShbQ0gyXVtDQEBdMihDMTM0KUMoPU8pW09IXSlbQ0BIXShbQ0BASF0oW0NIMl0zKUMoTzIpKFtDSDNdKVtDSDNdKVtDSDJdW0NIMl1bQ0BASF01W0NAQEhdNFtDSDJdW0NIMl1bQ0BIXTVbQ0gzXQ==

>  <s_epik_cmdline>  (341) 
J2VwaWtfcHl0aG9uJywgJy1waHQnLCAnMi4wJywgJy1waCcsICc3LjAnLCAnLXRuJywgJzgnLCAnLW1hJywgJzIwMCcsICctaW1hZScsICc8aW5maWxlLm1hZT4nLCAnLW9tYWUnLCAnPG91dGZpbGUubWFlPic=

>  <r_epik_Ionization_Penalty>  (341) 
0.00059439

>  <r_epik_Ionization_Penalty_Charging>  (341) 
0.000594389

>  <r_epik_Ionization_Penalty_Neutral>  (341) 
1.07868e-09

>  <r_epik_State_Penalty>  (341) 
0.000374127

>  <r_epik_Charging_Adjusted_Penalty>  (341) 
0.000968516

>  <i_epik_Tot_Q>  (341) 
-1

>  <i_epik_Tot_abs_Q>  (341) 
1

>  <s_lp_Force_Field>  (341) 
OPLS3e

>  <r_lp_Energy>  (341) 
228.733

>  <b_lp_Chiralities_Consistent>  (341) 
1

>  <s_lp_Variant>  (341) 
92:0-1

>  <s_i_glide_gridfile>  (341) 
pfpi4k_grid

>  <i_i_glide_lignum>  (341) 
7

>  <i_i_glide_rotatable_bonds>  (341) 
2

>  <r_i_docking_score>  (341) 
-2.75155

>  <r_i_glide_ligand_efficiency>  (341) 
-0.101909

>  <r_i_glide_ligand_efficiency_sa>  (341) 
-0.305728

>  <r_i_glide_ligand_efficiency_ln>  (341) 
-0.640516

>  <r_i_glide_gscore>  (341) 
-2.75155

>  <r_i_glide_lipo>  (341) 
-1.27741

>  <r_i_glide_hbond>  (341) 
0

>  <r_i_glide_metal>  (341) 
-0

>  <r_i_glide_rewards>  (341) 
-0.875912

>  <r_i_glide_evdw>  (341) 
-15.6443

>  <r_i_glide_ecoul>  (341) 
1.22657

>  <r_i_glide_erotb>  (341) 
0

>  <r_i_glide_esite>  (341) 
0

>  <r_i_glide_emodel>  (341) 
-16.6764

>  <r_i_glide_energy>  (341) 
-14.4177

>  <r_i_glide_einternal>  (341) 
0.396133

>  <r_i_glide_intrahb_reward>  (341) 
-0

>  <i_i_glide_confnum>  (341) 
1

>  <i_i_glide_posenum>  (341) 
22

>  <r_i_glide_eff_state_penalty>  (341) 
0

>  <ligand_id>  (341) 
92

>  <original_smiles>  (341) 
CC(C)C1=CC2CC3(C(=O)O)OC(C)(C)C4CC13C1CCC(C)C1CCC24

>  <smiles>  (341) 
[H]C1=C(C([H])(C([H])([H])[H])C([H])([H])[H])C23C([H])([H])C4([H])C([H])(C([H])([H])C([H])([H])C5([H])C([H])(C([H])([H])[H])C([H])([H])C([H])([H])C52[H])C1([H])C([H])([H])C3(C(=O)[O-])OC4(C([H])([H])[H])C([H])([H])[H]

$$$$
92:0:2
     RDKit          3D

 62 66  0  0  1  0  0  0  0  0999 V2000
    4.4252   -6.2726    0.2322 C   0  0  0  0  0  0  0  0  0  0  0  0
    5.3011   -4.9853    0.0828 C   0  0  0  0  0  0  0  0  0  0  0  0
    6.7532   -5.3932    0.4031 C   0  0  0  0  0  0  0  0  0  0  0  0
    4.8015   -3.7503    0.9033 C   0  0  0  0  0  0  0  0  0  0  0  0
    5.6781   -3.1426    1.7116 C   0  0  0  0  0  0  0  0  0  0  0  0
    5.0763   -2.2492    2.6924 C   0  0  2  0  0  0  0  0  0  0  0  0
    4.0530   -3.2564    3.3657 C   0  0  0  0  0  0  0  0  0  0  0  0
    2.8056   -3.5610    2.4310 C   0  0  1  0  0  0  0  0  0  0  0  0
    2.2801   -5.0058    2.5882 C   0  0  0  0  0  0  0  0  0  0  0  0
    1.5640   -5.4591    1.6461 O   0  0  0  0  0  0  0  0  0  0  0  0
    2.5402   -5.6214    3.6340 O   0  0  0  0  0  0  0  0  0  0  0  0
    1.8861   -2.6666    3.1284 O   0  0  0  0  0  0  0  0  0  0  0  0
    2.1849   -1.2385    3.2263 C   0  0  0  0  0  0  0  0  0  0  0  0
    0.7783   -0.6117    3.1493 C   0  0  0  0  0  0  0  0  0  0  0  0
    2.7665   -0.7225    4.5677 C   0  0  0  0  0  0  0  0  0  0  0  0
    3.0466   -0.8326    2.0001 C   0  0  2  0  0  0  0  0  0  0  0  0
    2.6424   -1.7445    0.9205 C   0  0  0  0  0  0  0  0  0  0  0  0
    3.2715   -3.2147    0.9124 C   0  0  1  0  0  0  0  0  0  0  0  0
    2.9276   -3.4901   -0.6091 C   0  0  1  0  0  0  0  0  0  0  0  0
    1.5818   -3.6730   -1.3136 C   0  0  0  0  0  0  0  0  0  0  0  0
    1.9824   -3.5542   -2.7971 C   0  0  0  0  0  0  0  0  0  0  0  0
    3.4807   -3.0708   -2.8555 C   0  0  1  0  0  0  0  0  0  0  0  0
    3.7386   -2.1906   -4.0659 C   0  0  0  0  0  0  0  0  0  0  0  0
    3.6290   -2.3599   -1.5105 C   0  0  2  0  0  0  0  0  0  0  0  0
    4.9917   -1.6719   -0.9818 C   0  0  0  0  0  0  0  0  0  0  0  0
    5.1059   -0.7325    0.3647 C   0  0  0  0  0  0  0  0  0  0  0  0
    4.5750   -0.9837    1.9030 C   0  0  2  0  0  0  0  0  0  0  0  0
    3.4133   -6.2307   -0.1416 H   0  0  0  0  0  0  0  0  0  0  0  0
    4.3853   -6.5708    1.2876 H   0  0  0  0  0  0  0  0  0  0  0  0
    4.9132   -7.0966   -0.3052 H   0  0  0  0  0  0  0  0  0  0  0  0
    5.2866   -4.6696   -0.9653 H   0  0  0  0  0  0  0  0  0  0  0  0
    7.4873   -4.6011    0.2560 H   0  0  0  0  0  0  0  0  0  0  0  0
    7.0806   -6.2062   -0.2308 H   0  0  0  0  0  0  0  0  0  0  0  0
    6.8416   -5.7791    1.4186 H   0  0  0  0  0  0  0  0  0  0  0  0
    6.7190   -3.3733    1.8493 H   0  0  0  0  0  0  0  0  0  0  0  0
    5.8350   -1.9496    3.4096 H   0  0  0  0  0  0  0  0  0  0  0  0
    4.5969   -4.1820    3.5684 H   0  0  0  0  0  0  0  0  0  0  0  0
    3.7828   -2.9786    4.3818 H   0  0  0  0  0  0  0  0  0  0  0  0
    0.7976    0.4774    3.0782 H   0  0  0  0  0  0  0  0  0  0  0  0
    0.1730   -0.8807    4.0166 H   0  0  0  0  0  0  0  0  0  0  0  0
    0.2605   -0.9712    2.2708 H   0  0  0  0  0  0  0  0  0  0  0  0
    2.5866    0.3482    4.6834 H   0  0  0  0  0  0  0  0  0  0  0  0
    3.8451   -0.8434    4.6393 H   0  0  0  0  0  0  0  0  0  0  0  0
    2.3059   -1.2346    5.4131 H   0  0  0  0  0  0  0  0  0  0  0  0
    2.7939    0.2004    1.7411 H   0  0  0  0  0  0  0  0  0  0  0  0
    1.5726   -1.9057    0.9513 H   0  0  0  0  0  0  0  0  0  0  0  0
    2.6570   -1.0535    0.0981 H   0  0  0  0  0  0  0  0  0  0  0  0
    3.3097   -4.4052   -0.8737 H   0  0  0  0  0  0  0  0  0  0  0  0
    1.0690   -4.5951   -1.0491 H   0  0  0  0  0  0  0  0  0  0  0  0
    0.8397   -2.9491   -1.1857 H   0  0  0  0  0  0  0  0  0  0  0  0
    1.8126   -4.5036   -3.2548 H   0  0  0  0  0  0  0  0  0  0  0  0
    1.3237   -2.8685   -3.3340 H   0  0  0  0  0  0  0  0  0  0  0  0
    4.1170   -3.9546   -2.9020 H   0  0  0  0  0  0  0  0  0  0  0  0
    3.1096   -1.2997   -4.0524 H   0  0  0  0  0  0  0  0  0  0  0  0
    3.4901   -2.7513   -4.9626 H   0  0  0  0  0  0  0  0  0  0  0  0
    4.7812   -1.8761   -4.0886 H   0  0  0  0  0  0  0  0  0  0  0  0
    2.9810   -1.5126   -1.7284 H   0  0  0  0  0  0  0  0  0  0  0  0
    5.8076   -2.3969   -0.9799 H   0  0  0  0  0  0  0  0  0  0  0  0
    5.2796   -1.0119   -1.7971 H   0  0  0  0  0  0  0  0  0  0  0  0
    6.1678   -0.4937    0.4609 H   0  0  0  0  0  0  0  0  0  0  0  0
    4.6372    0.2104    0.0845 H   0  0  0  0  0  0  0  0  0  0  0  0
    4.9562   -0.1374    2.4689 H   0  0  0  0  0  0  0  0  0  0  0  0
  1  2  1  0
  1 28  1  0
  1 29  1  0
  1 30  1  0
  2  3  1  0
  2  4  1  0
  2 31  1  0
  3 32  1  0
  3 33  1  0
  3 34  1  0
 18  4  1  1
  4  5  2  0
  5  6  1  0
  5 35  1  0
  6 27  1  0
  6  7  1  0
  6 36  1  1
  7  8  1  0
  7 37  1  0
  7 38  1  0
  8 18  1  0
  8  9  1  6
  8 12  1  0
  9 10  2  0
  9 11  1  0
 12 13  1  0
 13 14  1  0
 13 15  1  0
 13 16  1  0
 14 39  1  0
 14 40  1  0
 14 41  1  0
 15 42  1  0
 15 43  1  0
 15 44  1  0
 16 27  1  0
 16 17  1  0
 16 45  1  6
 17 18  1  0
 17 46  1  0
 17 47  1  0
 18 19  1  0
 19 24  1  0
 19 20  1  0
 19 48  1  6
 20 21  1  0
 20 49  1  0
 20 50  1  0
 21 22  1  0
 21 51  1  0
 21 52  1  0
 22 23  1  0
 22 24  1  0
 22 53  1  1
 23 54  1  0
 23 55  1  0
 23 56  1  0
 24 25  1  0
 24 57  1  6
 25 26  1  0
 25 58  1  0
 25 59  1  0
 26 27  1  0
 26 60  1  0
 26 61  1  0
 27 62  1  1
M  CHG  1  11  -1
M  END
>  <i_m_ct_stereo_status>  (342) 
1

>  <s_m_source_file>  (342) 
/var/tmp/pbs.5076255.sched01/tmpnhftudgm/135squ2m_dv.sdf

>  <i_m_source_file_index>  (342) 
7

>  <i_lp_mmshare_version>  (342) 
48012

>  <i_f3d_flags>  (342) 
0

>  <s_epik_input>  (342) 
W0NIM11bQ0hdKFtDSDNdKUMxPVtDSF1bQ0BIXShbQ0gyXVtDQEBdMihDMTM0KUMoPU8pW09IXSlbQ0BIXShbQ0BASF0oW0NIMl0zKUMoTzIpKFtDSDNdKVtDSDNdKVtDSDJdW0NIMl1bQ0BASF01W0NAQEhdNFtDSDJdW0NIMl1bQ0BIXTVbQ0gzXQ==

>  <s_epik_cmdline>  (342) 
J2VwaWtfcHl0aG9uJywgJy1waHQnLCAnMi4wJywgJy1waCcsICc3LjAnLCAnLXRuJywgJzgnLCAnLW1hJywgJzIwMCcsICctaW1hZScsICc8aW5maWxlLm1hZT4nLCAnLW9tYWUnLCAnPG91dGZpbGUubWFlPic=

>  <r_epik_Ionization_Penalty>  (342) 
0.00059439

>  <r_epik_Ionization_Penalty_Charging>  (342) 
0.000594389

>  <r_epik_Ionization_Penalty_Neutral>  (342) 
1.07868e-09

>  <r_epik_State_Penalty>  (342) 
0.000374127

>  <r_epik_Charging_Adjusted_Penalty>  (342) 
0.000968516

>  <i_epik_Tot_Q>  (342) 
-1

>  <i_epik_Tot_abs_Q>  (342) 
1

>  <s_lp_Force_Field>  (342) 
OPLS3e

>  <r_lp_Energy>  (342) 
228.733

>  <b_lp_Chiralities_Consistent>  (342) 
1

>  <s_lp_Variant>  (342) 
92:0-1

>  <s_i_glide_gridfile>  (342) 
pfpi4k_grid

>  <i_i_glide_lignum>  (342) 
7

>  <i_i_glide_rotatable_bonds>  (342) 
2

>  <r_i_docking_score>  (342) 
-2.39253

>  <r_i_glide_ligand_efficiency>  (342) 
-0.0886121

>  <r_i_glide_ligand_efficiency_sa>  (342) 
-0.265836

>  <r_i_glide_ligand_efficiency_ln>  (342) 
-0.556941

>  <r_i_glide_gscore>  (342) 
-2.39253

>  <r_i_glide_lipo>  (342) 
-0.823644

>  <r_i_glide_hbond>  (342) 
-0.116984

>  <r_i_glide_metal>  (342) 
-0

>  <r_i_glide_rewards>  (342) 
-0.875912

>  <r_i_glide_evdw>  (342) 
-11.8313

>  <r_i_glide_ecoul>  (342) 
0.167679

>  <r_i_glide_erotb>  (342) 
0

>  <r_i_glide_esite>  (342) 
-0.00957564

>  <r_i_glide_emodel>  (342) 
-12.4052

>  <r_i_glide_energy>  (342) 
-11.6636

>  <r_i_glide_einternal>  (342) 
2.02563

>  <r_i_glide_intrahb_reward>  (342) 
-0

>  <i_i_glide_confnum>  (342) 
1

>  <i_i_glide_posenum>  (342) 
21

>  <r_i_glide_eff_state_penalty>  (342) 
0

>  <ligand_id>  (342) 
92

>  <original_smiles>  (342) 
CC(C)C1=CC2CC3(C(=O)O)OC(C)(C)C4CC13C1CCC(C)C1CCC24

>  <smiles>  (342) 
[H]C1=C(C([H])(C([H])([H])[H])C([H])([H])[H])C23C([H])([H])C4([H])C([H])(C([H])([H])C([H])([H])C5([H])C([H])(C([H])([H])[H])C([H])([H])C([H])([H])C52[H])C1([H])C([H])([H])C3(C(=O)[O-])OC4(C([H])([H])[H])C([H])([H])[H]

$$$$
94:0:0
     RDKit          3D

 27 30  0  0  1  0  0  0  0  0999 V2000
    3.6253   -4.9328    1.6638 C   0  0  0  0  0  0  0  0  0  0  0  0
    2.6770   -4.7950    0.6363 C   0  0  0  0  0  0  0  0  0  0  0  0
    2.9472   -4.2216   -0.5476 N   0  0  0  0  0  0  0  0  0  0  0  0
    4.2073   -3.8034   -0.8026 C   0  0  0  0  0  0  0  0  0  0  0  0
    5.2314   -3.9059    0.1778 C   0  0  0  0  0  0  0  0  0  0  0  0
    4.9317   -4.4665    1.4379 C   0  0  0  0  0  0  0  0  0  0  0  0
    6.5147   -3.4336   -0.1524 N   0  0  0  0  0  0  0  0  0  0  0  0
    7.5880   -3.1998    0.5899 C   0  0  0  0  0  0  0  0  0  0  0  0
    8.6052   -2.7112   -0.1271 N   0  0  0  0  0  0  0  0  0  0  0  0
    8.1346   -2.6598   -1.4400 N   0  0  0  0  0  0  0  0  0  0  0  0
    6.8735   -3.0848   -1.3810 C   0  0  0  0  0  0  0  0  0  0  0  0
    5.9116   -3.2592   -2.4932 C   0  0  0  0  0  0  0  0  0  0  0  0
    4.5187   -3.2520   -2.0771 N   0  0  0  0  0  0  0  0  0  0  0  0
    3.5667   -3.1739   -3.1665 C   0  0  0  0  0  0  0  0  0  0  0  0
    3.2455   -1.8041   -3.7296 C   0  0  0  0  0  0  0  0  0  0  0  0
    2.2134   -2.5967   -2.9626 C   0  0  0  0  0  0  0  0  0  0  0  0
    3.3445   -5.3860    2.6021 H   0  0  0  0  0  0  0  0  0  0  0  0
    1.6685   -5.1533    0.7569 H   0  0  0  0  0  0  0  0  0  0  0  0
    5.6848   -4.5569    2.2069 H   0  0  0  0  0  0  0  0  0  0  0  0
    7.6147   -3.3642    1.6541 H   0  0  0  0  0  0  0  0  0  0  0  0
    6.0740   -2.4791   -3.2283 H   0  0  0  0  0  0  0  0  0  0  0  0
    6.1078   -4.2181   -2.9722 H   0  0  0  0  0  0  0  0  0  0  0  0
    3.6718   -3.9994   -3.8679 H   0  0  0  0  0  0  0  0  0  0  0  0
    3.6444   -0.9190   -3.2348 H   0  0  0  0  0  0  0  0  0  0  0  0
    3.0677   -1.7040   -4.7923 H   0  0  0  0  0  0  0  0  0  0  0  0
    1.3961   -3.0486   -3.5093 H   0  0  0  0  0  0  0  0  0  0  0  0
    1.9722   -2.2560   -1.9605 H   0  0  0  0  0  0  0  0  0  0  0  0
  1  6  2  0
  1  2  1  0
  1 17  1  0
  2  3  2  0
  2 18  1  0
  3  4  1  0
  4 13  1  0
  4  5  2  0
  5  6  1  0
  5  7  1  0
  6 19  1  0
  7 11  1  0
  7  8  1  0
  8  9  2  0
  8 20  1  0
  9 10  1  0
 10 11  2  0
 11 12  1  0
 12 13  1  0
 12 21  1  0
 12 22  1  0
 13 14  1  0
 14 16  1  0
 14 15  1  0
 14 23  1  0
 15 16  1  0
 15 24  1  0
 15 25  1  0
 16 26  1  0
 16 27  1  0
M  END
>  <i_m_ct_stereo_status>  (343) 
1

>  <s_m_source_file>  (343) 
/var/tmp/pbs.5076255.sched01/tmpnhftudgm/135squ2m_dv.sdf

>  <i_m_source_file_index>  (343) 
9

>  <i_lp_mmshare_version>  (343) 
48012

>  <i_f3d_flags>  (343) 
0

>  <s_epik_input>  (343) 
bjFbY0hdW2NIXVtjSF1jKGMxMiluM2Mobm5bY0hdMylbQ0gyXU4yW0NIXTRbQ0gyXVtDSDJdNA==

>  <s_epik_cmdline>  (343) 
J2VwaWtfcHl0aG9uJywgJy1waHQnLCAnMi4wJywgJy1waCcsICc3LjAnLCAnLXRuJywgJzgnLCAnLW1hJywgJzIwMCcsICctaW1hZScsICc8aW5maWxlLm1hZT4nLCAnLW9tYWUnLCAnPG91dGZpbGUubWFlPic=

>  <r_lp_tautomer_probability>  (343) 
1

>  <r_epik_Ionization_Penalty>  (343) 
0.00385892

>  <r_epik_Ionization_Penalty_Charging>  (343) 
0

>  <r_epik_Ionization_Penalty_Neutral>  (343) 
0.00385892

>  <r_epik_State_Penalty>  (343) 
0.00257172

>  <r_epik_Charging_Adjusted_Penalty>  (343) 
0.00257172

>  <i_epik_Tot_Q>  (343) 
0

>  <i_epik_Tot_abs_Q>  (343) 
0

>  <s_lp_Force_Field>  (343) 
OPLS3e

>  <r_lp_Energy>  (343) 
25.156

>  <b_lp_Chiralities_Consistent>  (343) 
1

>  <s_lp_Variant>  (343) 
94:0-1

>  <s_i_glide_gridfile>  (343) 
pfpi4k_grid

>  <i_i_glide_lignum>  (343) 
9

>  <i_i_glide_rotatable_bonds>  (343) 
1

>  <r_i_docking_score>  (343) 
-3.6159

>  <r_i_glide_ligand_efficiency>  (343) 
-0.225994

>  <r_i_glide_ligand_efficiency_sa>  (343) 
-0.569469

>  <r_i_glide_ligand_efficiency_ln>  (343) 
-0.958467

>  <r_i_glide_gscore>  (343) 
-3.6159

>  <r_i_glide_lipo>  (343) 
-0.650989

>  <r_i_glide_hbond>  (343) 
0

>  <r_i_glide_metal>  (343) 
-0

>  <r_i_glide_rewards>  (343) 
-2.37596

>  <r_i_glide_evdw>  (343) 
-20.0911

>  <r_i_glide_ecoul>  (343) 
1.13936

>  <r_i_glide_erotb>  (343) 
0.366797

>  <r_i_glide_esite>  (343) 
-0.122101

>  <r_i_glide_emodel>  (343) 
-23.7401

>  <r_i_glide_energy>  (343) 
-18.9517

>  <r_i_glide_einternal>  (343) 
0.385142

>  <r_i_glide_intrahb_reward>  (343) 
-0

>  <i_i_glide_confnum>  (343) 
1

>  <i_i_glide_posenum>  (343) 
7

>  <r_i_glide_eff_state_penalty>  (343) 
0

>  <ligand_id>  (343) 
94

>  <original_smiles>  (343) 
c1cnc2c(c1)-n1cnnc1CN2C1CC1

>  <smiles>  (343) 
[H]c1nc2c(c([H])c1[H])-n1c([H])nnc1C([H])([H])N2C1([H])C([H])([H])C1([H])[H]

$$$$
94:0:1
     RDKit          3D

 27 30  0  0  1  0  0  0  0  0999 V2000
    1.8700    0.7012    1.8054 C   0  0  0  0  0  0  0  0  0  0  0  0
    1.5052    2.0047    2.1919 C   0  0  0  0  0  0  0  0  0  0  0  0
    0.7841    2.2740    3.3016 N   0  0  0  0  0  0  0  0  0  0  0  0
    0.3841    1.2446    4.0771 C   0  0  0  0  0  0  0  0  0  0  0  0
    0.7108   -0.1038    3.7621 C   0  0  0  0  0  0  0  0  0  0  0  0
    1.4582   -0.3804    2.5979 C   0  0  0  0  0  0  0  0  0  0  0  0
    0.2844   -1.1166    4.6435 N   0  0  0  0  0  0  0  0  0  0  0  0
    0.2407   -2.4439    4.5304 C   0  0  0  0  0  0  0  0  0  0  0  0
   -0.2744   -3.0220    5.6231 N   0  0  0  0  0  0  0  0  0  0  0  0
   -0.5837   -1.9761    6.4921 N   0  0  0  0  0  0  0  0  0  0  0  0
   -0.2156   -0.8643    5.8491 C   0  0  0  0  0  0  0  0  0  0  0  0
   -0.3215    0.5431    6.3240 C   0  0  0  0  0  0  0  0  0  0  0  0
   -0.3738    1.5290    5.2439 N   0  0  0  0  0  0  0  0  0  0  0  0
   -0.7021    2.8903    5.6349 C   0  0  0  0  0  0  0  0  0  0  0  0
   -2.1268    3.1842    6.0510 C   0  0  0  0  0  0  0  0  0  0  0  0
   -1.5639    3.7766    4.7738 C   0  0  0  0  0  0  0  0  0  0  0  0
    2.4466    0.5372    0.9068 H   0  0  0  0  0  0  0  0  0  0  0  0
    1.8140    2.8584    1.6059 H   0  0  0  0  0  0  0  0  0  0  0  0
    1.7344   -1.3882    2.3281 H   0  0  0  0  0  0  0  0  0  0  0  0
    0.5564   -2.9877    3.6526 H   0  0  0  0  0  0  0  0  0  0  0  0
   -1.2171    0.6343    6.9390 H   0  0  0  0  0  0  0  0  0  0  0  0
    0.5473    0.7572    6.9491 H   0  0  0  0  0  0  0  0  0  0  0  0
    0.0905    3.3367    6.2343 H   0  0  0  0  0  0  0  0  0  0  0  0
   -2.8642    2.3895    5.9489 H   0  0  0  0  0  0  0  0  0  0  0  0
   -2.2786    3.8456    6.9008 H   0  0  0  0  0  0  0  0  0  0  0  0
   -1.3086    4.8310    4.7675 H   0  0  0  0  0  0  0  0  0  0  0  0
   -1.9010    3.3709    3.8208 H   0  0  0  0  0  0  0  0  0  0  0  0
  1  6  2  0
  1  2  1  0
  1 17  1  0
  2  3  2  0
  2 18  1  0
  3  4  1  0
  4 13  1  0
  4  5  2  0
  5  6  1  0
  5  7  1  0
  6 19  1  0
  7 11  1  0
  7  8  1  0
  8  9  2  0
  8 20  1  0
  9 10  1  0
 10 11  2  0
 11 12  1  0
 12 13  1  0
 12 21  1  0
 12 22  1  0
 13 14  1  0
 14 16  1  0
 14 15  1  0
 14 23  1  0
 15 16  1  0
 15 24  1  0
 15 25  1  0
 16 26  1  0
 16 27  1  0
M  END
>  <i_m_ct_stereo_status>  (344) 
1

>  <s_m_source_file>  (344) 
/var/tmp/pbs.5076255.sched01/tmpnhftudgm/135squ2m_dv.sdf

>  <i_m_source_file_index>  (344) 
9

>  <i_lp_mmshare_version>  (344) 
48012

>  <i_f3d_flags>  (344) 
0

>  <s_epik_input>  (344) 
bjFbY0hdW2NIXVtjSF1jKGMxMiluM2Mobm5bY0hdMylbQ0gyXU4yW0NIXTRbQ0gyXVtDSDJdNA==

>  <s_epik_cmdline>  (344) 
J2VwaWtfcHl0aG9uJywgJy1waHQnLCAnMi4wJywgJy1waCcsICc3LjAnLCAnLXRuJywgJzgnLCAnLW1hJywgJzIwMCcsICctaW1hZScsICc8aW5maWxlLm1hZT4nLCAnLW9tYWUnLCAnPG91dGZpbGUubWFlPic=

>  <r_lp_tautomer_probability>  (344) 
1

>  <r_epik_Ionization_Penalty>  (344) 
0.00385892

>  <r_epik_Ionization_Penalty_Charging>  (344) 
0

>  <r_epik_Ionization_Penalty_Neutral>  (344) 
0.00385892

>  <r_epik_State_Penalty>  (344) 
0.00257172

>  <r_epik_Charging_Adjusted_Penalty>  (344) 
0.00257172

>  <i_epik_Tot_Q>  (344) 
0

>  <i_epik_Tot_abs_Q>  (344) 
0

>  <s_lp_Force_Field>  (344) 
OPLS3e

>  <r_lp_Energy>  (344) 
25.156

>  <b_lp_Chiralities_Consistent>  (344) 
1

>  <s_lp_Variant>  (344) 
94:0-1

>  <s_i_glide_gridfile>  (344) 
pfpi4k_grid

>  <i_i_glide_lignum>  (344) 
9

>  <i_i_glide_rotatable_bonds>  (344) 
1

>  <r_i_docking_score>  (344) 
-2.94405

>  <r_i_glide_ligand_efficiency>  (344) 
-0.184003

>  <r_i_glide_ligand_efficiency_sa>  (344) 
-0.463659

>  <r_i_glide_ligand_efficiency_ln>  (344) 
-0.780379

>  <r_i_glide_gscore>  (344) 
-2.94405

>  <r_i_glide_lipo>  (344) 
-0.0546606

>  <r_i_glide_hbond>  (344) 
0

>  <r_i_glide_metal>  (344) 
-0

>  <r_i_glide_rewards>  (344) 
-2.03453

>  <r_i_glide_evdw>  (344) 
-16.4947

>  <r_i_glide_ecoul>  (344) 
-1.88089

>  <r_i_glide_erotb>  (344) 
0.366797

>  <r_i_glide_esite>  (344) 
-0.114787

>  <r_i_glide_emodel>  (344) 
-22.4905

>  <r_i_glide_energy>  (344) 
-18.3756

>  <r_i_glide_einternal>  (344) 
0.0054902

>  <r_i_glide_intrahb_reward>  (344) 
-0

>  <i_i_glide_confnum>  (344) 
3

>  <i_i_glide_posenum>  (344) 
11

>  <r_i_glide_eff_state_penalty>  (344) 
0

>  <ligand_id>  (344) 
94

>  <original_smiles>  (344) 
c1cnc2c(c1)-n1cnnc1CN2C1CC1

>  <smiles>  (344) 
[H]c1nc2c(c([H])c1[H])-n1c([H])nnc1C([H])([H])N2C1([H])C([H])([H])C1([H])[H]

$$$$
94:0:2
     RDKit          3D

 27 30  0  0  1  0  0  0  0  0999 V2000
    0.7091   -4.1852    5.8938 C   0  0  0  0  0  0  0  0  0  0  0  0
   -0.1865   -5.2589    6.0590 C   0  0  0  0  0  0  0  0  0  0  0  0
   -0.3133   -6.2641    5.1693 N   0  0  0  0  0  0  0  0  0  0  0  0
    0.4856   -6.2715    4.0770 C   0  0  0  0  0  0  0  0  0  0  0  0
    1.4212   -5.2285    3.8341 C   0  0  0  0  0  0  0  0  0  0  0  0
    1.5291   -4.1645    4.7508 C   0  0  0  0  0  0  0  0  0  0  0  0
    2.2208   -5.3099    2.6758 N   0  0  0  0  0  0  0  0  0  0  0  0
    3.0028   -4.4176    2.0643 C   0  0  0  0  0  0  0  0  0  0  0  0
    3.5624   -4.9219    0.9565 N   0  0  0  0  0  0  0  0  0  0  0  0
    3.1091   -6.2401    0.8754 N   0  0  0  0  0  0  0  0  0  0  0  0
    2.3026   -6.4039    1.9246 C   0  0  0  0  0  0  0  0  0  0  0  0
    1.5308   -7.6195    2.3024 C   0  0  0  0  0  0  0  0  0  0  0  0
    0.3690   -7.3374    3.1469 N   0  0  0  0  0  0  0  0  0  0  0  0
   -0.5377   -8.4503    3.3732 C   0  0  0  0  0  0  0  0  0  0  0  0
   -1.4002   -8.8957    2.2145 C   0  0  0  0  0  0  0  0  0  0  0  0
   -2.0274   -8.2541    3.4303 C   0  0  0  0  0  0  0  0  0  0  0  0
    0.7698   -3.4043    6.6344 H   0  0  0  0  0  0  0  0  0  0  0  0
   -0.8305   -5.3085    6.9256 H   0  0  0  0  0  0  0  0  0  0  0  0
    2.2338   -3.3602    4.6023 H   0  0  0  0  0  0  0  0  0  0  0  0
    3.1522   -3.4044    2.4041 H   0  0  0  0  0  0  0  0  0  0  0  0
    1.2125   -8.1260    1.3883 H   0  0  0  0  0  0  0  0  0  0  0  0
    2.2020   -8.2868    2.8464 H   0  0  0  0  0  0  0  0  0  0  0  0
   -0.0817   -9.2340    3.9773 H   0  0  0  0  0  0  0  0  0  0  0  0
   -1.3688   -8.3100    1.2948 H   0  0  0  0  0  0  0  0  0  0  0  0
   -1.5385   -9.9659    2.0757 H   0  0  0  0  0  0  0  0  0  0  0  0
   -2.5806   -8.9036    4.0998 H   0  0  0  0  0  0  0  0  0  0  0  0
   -2.4041   -7.2383    3.3458 H   0  0  0  0  0  0  0  0  0  0  0  0
  1  6  2  0
  1  2  1  0
  1 17  1  0
  2  3  2  0
  2 18  1  0
  3  4  1  0
  4 13  1  0
  4  5  2  0
  5  6  1  0
  5  7  1  0
  6 19  1  0
  7 11  1  0
  7  8  1  0
  8  9  2  0
  8 20  1  0
  9 10  1  0
 10 11  2  0
 11 12  1  0
 12 13  1  0
 12 21  1  0
 12 22  1  0
 13 14  1  0
 14 16  1  0
 14 15  1  0
 14 23  1  0
 15 16  1  0
 15 24  1  0
 15 25  1  0
 16 26  1  0
 16 27  1  0
M  END
>  <i_m_ct_stereo_status>  (345) 
1

>  <s_m_source_file>  (345) 
/var/tmp/pbs.5076255.sched01/tmpnhftudgm/135squ2m_dv.sdf

>  <i_m_source_file_index>  (345) 
9

>  <i_lp_mmshare_version>  (345) 
48012

>  <i_f3d_flags>  (345) 
0

>  <s_epik_input>  (345) 
bjFbY0hdW2NIXVtjSF1jKGMxMiluM2Mobm5bY0hdMylbQ0gyXU4yW0NIXTRbQ0gyXVtDSDJdNA==

>  <s_epik_cmdline>  (345) 
J2VwaWtfcHl0aG9uJywgJy1waHQnLCAnMi4wJywgJy1waCcsICc3LjAnLCAnLXRuJywgJzgnLCAnLW1hJywgJzIwMCcsICctaW1hZScsICc8aW5maWxlLm1hZT4nLCAnLW9tYWUnLCAnPG91dGZpbGUubWFlPic=

>  <r_lp_tautomer_probability>  (345) 
1

>  <r_epik_Ionization_Penalty>  (345) 
0.00385892

>  <r_epik_Ionization_Penalty_Charging>  (345) 
0

>  <r_epik_Ionization_Penalty_Neutral>  (345) 
0.00385892

>  <r_epik_State_Penalty>  (345) 
0.00257172

>  <r_epik_Charging_Adjusted_Penalty>  (345) 
0.00257172

>  <i_epik_Tot_Q>  (345) 
0

>  <i_epik_Tot_abs_Q>  (345) 
0

>  <s_lp_Force_Field>  (345) 
OPLS3e

>  <r_lp_Energy>  (345) 
25.156

>  <b_lp_Chiralities_Consistent>  (345) 
1

>  <s_lp_Variant>  (345) 
94:0-1

>  <s_i_glide_gridfile>  (345) 
pfpi4k_grid

>  <i_i_glide_lignum>  (345) 
9

>  <i_i_glide_rotatable_bonds>  (345) 
1

>  <r_i_docking_score>  (345) 
-2.81058

>  <r_i_glide_ligand_efficiency>  (345) 
-0.175662

>  <r_i_glide_ligand_efficiency_sa>  (345) 
-0.442639

>  <r_i_glide_ligand_efficiency_ln>  (345) 
-0.745002

>  <r_i_glide_gscore>  (345) 
-2.81058

>  <r_i_glide_lipo>  (345) 
-0.155461

>  <r_i_glide_hbond>  (345) 
0

>  <r_i_glide_metal>  (345) 
-0

>  <r_i_glide_rewards>  (345) 
-1.95519

>  <r_i_glide_evdw>  (345) 
-18.7992

>  <r_i_glide_ecoul>  (345) 
-0.393211

>  <r_i_glide_erotb>  (345) 
0.366797

>  <r_i_glide_esite>  (345) 
-0.0677867

>  <r_i_glide_emodel>  (345) 
-23.1091

>  <r_i_glide_energy>  (345) 
-19.1924

>  <r_i_glide_einternal>  (345) 
0.0119646

>  <r_i_glide_intrahb_reward>  (345) 
-0

>  <i_i_glide_confnum>  (345) 
1

>  <i_i_glide_posenum>  (345) 
33

>  <r_i_glide_eff_state_penalty>  (345) 
0

>  <ligand_id>  (345) 
94

>  <original_smiles>  (345) 
c1cnc2c(c1)-n1cnnc1CN2C1CC1

>  <smiles>  (345) 
[H]c1nc2c(c([H])c1[H])-n1c([H])nnc1C([H])([H])N2C1([H])C([H])([H])C1([H])[H]

$$$$
95:0:0
     RDKit          3D

 52 55  0  0  1  0  0  0  0  0999 V2000
    6.2759   -4.3250    6.0371 C   0  0  0  0  0  0  0  0  0  0  0  0
    5.2749   -4.4073    5.1471 C   0  0  0  0  0  0  0  0  0  0  0  0
    5.0927   -5.5200    4.1199 C   0  0  2  0  0  0  0  0  0  0  0  0
    6.4287   -6.0319    3.5114 C   0  0  0  0  0  0  0  0  0  0  0  0
    6.3118   -5.7509    2.0014 C   0  0  1  0  0  0  0  0  0  0  0  0
    5.7049   -6.9624    1.2594 C   0  0  0  0  0  0  0  0  0  0  0  0
    4.3401   -7.3823    1.8519 C   0  0  0  0  0  0  0  0  0  0  0  0
    3.4721   -6.1577    2.2176 C   0  0  0  0  0  0  0  0  0  0  0  0
    4.3081   -5.0279    2.8791 C   0  0  2  0  0  0  0  0  0  0  0  0
    5.3868   -4.6000    1.9697 N   0  0  2  0  0  0  0  0  0  0  0  0
    5.0165   -4.0040    0.6362 C   0  0  2  0  0  0  0  0  0  0  0  0
    6.2682   -3.3676   -0.0095 C   0  0  0  0  0  0  0  0  0  0  0  0
    5.9499   -2.5485   -1.2726 C   0  0  1  0  0  0  0  0  0  0  0  0
    5.6036   -3.4553   -2.4832 C   0  0  0  0  0  0  0  0  0  0  0  0
    4.6133   -2.8560   -3.5062 C   0  0  0  0  0  0  0  0  0  0  0  0
    3.1566   -2.6542   -3.0136 C   0  0  0  0  0  0  0  0  0  0  0  0
    2.8855   -3.0549   -1.5542 C   0  0  0  0  0  0  0  0  0  0  0  0
    3.5860   -2.1897   -0.4786 C   0  0  2  0  0  0  0  0  0  0  0  0
    4.8777   -1.5055   -0.9350 C   0  0  0  0  0  0  0  0  0  0  0  0
    3.8701   -2.9799    0.7990 C   0  0  0  0  0  0  0  0  0  0  0  0
    7.0433   -5.0743    6.0942 H   0  0  0  0  0  0  0  0  0  0  0  0
    6.3271   -3.5033    6.7311 H   0  0  0  0  0  0  0  0  0  0  0  0
    4.5244   -3.6352    5.1584 H   0  0  0  0  0  0  0  0  0  0  0  0
    4.5339   -6.3213    4.6055 H   0  0  0  0  0  0  0  0  0  0  0  0
    7.2949   -5.4771    3.8703 H   0  0  0  0  0  0  0  0  0  0  0  0
    6.6176   -7.0867    3.7212 H   0  0  0  0  0  0  0  0  0  0  0  0
    7.2876   -5.5017    1.5840 H   0  0  0  0  0  0  0  0  0  0  0  0
    5.5797   -6.7253    0.1990 H   0  0  0  0  0  0  0  0  0  0  0  0
    6.3931   -7.8106    1.2950 H   0  0  0  0  0  0  0  0  0  0  0  0
    3.8084   -8.0340    1.1602 H   0  0  0  0  0  0  0  0  0  0  0  0
    4.5126   -7.9709    2.7559 H   0  0  0  0  0  0  0  0  0  0  0  0
    2.9778   -5.7905    1.3118 H   0  0  0  0  0  0  0  0  0  0  0  0
    2.6639   -6.4661    2.8855 H   0  0  0  0  0  0  0  0  0  0  0  0
    3.6468   -4.2072    3.1484 H   0  0  0  0  0  0  0  0  0  0  0  0
    4.6519   -4.7922   -0.0139 H   0  0  0  0  0  0  0  0  0  0  0  0
    6.7409   -2.7063    0.7177 H   0  0  0  0  0  0  0  0  0  0  0  0
    7.0104   -4.1258   -0.2665 H   0  0  0  0  0  0  0  0  0  0  0  0
    6.8522   -2.0046   -1.5472 H   0  0  0  0  0  0  0  0  0  0  0  0
    6.5360   -3.6740   -3.0037 H   0  0  0  0  0  0  0  0  0  0  0  0
    5.2327   -4.4227   -2.1666 H   0  0  0  0  0  0  0  0  0  0  0  0
    5.0035   -1.9095   -3.8816 H   0  0  0  0  0  0  0  0  0  0  0  0
    4.5846   -3.5296   -4.3663 H   0  0  0  0  0  0  0  0  0  0  0  0
    2.8592   -1.6144   -3.1615 H   0  0  0  0  0  0  0  0  0  0  0  0
    2.4944   -3.2388   -3.6563 H   0  0  0  0  0  0  0  0  0  0  0  0
    1.8096   -3.0224   -1.3851 H   0  0  0  0  0  0  0  0  0  0  0  0
    3.1192   -4.1122   -1.4377 H   0  0  0  0  0  0  0  0  0  0  0  0
    2.8936   -1.3937   -0.2066 H   0  0  0  0  0  0  0  0  0  0  0  0
    5.2407   -0.8788   -0.1172 H   0  0  0  0  0  0  0  0  0  0  0  0
    4.6941   -0.8158   -1.7588 H   0  0  0  0  0  0  0  0  0  0  0  0
    2.9362   -3.4678    1.0818 H   0  0  0  0  0  0  0  0  0  0  0  0
    4.1224   -2.2820    1.5964 H   0  0  0  0  0  0  0  0  0  0  0  0
    5.8597   -3.8716    2.4796 H   0  0  0  0  0  0  0  0  0  0  0  0
  1  2  2  0
  1 21  1  0
  1 22  1  0
  2  3  1  0
  2 23  1  0
  3  9  1  0
  3  4  1  0
  3 24  1  1
  4  5  1  0
  4 25  1  0
  4 26  1  0
  5 10  1  0
  5  6  1  0
  5 27  1  6
  6  7  1  0
  6 28  1  0
  6 29  1  0
  7  8  1  0
  7 30  1  0
  7 31  1  0
  8  9  1  0
  8 32  1  0
  8 33  1  0
  9 10  1  0
  9 34  1  1
 10 11  1  0
 10 52  1  1
 11 20  1  0
 11 12  1  0
 11 35  1  6
 12 13  1  0
 12 36  1  0
 12 37  1  0
 13 19  1  0
 13 14  1  0
 13 38  1  6
 14 15  1  0
 14 39  1  0
 14 40  1  0
 15 16  1  0
 15 41  1  0
 15 42  1  0
 16 17  1  0
 16 43  1  0
 16 44  1  0
 17 18  1  0
 17 45  1  0
 17 46  1  0
 18 19  1  0
 18 20  1  0
 18 47  1  1
 19 48  1  0
 19 49  1  0
 20 50  1  0
 20 51  1  0
M  CHG  1  10   1
M  END
>  <i_m_ct_stereo_status>  (346) 
1

>  <s_m_source_file>  (346) 
/var/tmp/pbs.5076255.sched01/tmpnhftudgm/135squ2m_dv.sdf

>  <i_m_source_file_index>  (346) 
10

>  <i_lp_mmshare_version>  (346) 
48012

>  <i_f3d_flags>  (346) 
0

>  <s_epik_input>  (346) 
W0NIMl09W0NIXVtDQEhdKFtDSDJdW0NAQEhdMTIpW0NASF0oW0NIMl1bQ0gyXVtDSDJdMSlOMltDQEhdKFtDSDJdW0NAQEhdMzQpW0NIMl1bQ0BASF0oW0NIMl00KVtDSDJdW0NIMl1bQ0gyXVtDSDJdMw==

>  <s_epik_cmdline>  (346) 
J2VwaWtfcHl0aG9uJywgJy1waHQnLCAnMi4wJywgJy1waCcsICc3LjAnLCAnLXRuJywgJzgnLCAnLW1hJywgJzIwMCcsICctaW1hZScsICc8aW5maWxlLm1hZT4nLCAnLW9tYWUnLCAnPG91dGZpbGUubWFlPic=

>  <r_lp_tautomer_probability>  (346) 
1

>  <r_epik_Ionization_Penalty>  (346) 
0.000148517

>  <r_epik_Ionization_Penalty_Charging>  (346) 
0.000148517

>  <r_epik_Ionization_Penalty_Neutral>  (346) 
0

>  <r_epik_State_Penalty>  (346) 
-0

>  <r_epik_Charging_Adjusted_Penalty>  (346) 
0.000148517

>  <i_epik_Tot_Q>  (346) 
1

>  <i_epik_Tot_abs_Q>  (346) 
1

>  <s_lp_Force_Field>  (346) 
OPLS3e

>  <r_lp_Energy>  (346) 
52.2289

>  <b_lp_Chiralities_Consistent>  (346) 
1

>  <s_lp_Variant>  (346) 
95:0-1

>  <s_i_glide_gridfile>  (346) 
pfpi4k_grid

>  <i_i_glide_lignum>  (346) 
10

>  <i_i_glide_rotatable_bonds>  (346) 
2

>  <r_i_docking_score>  (346) 
-3.16285

>  <r_i_glide_ligand_efficiency>  (346) 
-0.158143

>  <r_i_glide_ligand_efficiency_sa>  (346) 
-0.429265

>  <r_i_glide_ligand_efficiency_ln>  (346) 
-0.791557

>  <r_i_glide_gscore>  (346) 
-3.16285

>  <r_i_glide_lipo>  (346) 
-0.751452

>  <r_i_glide_hbond>  (346) 
0

>  <r_i_glide_metal>  (346) 
-0

>  <r_i_glide_rewards>  (346) 
-1.53774

>  <r_i_glide_evdw>  (346) 
-22.9802

>  <r_i_glide_ecoul>  (346) 
-1.34268

>  <r_i_glide_erotb>  (346) 
0.476761

>  <r_i_glide_esite>  (346) 
0

>  <r_i_glide_emodel>  (346) 
-27.231

>  <r_i_glide_energy>  (346) 
-24.3229

>  <r_i_glide_einternal>  (346) 
3.17838

>  <r_i_glide_intrahb_reward>  (346) 
-0

>  <i_i_glide_confnum>  (346) 
1

>  <i_i_glide_posenum>  (346) 
5

>  <r_i_glide_eff_state_penalty>  (346) 
0

>  <ligand_id>  (346) 
95

>  <original_smiles>  (346) 
C=CC1CC2CCCC1N2C1CC2CCCCC(C2)C1

>  <smiles>  (346) 
[H]C([H])=C([H])C1([H])C([H])([H])C2([H])C([H])([H])C([H])([H])C([H])([H])C1([H])[N+]2([H])C1([H])C([H])([H])C2([H])C([H])([H])C([H])([H])C([H])([H])C([H])([H])C([H])(C2([H])[H])C1([H])[H]

$$$$
95:0:1
     RDKit          3D

 52 55  0  0  1  0  0  0  0  0999 V2000
    4.1577   -4.5071    6.3844 C   0  0  0  0  0  0  0  0  0  0  0  0
    4.6869   -4.3780    5.1652 C   0  0  0  0  0  0  0  0  0  0  0  0
    4.7299   -5.5006    4.1404 C   0  0  2  0  0  0  0  0  0  0  0  0
    6.1774   -5.8161    3.6907 C   0  0  0  0  0  0  0  0  0  0  0  0
    6.1846   -5.5424    2.1707 C   0  0  1  0  0  0  0  0  0  0  0  0
    5.8173   -6.8095    1.3590 C   0  0  0  0  0  0  0  0  0  0  0  0
    4.4646   -7.4080    1.8173 C   0  0  0  0  0  0  0  0  0  0  0  0
    3.4062   -6.3141    2.0976 C   0  0  0  0  0  0  0  0  0  0  0  0
    4.0241   -5.0927    2.8289 C   0  0  2  0  0  0  0  0  0  0  0  0
    5.1283   -4.5218    2.0326 N   0  0  2  0  0  0  0  0  0  0  0  0
    4.8243   -3.9724    0.6616 C   0  0  2  0  0  0  0  0  0  0  0  0
    6.1049   -3.3660    0.0424 C   0  0  0  0  0  0  0  0  0  0  0  0
    5.8412   -2.5845   -1.2553 C   0  0  1  0  0  0  0  0  0  0  0  0
    5.5274   -3.5196   -2.4417 C   0  0  0  0  0  0  0  0  0  0  0  0
    4.5893   -2.9529   -3.5229 C   0  0  0  0  0  0  0  0  0  0  0  0
    3.1193   -2.7109   -3.0959 C   0  0  0  0  0  0  0  0  0  0  0  0
    2.7814   -3.0637   -1.6355 C   0  0  0  0  0  0  0  0  0  0  0  0
    3.4581   -2.1782   -0.5584 C   0  0  2  0  0  0  0  0  0  0  0  0
    4.7744   -1.5194   -0.9871 C   0  0  0  0  0  0  0  0  0  0  0  0
    3.6807   -2.9393    0.7532 C   0  0  0  0  0  0  0  0  0  0  0  0
    3.7300   -5.4430    6.7075 H   0  0  0  0  0  0  0  0  0  0  0  0
    4.1381   -3.6821    7.0771 H   0  0  0  0  0  0  0  0  0  0  0  0
    5.1071   -3.4271    4.8707 H   0  0  0  0  0  0  0  0  0  0  0  0
    4.2565   -6.3867    4.5699 H   0  0  0  0  0  0  0  0  0  0  0  0
    6.8864   -5.1496    4.1813 H   0  0  0  0  0  0  0  0  0  0  0  0
    6.4905   -6.8390    3.9241 H   0  0  0  0  0  0  0  0  0  0  0  0
    7.1622   -5.1687    1.8655 H   0  0  0  0  0  0  0  0  0  0  0  0
    5.7693   -6.5755    0.2910 H   0  0  0  0  0  0  0  0  0  0  0  0
    6.6002   -7.5638    1.4565 H   0  0  0  0  0  0  0  0  0  0  0  0
    4.0901   -8.1244    1.0815 H   0  0  0  0  0  0  0  0  0  0  0  0
    4.6296   -7.9772    2.7338 H   0  0  0  0  0  0  0  0  0  0  0  0
    2.9467   -5.9996    1.1559 H   0  0  0  0  0  0  0  0  0  0  0  0
    2.5936   -6.7365    2.6910 H   0  0  0  0  0  0  0  0  0  0  0  0
    3.2440   -4.3614    3.0364 H   0  0  0  0  0  0  0  0  0  0  0  0
    4.4902   -4.7866    0.0311 H   0  0  0  0  0  0  0  0  0  0  0  0
    6.5610   -2.6900    0.7678 H   0  0  0  0  0  0  0  0  0  0  0  0
    6.8431   -4.1428   -0.1724 H   0  0  0  0  0  0  0  0  0  0  0  0
    6.7636   -2.0637   -1.5122 H   0  0  0  0  0  0  0  0  0  0  0  0
    6.4721   -3.7847   -2.9166 H   0  0  0  0  0  0  0  0  0  0  0  0
    5.1237   -4.4740   -2.1061 H   0  0  0  0  0  0  0  0  0  0  0  0
    5.0115   -2.0271   -3.9178 H   0  0  0  0  0  0  0  0  0  0  0  0
    4.5847   -3.6573   -4.3576 H   0  0  0  0  0  0  0  0  0  0  0  0
    2.8431   -1.6726   -3.2914 H   0  0  0  0  0  0  0  0  0  0  0  0
    2.4732   -3.3094   -3.7444 H   0  0  0  0  0  0  0  0  0  0  0  0
    1.6997   -3.0128   -1.5160 H   0  0  0  0  0  0  0  0  0  0  0  0
    2.9941   -4.1178   -1.4752 H   0  0  0  0  0  0  0  0  0  0  0  0
    2.7752   -1.3627   -0.3288 H   0  0  0  0  0  0  0  0  0  0  0  0
    5.1178   -0.8688   -0.1837 H   0  0  0  0  0  0  0  0  0  0  0  0
    4.6317   -0.8583   -1.8413 H   0  0  0  0  0  0  0  0  0  0  0  0
    2.7345   -3.4147    1.0246 H   0  0  0  0  0  0  0  0  0  0  0  0
    3.9103   -2.2194    1.5400 H   0  0  0  0  0  0  0  0  0  0  0  0
    5.4539   -3.7388    2.5800 H   0  0  0  0  0  0  0  0  0  0  0  0
  1  2  2  0
  1 21  1  0
  1 22  1  0
  2  3  1  0
  2 23  1  0
  3  9  1  0
  3  4  1  0
  3 24  1  1
  4  5  1  0
  4 25  1  0
  4 26  1  0
  5 10  1  0
  5  6  1  0
  5 27  1  6
  6  7  1  0
  6 28  1  0
  6 29  1  0
  7  8  1  0
  7 30  1  0
  7 31  1  0
  8  9  1  0
  8 32  1  0
  8 33  1  0
  9 10  1  0
  9 34  1  1
 10 11  1  0
 10 52  1  1
 11 20  1  0
 11 12  1  0
 11 35  1  6
 12 13  1  0
 12 36  1  0
 12 37  1  0
 13 19  1  0
 13 14  1  0
 13 38  1  6
 14 15  1  0
 14 39  1  0
 14 40  1  0
 15 16  1  0
 15 41  1  0
 15 42  1  0
 16 17  1  0
 16 43  1  0
 16 44  1  0
 17 18  1  0
 17 45  1  0
 17 46  1  0
 18 19  1  0
 18 20  1  0
 18 47  1  1
 19 48  1  0
 19 49  1  0
 20 50  1  0
 20 51  1  0
M  CHG  1  10   1
M  END
>  <i_m_ct_stereo_status>  (347) 
1

>  <s_m_source_file>  (347) 
/var/tmp/pbs.5076255.sched01/tmpnhftudgm/135squ2m_dv.sdf

>  <i_m_source_file_index>  (347) 
10

>  <i_lp_mmshare_version>  (347) 
48012

>  <i_f3d_flags>  (347) 
0

>  <s_epik_input>  (347) 
W0NIMl09W0NIXVtDQEhdKFtDSDJdW0NAQEhdMTIpW0NASF0oW0NIMl1bQ0gyXVtDSDJdMSlOMltDQEhdKFtDSDJdW0NAQEhdMzQpW0NIMl1bQ0BASF0oW0NIMl00KVtDSDJdW0NIMl1bQ0gyXVtDSDJdMw==

>  <s_epik_cmdline>  (347) 
J2VwaWtfcHl0aG9uJywgJy1waHQnLCAnMi4wJywgJy1waCcsICc3LjAnLCAnLXRuJywgJzgnLCAnLW1hJywgJzIwMCcsICctaW1hZScsICc8aW5maWxlLm1hZT4nLCAnLW9tYWUnLCAnPG91dGZpbGUubWFlPic=

>  <r_lp_tautomer_probability>  (347) 
1

>  <r_epik_Ionization_Penalty>  (347) 
0.000148517

>  <r_epik_Ionization_Penalty_Charging>  (347) 
0.000148517

>  <r_epik_Ionization_Penalty_Neutral>  (347) 
0

>  <r_epik_State_Penalty>  (347) 
-0

>  <r_epik_Charging_Adjusted_Penalty>  (347) 
0.000148517

>  <i_epik_Tot_Q>  (347) 
1

>  <i_epik_Tot_abs_Q>  (347) 
1

>  <s_lp_Force_Field>  (347) 
OPLS3e

>  <r_lp_Energy>  (347) 
52.2289

>  <b_lp_Chiralities_Consistent>  (347) 
1

>  <s_lp_Variant>  (347) 
95:0-1

>  <s_i_glide_gridfile>  (347) 
pfpi4k_grid

>  <i_i_glide_lignum>  (347) 
10

>  <i_i_glide_rotatable_bonds>  (347) 
2

>  <r_i_docking_score>  (347) 
-3.11506

>  <r_i_glide_ligand_efficiency>  (347) 
-0.155753

>  <r_i_glide_ligand_efficiency_sa>  (347) 
-0.422779

>  <r_i_glide_ligand_efficiency_ln>  (347) 
-0.779598

>  <r_i_glide_gscore>  (347) 
-3.11506

>  <r_i_glide_lipo>  (347) 
-0.749505

>  <r_i_glide_hbond>  (347) 
0

>  <r_i_glide_metal>  (347) 
-0

>  <r_i_glide_rewards>  (347) 
-1.53774

>  <r_i_glide_evdw>  (347) 
-21.698

>  <r_i_glide_ecoul>  (347) 
-1.46452

>  <r_i_glide_erotb>  (347) 
0.476761

>  <r_i_glide_esite>  (347) 
0

>  <r_i_glide_emodel>  (347) 
-27.6283

>  <r_i_glide_energy>  (347) 
-23.1625

>  <r_i_glide_einternal>  (347) 
0.0197259

>  <r_i_glide_intrahb_reward>  (347) 
-0

>  <i_i_glide_confnum>  (347) 
1

>  <i_i_glide_posenum>  (347) 
1

>  <r_i_glide_eff_state_penalty>  (347) 
0

>  <ligand_id>  (347) 
95

>  <original_smiles>  (347) 
C=CC1CC2CCCC1N2C1CC2CCCCC(C2)C1

>  <smiles>  (347) 
[H]C([H])=C([H])C1([H])C([H])([H])C2([H])C([H])([H])C([H])([H])C([H])([H])C1([H])[N+]2([H])C1([H])C([H])([H])C2([H])C([H])([H])C([H])([H])C([H])([H])C([H])([H])C([H])(C2([H])[H])C1([H])[H]

$$$$
95:0:2
     RDKit          3D

 52 55  0  0  1  0  0  0  0  0999 V2000
    2.8113   -2.9464    5.6297 C   0  0  0  0  0  0  0  0  0  0  0  0
    3.4820   -3.0937    4.4621 C   0  0  0  0  0  0  0  0  0  0  0  0
    3.3366   -4.3036    3.5651 C   0  0  2  0  0  0  0  0  0  0  0  0
    4.7009   -4.9868    3.2907 C   0  0  0  0  0  0  0  0  0  0  0  0
    4.8700   -4.9452    1.7659 C   0  0  1  0  0  0  0  0  0  0  0  0
    4.2542   -6.1923    1.0675 C   0  0  0  0  0  0  0  0  0  0  0  0
    2.7973   -6.4110    1.5077 C   0  0  0  0  0  0  0  0  0  0  0  0
    2.0170   -5.0892    1.5508 C   0  0  0  0  0  0  0  0  0  0  0  0
    2.8367   -3.9226    2.1560 C   0  0  2  0  0  0  0  0  0  0  0  0
    4.1030   -3.7347    1.4136 N   0  0  2  0  0  0  0  0  0  0  0  0
    4.0650   -3.3188   -0.0082 C   0  0  2  0  0  0  0  0  0  0  0  0
    5.4047   -3.6243   -0.7607 C   0  0  0  0  0  0  0  0  0  0  0  0
    5.4807   -3.0677   -2.1852 C   0  0  1  0  0  0  0  0  0  0  0  0
    4.4878   -3.7910   -3.1229 C   0  0  0  0  0  0  0  0  0  0  0  0
    3.8916   -2.9102   -4.2356 C   0  0  0  0  0  0  0  0  0  0  0  0
    2.9709   -1.7760   -3.8785 C   0  0  0  0  0  0  0  0  0  0  0  0
    2.7368   -1.7003   -2.4133 C   0  0  0  0  0  0  0  0  0  0  0  0
    3.9012   -1.3094   -1.5055 C   0  0  2  0  0  0  0  0  0  0  0  0
    5.2755   -1.5667   -2.0643 C   0  0  0  0  0  0  0  0  0  0  0  0
    3.7471   -1.8157   -0.0781 C   0  0  0  0  0  0  0  0  0  0  0  0
    2.1399   -3.7111    5.9727 H   0  0  0  0  0  0  0  0  0  0  0  0
    2.9401   -2.0683    6.2349 H   0  0  0  0  0  0  0  0  0  0  0  0
    4.1490   -2.3113    4.1479 H   0  0  0  0  0  0  0  0  0  0  0  0
    2.6487   -5.0061    4.0360 H   0  0  0  0  0  0  0  0  0  0  0  0
    5.5104   -4.4266    3.7556 H   0  0  0  0  0  0  0  0  0  0  0  0
    4.7692   -6.0057    3.6704 H   0  0  0  0  0  0  0  0  0  0  0  0
    5.9295   -4.8338    1.5334 H   0  0  0  0  0  0  0  0  0  0  0  0
    4.2594   -6.1150   -0.0227 H   0  0  0  0  0  0  0  0  0  0  0  0
    4.8516   -7.0716    1.3217 H   0  0  0  0  0  0  0  0  0  0  0  0
    2.3041   -7.0771    0.8086 H   0  0  0  0  0  0  0  0  0  0  0  0
    2.7657   -6.9003    2.4855 H   0  0  0  0  0  0  0  0  0  0  0  0
    1.7073   -4.8390    0.5381 H   0  0  0  0  0  0  0  0  0  0  0  0
    1.1014   -5.2322    2.1300 H   0  0  0  0  0  0  0  0  0  0  0  0
    2.2349   -3.0082    2.1737 H   0  0  0  0  0  0  0  0  0  0  0  0
    3.2610   -3.8336   -0.5415 H   0  0  0  0  0  0  0  0  0  0  0  0
    6.2286   -3.1828   -0.1933 H   0  0  0  0  0  0  0  0  0  0  0  0
    5.5662   -4.6904   -0.8975 H   0  0  0  0  0  0  0  0  0  0  0  0
    6.4997   -3.2248   -2.5643 H   0  0  0  0  0  0  0  0  0  0  0  0
    5.0064   -4.6308   -3.5812 H   0  0  0  0  0  0  0  0  0  0  0  0
    3.6897   -4.2474   -2.5610 H   0  0  0  0  0  0  0  0  0  0  0  0
    4.7046   -2.3750   -4.6978 H   0  0  0  0  0  0  0  0  0  0  0  0
    3.3822   -3.4906   -4.9950 H   0  0  0  0  0  0  0  0  0  0  0  0
    3.3610   -0.8359   -4.2768 H   0  0  0  0  0  0  0  0  0  0  0  0
    1.9964   -1.9279   -4.3398 H   0  0  0  0  0  0  0  0  0  0  0  0
    2.1173   -0.8187   -2.3339 H   0  0  0  0  0  0  0  0  0  0  0  0
    2.1836   -2.5847   -2.0769 H   0  0  0  0  0  0  0  0  0  0  0  0
    3.8700   -0.2543   -1.4522 H   0  0  0  0  0  0  0  0  0  0  0  0
    5.9971   -1.1348   -1.3770 H   0  0  0  0  0  0  0  0  0  0  0  0
    5.3920   -1.0488   -3.0113 H   0  0  0  0  0  0  0  0  0  0  0  0
    2.7391   -1.5821    0.2727 H   0  0  0  0  0  0  0  0  0  0  0  0
    4.4284   -1.2498    0.5534 H   0  0  0  0  0  0  0  0  0  0  0  0
    4.5636   -2.9889    1.9119 H   0  0  0  0  0  0  0  0  0  0  0  0
  1  2  2  0
  1 21  1  0
  1 22  1  0
  2  3  1  0
  2 23  1  0
  3  9  1  0
  3  4  1  0
  3 24  1  1
  4  5  1  0
  4 25  1  0
  4 26  1  0
  5 10  1  0
  5  6  1  0
  5 27  1  1
  6  7  1  0
  6 28  1  0
  6 29  1  0
  7  8  1  0
  7 30  1  0
  7 31  1  0
  8  9  1  0
  8 32  1  0
  8 33  1  0
  9 10  1  0
  9 34  1  1
 10 11  1  0
 10 52  1  1
 11 20  1  0
 11 12  1  0
 11 35  1  6
 12 13  1  0
 12 36  1  0
 12 37  1  0
 13 19  1  0
 13 14  1  0
 13 38  1  6
 14 15  1  0
 14 39  1  0
 14 40  1  0
 15 16  1  0
 15 41  1  0
 15 42  1  0
 16 17  1  0
 16 43  1  0
 16 44  1  0
 17 18  1  0
 17 45  1  0
 17 46  1  0
 18 19  1  0
 18 20  1  0
 18 47  1  1
 19 48  1  0
 19 49  1  0
 20 50  1  0
 20 51  1  0
M  CHG  1  10   1
M  END
>  <i_m_ct_stereo_status>  (348) 
1

>  <s_m_source_file>  (348) 
/var/tmp/pbs.5076255.sched01/tmpnhftudgm/135squ2m_dv.sdf

>  <i_m_source_file_index>  (348) 
10

>  <i_lp_mmshare_version>  (348) 
48012

>  <i_f3d_flags>  (348) 
0

>  <s_epik_input>  (348) 
W0NIMl09W0NIXVtDQEhdKFtDSDJdW0NAQEhdMTIpW0NASF0oW0NIMl1bQ0gyXVtDSDJdMSlOMltDQEhdKFtDSDJdW0NAQEhdMzQpW0NIMl1bQ0BASF0oW0NIMl00KVtDSDJdW0NIMl1bQ0gyXVtDSDJdMw==

>  <s_epik_cmdline>  (348) 
J2VwaWtfcHl0aG9uJywgJy1waHQnLCAnMi4wJywgJy1waCcsICc3LjAnLCAnLXRuJywgJzgnLCAnLW1hJywgJzIwMCcsICctaW1hZScsICc8aW5maWxlLm1hZT4nLCAnLW9tYWUnLCAnPG91dGZpbGUubWFlPic=

>  <r_lp_tautomer_probability>  (348) 
1

>  <r_epik_Ionization_Penalty>  (348) 
0.000148517

>  <r_epik_Ionization_Penalty_Charging>  (348) 
0.000148517

>  <r_epik_Ionization_Penalty_Neutral>  (348) 
0

>  <r_epik_State_Penalty>  (348) 
-0

>  <r_epik_Charging_Adjusted_Penalty>  (348) 
0.000148517

>  <i_epik_Tot_Q>  (348) 
1

>  <i_epik_Tot_abs_Q>  (348) 
1

>  <s_lp_Force_Field>  (348) 
OPLS3e

>  <r_lp_Energy>  (348) 
52.2289

>  <b_lp_Chiralities_Consistent>  (348) 
1

>  <s_lp_Variant>  (348) 
95:0-1

>  <s_i_glide_gridfile>  (348) 
pfpi4k_grid

>  <i_i_glide_lignum>  (348) 
10

>  <i_i_glide_rotatable_bonds>  (348) 
2

>  <r_i_docking_score>  (348) 
-2.25521

>  <r_i_glide_ligand_efficiency>  (348) 
-0.11276

>  <r_i_glide_ligand_efficiency_sa>  (348) 
-0.306078

>  <r_i_glide_ligand_efficiency_ln>  (348) 
-0.564403

>  <r_i_glide_gscore>  (348) 
-2.25521

>  <r_i_glide_lipo>  (348) 
-0.477612

>  <r_i_glide_hbond>  (348) 
0

>  <r_i_glide_metal>  (348) 
-0

>  <r_i_glide_rewards>  (348) 
-1.53774

>  <r_i_glide_evdw>  (348) 
-8.6647

>  <r_i_glide_ecoul>  (348) 
-1.88916

>  <r_i_glide_erotb>  (348) 
0.476761

>  <r_i_glide_esite>  (348) 
0

>  <r_i_glide_emodel>  (348) 
-11.2665

>  <r_i_glide_energy>  (348) 
-10.5539

>  <r_i_glide_einternal>  (348) 
2.78392

>  <r_i_glide_intrahb_reward>  (348) 
-0

>  <i_i_glide_confnum>  (348) 
1

>  <i_i_glide_posenum>  (348) 
29

>  <r_i_glide_eff_state_penalty>  (348) 
0

>  <ligand_id>  (348) 
95

>  <original_smiles>  (348) 
C=CC1CC2CCCC1N2C1CC2CCCCC(C2)C1

>  <smiles>  (348) 
[H]C([H])=C([H])C1([H])C([H])([H])C2([H])C([H])([H])C([H])([H])C([H])([H])C1([H])[N+]2([H])C1([H])C([H])([H])C2([H])C([H])([H])C([H])([H])C([H])([H])C([H])([H])C([H])(C2([H])[H])C1([H])[H]

$$$$
95:1:0
     RDKit          3D

 52 55  0  0  1  0  0  0  0  0999 V2000
    1.7864   -4.3611   -0.6353 C   0  0  0  0  0  0  0  0  0  0  0  0
    1.8210   -5.5396    0.0906 C   0  0  0  0  0  0  0  0  0  0  0  0
    2.5383   -5.7115    1.4365 C   0  0  2  0  0  0  0  0  0  0  0  0
    2.1838   -4.6504    2.4989 C   0  0  0  0  0  0  0  0  0  0  0  0
    3.5260   -3.9826    2.8828 C   0  0  1  0  0  0  0  0  0  0  0  0
    4.1965   -4.7013    4.0839 C   0  0  0  0  0  0  0  0  0  0  0  0
    4.3953   -6.2049    3.7945 C   0  0  0  0  0  0  0  0  0  0  0  0
    4.8534   -6.4650    2.3453 C   0  0  0  0  0  0  0  0  0  0  0  0
    4.0860   -5.5938    1.3205 C   0  0  2  0  0  0  0  0  0  0  0  0
    4.3066   -4.1656    1.6344 N   0  0  2  0  0  0  0  0  0  0  0  0
    5.6964   -3.5959    1.5742 C   0  0  1  0  0  0  0  0  0  0  0  0
    6.5566   -4.1304    0.3715 C   0  0  0  0  0  0  0  0  0  0  0  0
    6.2839   -3.4146   -0.9729 C   0  0  1  0  0  0  0  0  0  0  0  0
    4.9374   -3.8004   -1.6442 C   0  0  0  0  0  0  0  0  0  0  0  0
    4.2415   -2.7111   -2.4891 C   0  0  0  0  0  0  0  0  0  0  0  0
    3.7366   -1.4566   -1.7241 C   0  0  0  0  0  0  0  0  0  0  0  0
    3.9583   -1.3967   -0.1751 C   0  0  0  0  0  0  0  0  0  0  0  0
    5.4540   -1.3195    0.2740 C   0  0  2  0  0  0  0  0  0  0  0  0
    6.4471   -1.9056   -0.7491 C   0  0  0  0  0  0  0  0  0  0  0  0
    5.6948   -2.0207    1.6314 C   0  0  0  0  0  0  0  0  0  0  0  0
    2.1757   -3.4321   -0.2764 H   0  0  0  0  0  0  0  0  0  0  0  0
    1.2550   -4.3608   -1.6112 H   0  0  0  0  0  0  0  0  0  0  0  0
    1.3644   -6.4258   -0.3060 H   0  0  0  0  0  0  0  0  0  0  0  0
    2.2875   -6.7175    1.7851 H   0  0  0  0  0  0  0  0  0  0  0  0
    1.5220   -3.8798    2.1133 H   0  0  0  0  0  0  0  0  0  0  0  0
    1.6813   -5.0761    3.3794 H   0  0  0  0  0  0  0  0  0  0  0  0
    3.3533   -2.9257    3.1286 H   0  0  0  0  0  0  0  0  0  0  0  0
    5.1485   -4.2357    4.3391 H   0  0  0  0  0  0  0  0  0  0  0  0
    3.5747   -4.5859    4.9803 H   0  0  0  0  0  0  0  0  0  0  0  0
    5.1045   -6.6407    4.4973 H   0  0  0  0  0  0  0  0  0  0  0  0
    3.4541   -6.7318    3.9494 H   0  0  0  0  0  0  0  0  0  0  0  0
    5.9261   -6.2831    2.2718 H   0  0  0  0  0  0  0  0  0  0  0  0
    4.7260   -7.5202    2.0930 H   0  0  0  0  0  0  0  0  0  0  0  0
    4.3963   -5.8979    0.3220 H   0  0  0  0  0  0  0  0  0  0  0  0
    6.2630   -3.9166    2.4492 H   0  0  0  0  0  0  0  0  0  0  0  0
    7.6185   -3.9763    0.6267 H   0  0  0  0  0  0  0  0  0  0  0  0
    6.4674   -5.2082    0.2507 H   0  0  0  0  0  0  0  0  0  0  0  0
    7.0668   -3.7209   -1.6646 H   0  0  0  0  0  0  0  0  0  0  0  0
    5.1005   -4.6745   -2.2841 H   0  0  0  0  0  0  0  0  0  0  0  0
    4.1989   -4.1166   -0.8918 H   0  0  0  0  0  0  0  0  0  0  0  0
    4.8831   -2.4045   -3.3165 H   0  0  0  0  0  0  0  0  0  0  0  0
    3.3809   -3.1730   -2.9698 H   0  0  0  0  0  0  0  0  0  0  0  0
    4.1465   -0.5717   -2.2078 H   0  0  0  0  0  0  0  0  0  0  0  0
    2.6670   -1.3742   -1.9035 H   0  0  0  0  0  0  0  0  0  0  0  0
    3.4860   -0.4589    0.1740 H   0  0  0  0  0  0  0  0  0  0  0  0
    3.4285   -2.2123    0.3148 H   0  0  0  0  0  0  0  0  0  0  0  0
    5.7052   -0.2621    0.3910 H   0  0  0  0  0  0  0  0  0  0  0  0
    7.4540   -1.7441   -0.3734 H   0  0  0  0  0  0  0  0  0  0  0  0
    6.3686   -1.4052   -1.7124 H   0  0  0  0  0  0  0  0  0  0  0  0
    4.9890   -1.6522    2.3686 H   0  0  0  0  0  0  0  0  0  0  0  0
    6.6613   -1.6804    2.0111 H   0  0  0  0  0  0  0  0  0  0  0  0
    3.7788   -3.6770    0.9282 H   0  0  0  0  0  0  0  0  0  0  0  0
  1  2  2  0
  1 21  1  0
  1 22  1  0
  2  3  1  0
  2 23  1  0
  3  9  1  0
  3  4  1  0
  3 24  1  1
  4  5  1  0
  4 25  1  0
  4 26  1  0
  5 10  1  0
  5  6  1  0
  5 27  1  1
  6  7  1  0
  6 28  1  0
  6 29  1  0
  7  8  1  0
  7 30  1  0
  7 31  1  0
  8  9  1  0
  8 32  1  0
  8 33  1  0
  9 10  1  0
  9 34  1  6
 10 11  1  0
 10 52  1  6
 11 20  1  0
 11 12  1  0
 11 35  1  1
 12 13  1  0
 12 36  1  0
 12 37  1  0
 13 19  1  0
 13 14  1  0
 13 38  1  6
 14 15  1  0
 14 39  1  0
 14 40  1  0
 15 16  1  0
 15 41  1  0
 15 42  1  0
 16 17  1  0
 16 43  1  0
 16 44  1  0
 17 18  1  0
 17 45  1  0
 17 46  1  0
 18 19  1  0
 18 20  1  0
 18 47  1  1
 19 48  1  0
 19 49  1  0
 20 50  1  0
 20 51  1  0
M  CHG  1  10   1
M  END
>  <i_m_ct_stereo_status>  (349) 
1

>  <s_m_source_file>  (349) 
/var/tmp/pbs.5076255.sched01/tmpnhftudgm/135squ2m_dv.sdf

>  <i_m_source_file_index>  (349) 
11

>  <i_lp_mmshare_version>  (349) 
48012

>  <i_f3d_flags>  (349) 
0

>  <s_epik_input>  (349) 
W0NIMl09W0NIXVtDQEhdKFtDSDJdW0NAQEhdMTIpW0NASF0oW0NIMl1bQ0gyXVtDSDJdMSlOMltDQEhdKFtDSDJdW0NAQEhdMzQpW0NIMl1bQ0BASF0oW0NIMl00KVtDSDJdW0NIMl1bQ0gyXVtDSDJdMw==

>  <s_epik_cmdline>  (349) 
J2VwaWtfcHl0aG9uJywgJy1waHQnLCAnMi4wJywgJy1waCcsICc3LjAnLCAnLXRuJywgJzgnLCAnLW1hJywgJzIwMCcsICctaW1hZScsICc8aW5maWxlLm1hZT4nLCAnLW9tYWUnLCAnPG91dGZpbGUubWFlPic=

>  <r_lp_tautomer_probability>  (349) 
1

>  <r_epik_Ionization_Penalty>  (349) 
0.000148517

>  <r_epik_Ionization_Penalty_Charging>  (349) 
0.000148517

>  <r_epik_Ionization_Penalty_Neutral>  (349) 
0

>  <r_epik_State_Penalty>  (349) 
-0

>  <r_epik_Charging_Adjusted_Penalty>  (349) 
0.000148517

>  <i_epik_Tot_Q>  (349) 
1

>  <i_epik_Tot_abs_Q>  (349) 
1

>  <s_lp_Force_Field>  (349) 
OPLS3e

>  <r_lp_Energy>  (349) 
55.3379

>  <b_lp_Chiralities_Consistent>  (349) 
1

>  <s_lp_Variant>  (349) 
95:0-2

>  <s_i_glide_gridfile>  (349) 
pfpi4k_grid

>  <i_i_glide_lignum>  (349) 
11

>  <i_i_glide_rotatable_bonds>  (349) 
2

>  <r_i_docking_score>  (349) 
-2.97942

>  <r_i_glide_ligand_efficiency>  (349) 
-0.148971

>  <r_i_glide_ligand_efficiency_sa>  (349) 
-0.404369

>  <r_i_glide_ligand_efficiency_ln>  (349) 
-0.74565

>  <r_i_glide_gscore>  (349) 
-2.97942

>  <r_i_glide_lipo>  (349) 
-0.525325

>  <r_i_glide_hbond>  (349) 
0

>  <r_i_glide_metal>  (349) 
-0

>  <r_i_glide_rewards>  (349) 
-1.53774

>  <r_i_glide_evdw>  (349) 
-21.7207

>  <r_i_glide_ecoul>  (349) 
-2.04715

>  <r_i_glide_erotb>  (349) 
0.476761

>  <r_i_glide_esite>  (349) 
0

>  <r_i_glide_emodel>  (349) 
-24.4328

>  <r_i_glide_energy>  (349) 
-23.7679

>  <r_i_glide_einternal>  (349) 
4.25429

>  <r_i_glide_intrahb_reward>  (349) 
-0

>  <i_i_glide_confnum>  (349) 
3

>  <i_i_glide_posenum>  (349) 
34

>  <r_i_glide_eff_state_penalty>  (349) 
0

>  <ligand_id>  (349) 
95

>  <original_smiles>  (349) 
C=CC1CC2CCCC1N2C1CC2CCCCC(C2)C1

>  <smiles>  (349) 
[H]C([H])=C([H])C1([H])C([H])([H])C2([H])C([H])([H])C([H])([H])C([H])([H])C1([H])[N+]2([H])C1([H])C([H])([H])C2([H])C([H])([H])C([H])([H])C([H])([H])C([H])([H])C([H])(C2([H])[H])C1([H])[H]

$$$$
95:1:1
     RDKit          3D

 52 55  0  0  1  0  0  0  0  0999 V2000
    1.8444   -4.7884   -0.2576 C   0  0  0  0  0  0  0  0  0  0  0  0
    2.0770   -5.6506    0.7454 C   0  0  0  0  0  0  0  0  0  0  0  0
    2.7266   -5.3443    2.0947 C   0  0  2  0  0  0  0  0  0  0  0  0
    2.3435   -3.9462    2.6696 C   0  0  0  0  0  0  0  0  0  0  0  0
    3.6709   -3.1966    2.7932 C   0  0  1  0  0  0  0  0  0  0  0  0
    4.3178   -3.3953    4.1890 C   0  0  0  0  0  0  0  0  0  0  0  0
    4.4829   -4.8925    4.5273 C   0  0  0  0  0  0  0  0  0  0  0  0
    4.9718   -5.7129    3.3120 C   0  0  0  0  0  0  0  0  0  0  0  0
    4.2667   -5.2754    1.9947 C   0  0  2  0  0  0  0  0  0  0  0  0
    4.5102   -3.8364    1.7506 N   0  0  2  0  0  0  0  0  0  0  0  0
    5.8931   -3.3497    1.5322 C   0  0  1  0  0  0  0  0  0  0  0  0
    6.6011   -4.0450    0.3201 C   0  0  0  0  0  0  0  0  0  0  0  0
    6.2683   -3.4415   -1.0646 C   0  0  1  0  0  0  0  0  0  0  0  0
    4.8725   -3.8334   -1.5861 C   0  0  0  0  0  0  0  0  0  0  0  0
    4.1413   -2.7989   -2.4770 C   0  0  0  0  0  0  0  0  0  0  0  0
    3.7477   -1.4537   -1.8091 C   0  0  0  0  0  0  0  0  0  0  0  0
    4.0906   -1.2922   -0.3102 C   0  0  0  0  0  0  0  0  0  0  0  0
    5.6010   -1.2419    0.0299 C   0  0  2  0  0  0  0  0  0  0  0  0
    6.4999   -1.9376   -0.9984 C   0  0  0  0  0  0  0  0  0  0  0  0
    5.9728   -1.7912    1.4229 C   0  0  0  0  0  0  0  0  0  0  0  0
    2.1276   -3.7457   -0.1873 H   0  0  0  0  0  0  0  0  0  0  0  0
    1.3892   -5.0949   -1.1829 H   0  0  0  0  0  0  0  0  0  0  0  0
    1.7910   -6.6837    0.6017 H   0  0  0  0  0  0  0  0  0  0  0  0
    2.4190   -6.1293    2.7871 H   0  0  0  0  0  0  0  0  0  0  0  0
    1.7045   -3.3834    1.9910 H   0  0  0  0  0  0  0  0  0  0  0  0
    1.8041   -4.0077    3.6165 H   0  0  0  0  0  0  0  0  0  0  0  0
    3.5040   -2.1349    2.6080 H   0  0  0  0  0  0  0  0  0  0  0  0
    5.2827   -2.8922    4.2337 H   0  0  0  0  0  0  0  0  0  0  0  0
    3.7028   -2.9141    4.9544 H   0  0  0  0  0  0  0  0  0  0  0  0
    5.1552   -5.0213    5.3758 H   0  0  0  0  0  0  0  0  0  0  0  0
    3.5202   -5.2895    4.8482 H   0  0  0  0  0  0  0  0  0  0  0  0
    6.0520   -5.6192    3.2143 H   0  0  0  0  0  0  0  0  0  0  0  0
    4.7949   -6.7766    3.4975 H   0  0  0  0  0  0  0  0  0  0  0  0
    4.6158   -5.9055    1.1771 H   0  0  0  0  0  0  0  0  0  0  0  0
    6.4747   -3.6140    2.4268 H   0  0  0  0  0  0  0  0  0  0  0  0
    7.6778   -3.9588    0.4637 H   0  0  0  0  0  0  0  0  0  0  0  0
    6.4199   -5.1224    0.3066 H   0  0  0  0  0  0  0  0  0  0  0  0
    6.9951   -3.8078   -1.7989 H   0  0  0  0  0  0  0  0  0  0  0  0
    4.9825   -4.7605   -2.1572 H   0  0  0  0  0  0  0  0  0  0  0  0
    4.2270   -4.0965   -0.7628 H   0  0  0  0  0  0  0  0  0  0  0  0
    4.7313   -2.5947   -3.3742 H   0  0  0  0  0  0  0  0  0  0  0  0
    3.2283   -3.2651   -2.8570 H   0  0  0  0  0  0  0  0  0  0  0  0
    4.1750   -0.6244   -2.3723 H   0  0  0  0  0  0  0  0  0  0  0  0
    2.6680   -1.3284   -1.9247 H   0  0  0  0  0  0  0  0  0  0  0  0
    3.6314   -0.3700    0.0521 H   0  0  0  0  0  0  0  0  0  0  0  0
    3.5605   -2.0673    0.2285 H   0  0  0  0  0  0  0  0  0  0  0  0
    5.8758   -0.1808    0.0223 H   0  0  0  0  0  0  0  0  0  0  0  0
    7.5424   -1.7855   -0.7200 H   0  0  0  0  0  0  0  0  0  0  0  0
    6.3866   -1.4803   -1.9792 H   0  0  0  0  0  0  0  0  0  0  0  0
    5.4057   -1.2822    2.2074 H   0  0  0  0  0  0  0  0  0  0  0  0
    7.0103   -1.4979    1.6112 H   0  0  0  0  0  0  0  0  0  0  0  0
    4.0193   -3.6462    0.8814 H   0  0  0  0  0  0  0  0  0  0  0  0
  1  2  2  0
  1 21  1  0
  1 22  1  0
  2  3  1  0
  2 23  1  0
  3  9  1  0
  3  4  1  0
  3 24  1  1
  4  5  1  0
  4 25  1  0
  4 26  1  0
  5 10  1  0
  5  6  1  0
  5 27  1  6
  6  7  1  0
  6 28  1  0
  6 29  1  0
  7  8  1  0
  7 30  1  0
  7 31  1  0
  8  9  1  0
  8 32  1  0
  8 33  1  0
  9 10  1  0
  9 34  1  6
 10 11  1  0
 10 52  1  6
 11 20  1  0
 11 12  1  0
 11 35  1  1
 12 13  1  0
 12 36  1  0
 12 37  1  0
 13 19  1  0
 13 14  1  0
 13 38  1  6
 14 15  1  0
 14 39  1  0
 14 40  1  0
 15 16  1  0
 15 41  1  0
 15 42  1  0
 16 17  1  0
 16 43  1  0
 16 44  1  0
 17 18  1  0
 17 45  1  0
 17 46  1  0
 18 19  1  0
 18 20  1  0
 18 47  1  1
 19 48  1  0
 19 49  1  0
 20 50  1  0
 20 51  1  0
M  CHG  1  10   1
M  END
>  <i_m_ct_stereo_status>  (350) 
1

>  <s_m_source_file>  (350) 
/var/tmp/pbs.5076255.sched01/tmpnhftudgm/135squ2m_dv.sdf

>  <i_m_source_file_index>  (350) 
11

>  <i_lp_mmshare_version>  (350) 
48012

>  <i_f3d_flags>  (350) 
0

>  <s_epik_input>  (350) 
W0NIMl09W0NIXVtDQEhdKFtDSDJdW0NAQEhdMTIpW0NASF0oW0NIMl1bQ0gyXVtDSDJdMSlOMltDQEhdKFtDSDJdW0NAQEhdMzQpW0NIMl1bQ0BASF0oW0NIMl00KVtDSDJdW0NIMl1bQ0gyXVtDSDJdMw==

>  <s_epik_cmdline>  (350) 
J2VwaWtfcHl0aG9uJywgJy1waHQnLCAnMi4wJywgJy1waCcsICc3LjAnLCAnLXRuJywgJzgnLCAnLW1hJywgJzIwMCcsICctaW1hZScsICc8aW5maWxlLm1hZT4nLCAnLW9tYWUnLCAnPG91dGZpbGUubWFlPic=

>  <r_lp_tautomer_probability>  (350) 
1

>  <r_epik_Ionization_Penalty>  (350) 
0.000148517

>  <r_epik_Ionization_Penalty_Charging>  (350) 
0.000148517

>  <r_epik_Ionization_Penalty_Neutral>  (350) 
0

>  <r_epik_State_Penalty>  (350) 
-0

>  <r_epik_Charging_Adjusted_Penalty>  (350) 
0.000148517

>  <i_epik_Tot_Q>  (350) 
1

>  <i_epik_Tot_abs_Q>  (350) 
1

>  <s_lp_Force_Field>  (350) 
OPLS3e

>  <r_lp_Energy>  (350) 
55.3379

>  <b_lp_Chiralities_Consistent>  (350) 
1

>  <s_lp_Variant>  (350) 
95:0-2

>  <s_i_glide_gridfile>  (350) 
pfpi4k_grid

>  <i_i_glide_lignum>  (350) 
11

>  <i_i_glide_rotatable_bonds>  (350) 
2

>  <r_i_docking_score>  (350) 
-2.90823

>  <r_i_glide_ligand_efficiency>  (350) 
-0.145411

>  <r_i_glide_ligand_efficiency_sa>  (350) 
-0.394707

>  <r_i_glide_ligand_efficiency_ln>  (350) 
-0.727833

>  <r_i_glide_gscore>  (350) 
-2.90823

>  <r_i_glide_lipo>  (350) 
-0.484159

>  <r_i_glide_hbond>  (350) 
0

>  <r_i_glide_metal>  (350) 
-0

>  <r_i_glide_rewards>  (350) 
-1.53774

>  <r_i_glide_evdw>  (350) 
-20.1582

>  <r_i_glide_ecoul>  (350) 
-2.36782

>  <r_i_glide_erotb>  (350) 
0.476761

>  <r_i_glide_esite>  (350) 
0

>  <r_i_glide_emodel>  (350) 
-24.614

>  <r_i_glide_energy>  (350) 
-22.526

>  <r_i_glide_einternal>  (350) 
3.27594

>  <r_i_glide_intrahb_reward>  (350) 
-0

>  <i_i_glide_confnum>  (350) 
3

>  <i_i_glide_posenum>  (350) 
16

>  <r_i_glide_eff_state_penalty>  (350) 
0

>  <ligand_id>  (350) 
95

>  <original_smiles>  (350) 
C=CC1CC2CCCC1N2C1CC2CCCCC(C2)C1

>  <smiles>  (350) 
[H]C([H])=C([H])C1([H])C([H])([H])C2([H])C([H])([H])C([H])([H])C([H])([H])C1([H])[N+]2([H])C1([H])C([H])([H])C2([H])C([H])([H])C([H])([H])C([H])([H])C([H])([H])C([H])(C2([H])[H])C1([H])[H]

$$$$
95:1:2
     RDKit          3D

 52 55  0  0  1  0  0  0  0  0999 V2000
    0.6448    0.7029    1.8222 C   0  0  0  0  0  0  0  0  0  0  0  0
    1.7675   -0.0283    1.8344 C   0  0  0  0  0  0  0  0  0  0  0  0
    2.4186   -0.5637    3.1002 C   0  0  2  0  0  0  0  0  0  0  0  0
    3.8405   -0.0093    3.2724 C   0  0  0  0  0  0  0  0  0  0  0  0
    4.7513   -1.2536    3.2730 C   0  0  1  0  0  0  0  0  0  0  0  0
    4.9605   -1.8124    4.6985 C   0  0  0  0  0  0  0  0  0  0  0  0
    3.6074   -2.1100    5.3918 C   0  0  0  0  0  0  0  0  0  0  0  0
    2.5869   -2.7581    4.4249 C   0  0  0  0  0  0  0  0  0  0  0  0
    2.6284   -2.0961    3.0223 C   0  0  2  0  0  0  0  0  0  0  0  0
    3.9833   -2.2065    2.4474 N   0  0  2  0  0  0  0  0  0  0  0  0
    4.5601   -3.5836    2.1699 C   0  0  1  0  0  0  0  0  0  0  0  0
    3.6287   -4.4569    1.2776 C   0  0  0  0  0  0  0  0  0  0  0  0
    3.7365   -4.1652   -0.2265 C   0  0  1  0  0  0  0  0  0  0  0  0
    3.0422   -2.8605   -0.6882 C   0  0  0  0  0  0  0  0  0  0  0  0
    3.6677   -2.1398   -1.9081 C   0  0  0  0  0  0  0  0  0  0  0  0
    5.0827   -1.5482   -1.7103 C   0  0  0  0  0  0  0  0  0  0  0  0
    5.7210   -1.7392   -0.3159 C   0  0  0  0  0  0  0  0  0  0  0  0
    6.0548   -3.2107    0.0656 C   0  0  2  0  0  0  0  0  0  0  0  0
    5.2072   -4.2649   -0.6486 C   0  0  0  0  0  0  0  0  0  0  0  0
    6.0025   -3.5098    1.5697 C   0  0  0  0  0  0  0  0  0  0  0  0
    0.1435    0.9717    2.7313 H   0  0  0  0  0  0  0  0  0  0  0  0
    0.2197    1.0395    0.8861 H   0  0  0  0  0  0  0  0  0  0  0  0
    2.2297   -0.2538    0.8876 H   0  0  0  0  0  0  0  0  0  0  0  0
    1.7812   -0.3036    3.9538 H   0  0  0  0  0  0  0  0  0  0  0  0
    4.1178    0.6022    2.4167 H   0  0  0  0  0  0  0  0  0  0  0  0
    3.9725    0.6093    4.1663 H   0  0  0  0  0  0  0  0  0  0  0  0
    5.7130   -0.9535    2.8419 H   0  0  0  0  0  0  0  0  0  0  0  0
    5.5647   -2.7194    4.6698 H   0  0  0  0  0  0  0  0  0  0  0  0
    5.5308   -1.1059    5.3098 H   0  0  0  0  0  0  0  0  0  0  0  0
    3.7587   -2.7393    6.2736 H   0  0  0  0  0  0  0  0  0  0  0  0
    3.1917   -1.1755    5.7618 H   0  0  0  0  0  0  0  0  0  0  0  0
    2.7745   -3.8308    4.3494 H   0  0  0  0  0  0  0  0  0  0  0  0
    1.5817   -2.6757    4.8529 H   0  0  0  0  0  0  0  0  0  0  0  0
    1.8405   -2.5230    2.3999 H   0  0  0  0  0  0  0  0  0  0  0  0
    4.6598   -4.1113    3.1033 H   0  0  0  0  0  0  0  0  0  0  0  0
    3.9067   -5.4980    1.4379 H   0  0  0  0  0  0  0  0  0  0  0  0
    2.5861   -4.4306    1.5984 H   0  0  0  0  0  0  0  0  0  0  0  0
    3.2025   -4.9759   -0.7176 H   0  0  0  0  0  0  0  0  0  0  0  0
    2.0075   -3.0833   -0.9288 H   0  0  0  0  0  0  0  0  0  0  0  0
    2.9806   -2.1370    0.1138 H   0  0  0  0  0  0  0  0  0  0  0  0
    3.6624   -2.8128   -2.7670 H   0  0  0  0  0  0  0  0  0  0  0  0
    2.9985   -1.3181   -2.1904 H   0  0  0  0  0  0  0  0  0  0  0  0
    5.7537   -1.9646   -2.4697 H   0  0  0  0  0  0  0  0  0  0  0  0
    5.0384   -0.4769   -1.9251 H   0  0  0  0  0  0  0  0  0  0  0  0
    6.6430   -1.1642   -0.2711 H   0  0  0  0  0  0  0  0  0  0  0  0
    5.0793   -1.2380    0.4041 H   0  0  0  0  0  0  0  0  0  0  0  0
    7.0862   -3.3683   -0.2510 H   0  0  0  0  0  0  0  0  0  0  0  0
    5.5702   -5.2515   -0.3706 H   0  0  0  0  0  0  0  0  0  0  0  0
    5.3229   -4.2182   -1.7300 H   0  0  0  0  0  0  0  0  0  0  0  0
    6.6425   -2.8114    2.1019 H   0  0  0  0  0  0  0  0  0  0  0  0
    6.4748   -4.4776    1.7472 H   0  0  0  0  0  0  0  0  0  0  0  0
    3.8979   -1.7400    1.5536 H   0  0  0  0  0  0  0  0  0  0  0  0
  1  2  2  0
  1 21  1  0
  1 22  1  0
  2  3  1  0
  2 23  1  0
  3  9  1  0
  3  4  1  0
  3 24  1  1
  4  5  1  0
  4 25  1  0
  4 26  1  0
  5 10  1  0
  5  6  1  0
  5 27  1  6
  6  7  1  0
  6 28  1  0
  6 29  1  0
  7  8  1  0
  7 30  1  0
  7 31  1  0
  8  9  1  0
  8 32  1  0
  8 33  1  0
  9 10  1  0
  9 34  1  6
 10 11  1  0
 10 52  1  6
 11 20  1  0
 11 12  1  0
 11 35  1  1
 12 13  1  0
 12 36  1  0
 12 37  1  0
 13 19  1  0
 13 14  1  0
 13 38  1  6
 14 15  1  0
 14 39  1  0
 14 40  1  0
 15 16  1  0
 15 41  1  0
 15 42  1  0
 16 17  1  0
 16 43  1  0
 16 44  1  0
 17 18  1  0
 17 45  1  0
 17 46  1  0
 18 19  1  0
 18 20  1  0
 18 47  1  6
 19 48  1  0
 19 49  1  0
 20 50  1  0
 20 51  1  0
M  CHG  1  10   1
M  END
>  <i_m_ct_stereo_status>  (351) 
1

>  <s_m_source_file>  (351) 
/var/tmp/pbs.5076255.sched01/tmpnhftudgm/135squ2m_dv.sdf

>  <i_m_source_file_index>  (351) 
11

>  <i_lp_mmshare_version>  (351) 
48012

>  <i_f3d_flags>  (351) 
0

>  <s_epik_input>  (351) 
W0NIMl09W0NIXVtDQEhdKFtDSDJdW0NAQEhdMTIpW0NASF0oW0NIMl1bQ0gyXVtDSDJdMSlOMltDQEhdKFtDSDJdW0NAQEhdMzQpW0NIMl1bQ0BASF0oW0NIMl00KVtDSDJdW0NIMl1bQ0gyXVtDSDJdMw==

>  <s_epik_cmdline>  (351) 
J2VwaWtfcHl0aG9uJywgJy1waHQnLCAnMi4wJywgJy1waCcsICc3LjAnLCAnLXRuJywgJzgnLCAnLW1hJywgJzIwMCcsICctaW1hZScsICc8aW5maWxlLm1hZT4nLCAnLW9tYWUnLCAnPG91dGZpbGUubWFlPic=

>  <r_lp_tautomer_probability>  (351) 
1

>  <r_epik_Ionization_Penalty>  (351) 
0.000148517

>  <r_epik_Ionization_Penalty_Charging>  (351) 
0.000148517

>  <r_epik_Ionization_Penalty_Neutral>  (351) 
0

>  <r_epik_State_Penalty>  (351) 
-0

>  <r_epik_Charging_Adjusted_Penalty>  (351) 
0.000148517

>  <i_epik_Tot_Q>  (351) 
1

>  <i_epik_Tot_abs_Q>  (351) 
1

>  <s_lp_Force_Field>  (351) 
OPLS3e

>  <r_lp_Energy>  (351) 
55.3379

>  <b_lp_Chiralities_Consistent>  (351) 
1

>  <s_lp_Variant>  (351) 
95:0-2

>  <s_i_glide_gridfile>  (351) 
pfpi4k_grid

>  <i_i_glide_lignum>  (351) 
11

>  <i_i_glide_rotatable_bonds>  (351) 
2

>  <r_i_docking_score>  (351) 
-2.81453

>  <r_i_glide_ligand_efficiency>  (351) 
-0.140726

>  <r_i_glide_ligand_efficiency_sa>  (351) 
-0.38199

>  <r_i_glide_ligand_efficiency_ln>  (351) 
-0.704383

>  <r_i_glide_gscore>  (351) 
-2.81453

>  <r_i_glide_lipo>  (351) 
-0.336546

>  <r_i_glide_hbond>  (351) 
0

>  <r_i_glide_metal>  (351) 
-0

>  <r_i_glide_rewards>  (351) 
-1.53774

>  <r_i_glide_evdw>  (351) 
-20.6744

>  <r_i_glide_ecoul>  (351) 
-2.55518

>  <r_i_glide_erotb>  (351) 
0.476761

>  <r_i_glide_esite>  (351) 
0

>  <r_i_glide_emodel>  (351) 
-27.0375

>  <r_i_glide_energy>  (351) 
-23.2296

>  <r_i_glide_einternal>  (351) 
0.0556171

>  <r_i_glide_intrahb_reward>  (351) 
-0

>  <i_i_glide_confnum>  (351) 
4

>  <i_i_glide_posenum>  (351) 
2

>  <r_i_glide_eff_state_penalty>  (351) 
0

>  <ligand_id>  (351) 
95

>  <original_smiles>  (351) 
C=CC1CC2CCCC1N2C1CC2CCCCC(C2)C1

>  <smiles>  (351) 
[H]C([H])=C([H])C1([H])C([H])([H])C2([H])C([H])([H])C([H])([H])C([H])([H])C1([H])[N+]2([H])C1([H])C([H])([H])C2([H])C([H])([H])C([H])([H])C([H])([H])C([H])([H])C([H])(C2([H])[H])C1([H])[H]

$$$$
96:0:0
     RDKit          3D

 46 51  0  0  1  0  0  0  0  0999 V2000
    5.5225   -6.5922    5.8047 C   0  0  0  0  0  0  0  0  0  0  0  0
    4.7874   -5.8949    4.9155 C   0  0  0  0  0  0  0  0  0  0  0  0
    3.4148   -6.4684    4.4452 C   0  0  0  0  0  0  0  0  0  0  0  0
    3.3044   -6.6414    3.0046 O   0  0  0  0  0  0  0  0  0  0  0  0
    2.4881   -5.8259    2.1471 C   0  0  1  0  0  0  0  0  0  0  0  0
    1.2542   -6.4723    1.8696 O   0  0  0  0  0  0  0  0  0  0  0  0
    2.1745   -4.4080    2.7636 C   0  0  1  0  0  0  0  0  0  0  0  0
    3.1103   -3.9578    3.6989 O   0  0  0  0  0  0  0  0  0  0  0  0
    4.4702   -3.9473    3.2604 C   0  0  2  0  0  0  0  0  0  0  0  0
    5.3479   -4.5500    4.3587 C   0  0  1  0  0  0  0  0  0  0  0  0
    5.4737   -3.5881    5.3781 O   0  0  0  0  0  0  0  0  0  0  0  0
    4.7258   -3.5235    1.7685 C   0  0  2  0  0  0  0  0  0  0  0  0
    5.9256   -4.1191    1.2539 O   0  0  0  0  0  0  0  0  0  0  0  0
    4.7100   -2.0838    1.2621 C   0  0  1  0  0  0  0  0  0  0  0  0
    5.8269   -1.2166    1.8421 C   0  0  0  0  0  0  0  0  0  0  0  0
    4.6805   -2.0968   -0.3204 C   0  0  0  0  0  0  0  0  0  0  0  0
    4.0638   -3.3517   -1.0745 C   0  0  2  0  0  0  0  0  0  0  0  0
    2.8262   -3.0803   -1.9223 C   0  0  0  0  0  0  0  0  0  0  0  0
    2.0503   -3.8454   -0.9231 O   0  0  0  0  0  0  0  0  0  0  0  0
    3.2201   -4.2936   -0.2678 C   0  0  1  0  0  0  0  0  0  0  0  0
    3.2587   -5.4884    0.8209 C   0  0  0  0  0  0  0  0  0  0  0  0
    4.3193   -6.5421    0.5040 C   0  0  0  0  0  0  0  0  0  0  0  0
    3.4653   -4.0421    1.1108 C   0  0  1  0  0  0  0  0  0  0  0  0
    2.2938   -3.5578    1.7147 O   0  0  0  0  0  0  0  0  0  0  0  0
    6.4853   -6.2333    6.1272 H   0  0  0  0  0  0  0  0  0  0  0  0
    5.1780   -7.5298    6.2133 H   0  0  0  0  0  0  0  0  0  0  0  0
    3.2887   -7.4567    4.8913 H   0  0  0  0  0  0  0  0  0  0  0  0
    2.5875   -5.9005    4.8767 H   0  0  0  0  0  0  0  0  0  0  0  0
    1.4498   -7.3615    1.6095 H   0  0  0  0  0  0  0  0  0  0  0  0
    1.1913   -4.3361    3.2229 H   0  0  0  0  0  0  0  0  0  0  0  0
    4.6404   -4.9253    2.8622 H   0  0  0  0  0  0  0  0  0  0  0  0
    6.3469   -4.7545    3.9758 H   0  0  0  0  0  0  0  0  0  0  0  0
    4.6033   -3.3768    5.6789 H   0  0  0  0  0  0  0  0  0  0  0  0
    5.8688   -5.0529    1.3678 H   0  0  0  0  0  0  0  0  0  0  0  0
    3.7774   -1.6243    1.6033 H   0  0  0  0  0  0  0  0  0  0  0  0
    6.8102   -1.5596    1.5224 H   0  0  0  0  0  0  0  0  0  0  0  0
    5.8026   -1.2378    2.9314 H   0  0  0  0  0  0  0  0  0  0  0  0
    5.7110   -0.1848    1.5227 H   0  0  0  0  0  0  0  0  0  0  0  0
    4.1571   -1.1902   -0.6266 H   0  0  0  0  0  0  0  0  0  0  0  0
    5.7029   -1.9513   -0.6755 H   0  0  0  0  0  0  0  0  0  0  0  0
    4.8055   -3.8819   -1.6666 H   0  0  0  0  0  0  0  0  0  0  0  0
    2.5336   -2.0362   -2.0333 H   0  0  0  0  0  0  0  0  0  0  0  0
    2.8642   -3.5859   -2.8878 H   0  0  0  0  0  0  0  0  0  0  0  0
    4.8529   -6.2651   -0.4026 H   0  0  0  0  0  0  0  0  0  0  0  0
    3.8621   -7.5208    0.3427 H   0  0  0  0  0  0  0  0  0  0  0  0
    5.0502   -6.6361    1.3079 H   0  0  0  0  0  0  0  0  0  0  0  0
  1  2  2  0
  1 25  1  0
  1 26  1  0
  2 10  1  0
  2  3  1  0
  3  4  1  0
  3 27  1  0
  3 28  1  0
  4  5  1  0
  5 21  1  0
  5  6  1  6
  5  7  1  0
  6 29  1  0
  7 24  1  0
  7  8  1  0
  7 30  1  1
  8  9  1  0
  9 10  1  0
  9 12  1  0
  9 31  1  1
 10 11  1  0
 10 32  1  6
 11 33  1  0
 12 23  1  0
 12 13  1  6
 12 14  1  0
 13 34  1  0
 14 15  1  0
 14 16  1  0
 14 35  1  1
 15 36  1  0
 15 37  1  0
 15 38  1  0
 16 17  1  0
 16 39  1  0
 16 40  1  0
 17 20  1  0
 17 18  1  0
 17 41  1  6
 18 19  1  0
 18 42  1  0
 18 43  1  0
 20 19  1  1
 20 23  1  0
 20 21  1  0
 21 22  1  0
 21 23  1  0
 22 44  1  0
 22 45  1  0
 22 46  1  0
 23 24  1  1
M  END
>  <i_m_ct_stereo_status>  (352) 
1

>  <s_m_source_file>  (352) 
/var/tmp/pbs.5076255.sched01/tmpnhftudgm/135squ2m_dv.sdf

>  <i_m_source_file_index>  (352) 
12

>  <i_lp_mmshare_version>  (352) 
48012

>  <i_f3d_flags>  (352) 
0

>  <s_epik_input>  (352) 
W09IXVtDQEhdMUMoPVtDSDJdKVtDSDJdT1tDQF0oW09IXSkoW0NAQF0yM1tDSDNdKVtDQEhdKE80KU9bQ0hdMVtDQEBdKFtPSF0pKFtDQEBdMzRbQ0BdMjU2KVtDQEBIXShbQ0gzXSlbQ0gyXVtDQEBIXTVbQ0gyXU82

>  <s_epik_cmdline>  (352) 
J2VwaWtfcHl0aG9uJywgJy1waHQnLCAnMi4wJywgJy1waCcsICc3LjAnLCAnLXRuJywgJzgnLCAnLW1hJywgJzIwMCcsICctaW1hZScsICc8aW5maWxlLm1hZT4nLCAnLW9tYWUnLCAnPG91dGZpbGUubWFlPic=

>  <r_lp_tautomer_probability>  (352) 
1

>  <r_epik_Ionization_Penalty>  (352) 
2.60827e-05

>  <r_epik_Ionization_Penalty_Charging>  (352) 
0

>  <r_epik_Ionization_Penalty_Neutral>  (352) 
2.60827e-05

>  <r_epik_State_Penalty>  (352) 
-0

>  <r_epik_Charging_Adjusted_Penalty>  (352) 
0

>  <i_epik_Tot_Q>  (352) 
0

>  <i_epik_Tot_abs_Q>  (352) 
0

>  <s_epik_Chemistry_Notes>  (352) 
This compound contains an acetal/aminal-like group ( X-CH(R)-Y where X, Y are N, S, or O) that may be acid/base labile, releasing an aldehyde.

>  <s_lp_Force_Field>  (352) 
OPLS3e

>  <r_lp_Energy>  (352) 
164.469

>  <b_lp_Chiralities_Consistent>  (352) 
1

>  <s_lp_Variant>  (352) 
96:0-1

>  <s_i_glide_gridfile>  (352) 
pfpi4k_grid

>  <i_i_glide_lignum>  (352) 
12

>  <i_i_glide_rotatable_bonds>  (352) 
3

>  <r_i_docking_score>  (352) 
-2.62273

>  <r_i_glide_ligand_efficiency>  (352) 
-0.10928

>  <r_i_glide_ligand_efficiency_sa>  (352) 
-0.315219

>  <r_i_glide_ligand_efficiency_ln>  (352) 
-0.627739

>  <r_i_glide_gscore>  (352) 
-2.62273

>  <r_i_glide_lipo>  (352) 
-0.355973

>  <r_i_glide_hbond>  (352) 
0

>  <r_i_glide_metal>  (352) 
-0

>  <r_i_glide_rewards>  (352) 
-1.10214

>  <r_i_glide_evdw>  (352) 
-19.8008

>  <r_i_glide_ecoul>  (352) 
-1.04537

>  <r_i_glide_erotb>  (352) 
0

>  <r_i_glide_esite>  (352) 
-0.0177664

>  <r_i_glide_emodel>  (352) 
-24.0988

>  <r_i_glide_energy>  (352) 
-20.8462

>  <r_i_glide_einternal>  (352) 
0.150053

>  <r_i_glide_intrahb_reward>  (352) 
-0

>  <i_i_glide_confnum>  (352) 
2

>  <i_i_glide_posenum>  (352) 
1

>  <r_i_glide_eff_state_penalty>  (352) 
0

>  <ligand_id>  (352) 
96

>  <original_smiles>  (352) 
C=C1COC2(O)C3OC(C1O)C1(O)C(C)CC4COC45C2(C)C15O3

>  <smiles>  (352) 
[H]OC1([H])C(=C([H])[H])C([H])([H])OC2(O[H])C3([H])OC1([H])C1(O[H])C([H])(C([H])([H])[H])C([H])([H])C4([H])C([H])([H])OC45C1(O3)C25C([H])([H])[H]

$$$$
96:1:0
     RDKit          3D

 46 51  0  0  1  0  0  0  0  0999 V2000
    3.0752   -1.8187    3.9490 C   0  0  0  0  0  0  0  0  0  0  0  0
    3.8625   -2.7085    3.3275 C   0  0  0  0  0  0  0  0  0  0  0  0
    5.3611   -2.5212    3.3440 C   0  0  0  0  0  0  0  0  0  0  0  0
    5.8210   -1.5866    2.3662 O   0  0  0  0  0  0  0  0  0  0  0  0
    6.0421   -1.8549    0.9948 C   0  0  1  0  0  0  0  0  0  0  0  0
    7.2729   -1.2614    0.6067 O   0  0  0  0  0  0  0  0  0  0  0  0
    6.0677   -3.3731    0.5750 C   0  0  1  0  0  0  0  0  0  0  0  0
    5.2500   -4.2355    1.3313 O   0  0  0  0  0  0  0  0  0  0  0  0
    3.8123   -4.2046    1.1803 C   0  0  1  0  0  0  0  0  0  0  0  0
    3.2983   -3.9419    2.6219 C   0  0  1  0  0  0  0  0  0  0  0  0
    3.5818   -5.0914    3.3855 O   0  0  0  0  0  0  0  0  0  0  0  0
    3.2615   -3.2242    0.0756 C   0  0  2  0  0  0  0  0  0  0  0  0
    2.2678   -2.4018    0.6400 O   0  0  0  0  0  0  0  0  0  0  0  0
    2.7115   -3.7660   -1.2392 C   0  0  1  0  0  0  0  0  0  0  0  0
    1.4830   -4.6489   -1.1183 C   0  0  0  0  0  0  0  0  0  0  0  0
    2.4669   -2.6937   -2.3481 C   0  0  0  0  0  0  0  0  0  0  0  0
    3.2950   -1.3764   -2.2572 C   0  0  2  0  0  0  0  0  0  0  0  0
    4.2597   -1.1363   -3.3959 C   0  0  0  0  0  0  0  0  0  0  0  0
    5.3773   -1.3575   -2.4504 O   0  0  0  0  0  0  0  0  0  0  0  0
    4.4889   -1.4123   -1.3522 C   0  0  1  0  0  0  0  0  0  0  0  0
    4.9320   -1.2456    0.1641 C   0  0  2  0  0  0  0  0  0  0  0  0
    4.1665   -0.1871    0.9080 C   0  0  0  0  0  0  0  0  0  0  0  0
    4.4540   -2.5051   -0.4259 C   0  0  1  0  0  0  0  0  0  0  0  0
    5.5377   -3.3525   -0.6751 O   0  0  0  0  0  0  0  0  0  0  0  0
    2.0014   -1.9200    3.9359 H   0  0  0  0  0  0  0  0  0  0  0  0
    3.4957   -0.9562    4.4505 H   0  0  0  0  0  0  0  0  0  0  0  0
    5.6108   -2.0943    4.3119 H   0  0  0  0  0  0  0  0  0  0  0  0
    5.8762   -3.4695    3.3593 H   0  0  0  0  0  0  0  0  0  0  0  0
    7.3747   -0.4233    1.0470 H   0  0  0  0  0  0  0  0  0  0  0  0
    7.0677   -3.7889    0.5832 H   0  0  0  0  0  0  0  0  0  0  0  0
    3.4972   -5.2112    0.9023 H   0  0  0  0  0  0  0  0  0  0  0  0
    2.2130   -3.8480    2.6163 H   0  0  0  0  0  0  0  0  0  0  0  0
    4.5207   -5.1983    3.3885 H   0  0  0  0  0  0  0  0  0  0  0  0
    1.8978   -1.8423   -0.0482 H   0  0  0  0  0  0  0  0  0  0  0  0
    3.5453   -4.3655   -1.5852 H   0  0  0  0  0  0  0  0  0  0  0  0
    0.6469   -4.0855   -0.8363 H   0  0  0  0  0  0  0  0  0  0  0  0
    1.6413   -5.4860   -0.4399 H   0  0  0  0  0  0  0  0  0  0  0  0
    1.0976   -5.0407   -2.0570 H   0  0  0  0  0  0  0  0  0  0  0  0
    2.6188   -3.1761   -3.3136 H   0  0  0  0  0  0  0  0  0  0  0  0
    1.4063   -2.4427   -2.3771 H   0  0  0  0  0  0  0  0  0  0  0  0
    2.6493   -0.4991   -2.1617 H   0  0  0  0  0  0  0  0  0  0  0  0
    4.2231   -1.8388   -4.2280 H   0  0  0  0  0  0  0  0  0  0  0  0
    4.2112   -0.1031   -3.7284 H   0  0  0  0  0  0  0  0  0  0  0  0
    3.3768    0.1435    0.2552 H   0  0  0  0  0  0  0  0  0  0  0  0
    4.8409    0.6365    1.1580 H   0  0  0  0  0  0  0  0  0  0  0  0
    3.6829   -0.5789    1.8016 H   0  0  0  0  0  0  0  0  0  0  0  0
  1  2  2  0
  1 25  1  0
  1 26  1  0
  2 10  1  0
  2  3  1  0
  3  4  1  0
  3 27  1  0
  3 28  1  0
  4  5  1  0
  5 21  1  0
  5  6  1  6
  5  7  1  0
  6 29  1  0
  7 24  1  0
  7  8  1  0
  7 30  1  6
  8  9  1  0
  9 10  1  0
  9 12  1  0
  9 31  1  6
 10 11  1  0
 10 32  1  6
 11 33  1  0
 12 23  1  0
 12 13  1  1
 12 14  1  0
 13 34  1  0
 14 15  1  0
 14 16  1  0
 14 35  1  6
 15 36  1  0
 15 37  1  0
 15 38  1  0
 16 17  1  0
 16 39  1  0
 16 40  1  0
 17 20  1  0
 17 18  1  0
 17 41  1  1
 18 19  1  0
 18 42  1  0
 18 43  1  0
 20 19  1  6
 20 23  1  0
 20 21  1  0
 21 22  1  1
 21 23  1  0
 22 44  1  0
 22 45  1  0
 22 46  1  0
 23 24  1  6
M  END
>  <i_m_ct_stereo_status>  (353) 
1

>  <s_m_source_file>  (353) 
/var/tmp/pbs.5076255.sched01/tmpnhftudgm/135squ2m_dv.sdf

>  <i_m_source_file_index>  (353) 
13

>  <i_lp_mmshare_version>  (353) 
48012

>  <i_f3d_flags>  (353) 
0

>  <s_epik_input>  (353) 
W09IXVtDQEhdMUMoPVtDSDJdKVtDSDJdT1tDQF0oW09IXSkoW0NAQF0yM1tDSDNdKVtDQEhdKE80KU9bQ0hdMVtDQEBdKFtPSF0pKFtDQEBdMzRbQ0BdMjU2KVtDQEBIXShbQ0gzXSlbQ0gyXVtDQEBIXTVbQ0gyXU82

>  <s_epik_cmdline>  (353) 
J2VwaWtfcHl0aG9uJywgJy1waHQnLCAnMi4wJywgJy1waCcsICc3LjAnLCAnLXRuJywgJzgnLCAnLW1hJywgJzIwMCcsICctaW1hZScsICc8aW5maWxlLm1hZT4nLCAnLW9tYWUnLCAnPG91dGZpbGUubWFlPic=

>  <r_lp_tautomer_probability>  (353) 
1

>  <r_epik_Ionization_Penalty>  (353) 
2.60827e-05

>  <r_epik_Ionization_Penalty_Charging>  (353) 
0

>  <r_epik_Ionization_Penalty_Neutral>  (353) 
2.60827e-05

>  <r_epik_State_Penalty>  (353) 
-0

>  <r_epik_Charging_Adjusted_Penalty>  (353) 
0

>  <i_epik_Tot_Q>  (353) 
0

>  <i_epik_Tot_abs_Q>  (353) 
0

>  <s_epik_Chemistry_Notes>  (353) 
This compound contains an acetal/aminal-like group ( X-CH(R)-Y where X, Y are N, S, or O) that may be acid/base labile, releasing an aldehyde.

>  <s_lp_Force_Field>  (353) 
OPLS3e

>  <r_lp_Energy>  (353) 
118.621

>  <b_lp_Chiralities_Consistent>  (353) 
1

>  <s_lp_Variant>  (353) 
96:0-2

>  <s_i_glide_gridfile>  (353) 
pfpi4k_grid

>  <i_i_glide_lignum>  (353) 
13

>  <i_i_glide_rotatable_bonds>  (353) 
3

>  <r_i_docking_score>  (353) 
-2.9773

>  <r_i_glide_ligand_efficiency>  (353) 
-0.124054

>  <r_i_glide_ligand_efficiency_sa>  (353) 
-0.357835

>  <r_i_glide_ligand_efficiency_ln>  (353) 
-0.712606

>  <r_i_glide_gscore>  (353) 
-2.9773

>  <r_i_glide_lipo>  (353) 
-0.321998

>  <r_i_glide_hbond>  (353) 
-0.158552

>  <r_i_glide_metal>  (353) 
-0

>  <r_i_glide_rewards>  (353) 
-1.38301

>  <r_i_glide_evdw>  (353) 
2.12907

>  <r_i_glide_ecoul>  (353) 
-8.13462

>  <r_i_glide_erotb>  (353) 
0

>  <r_i_glide_esite>  (353) 
0

>  <r_i_glide_emodel>  (353) 
-9.10448

>  <r_i_glide_energy>  (353) 
-6.00555

>  <r_i_glide_einternal>  (353) 
0.518898

>  <r_i_glide_intrahb_reward>  (353) 
-0

>  <i_i_glide_confnum>  (353) 
2

>  <i_i_glide_posenum>  (353) 
8

>  <r_i_glide_eff_state_penalty>  (353) 
0

>  <ligand_id>  (353) 
96

>  <original_smiles>  (353) 
C=C1COC2(O)C3OC(C1O)C1(O)C(C)CC4COC45C2(C)C15O3

>  <smiles>  (353) 
[H]OC1([H])C(=C([H])[H])C([H])([H])OC2(O[H])C3([H])OC1([H])C1(O[H])C([H])(C([H])([H])[H])C([H])([H])C4([H])C([H])([H])OC45C1(O3)C25C([H])([H])[H]

$$$$
96:1:1
     RDKit          3D

 46 51  0  0  1  0  0  0  0  0999 V2000
    3.0268   -6.8201    1.9587 C   0  0  0  0  0  0  0  0  0  0  0  0
    3.5084   -5.7225    2.5571 C   0  0  0  0  0  0  0  0  0  0  0  0
    2.5656   -4.7046    3.1743 C   0  0  0  0  0  0  0  0  0  0  0  0
    2.0408   -3.8214    2.1894 O   0  0  0  0  0  0  0  0  0  0  0  0
    2.6963   -2.6562    1.6534 C   0  0  1  0  0  0  0  0  0  0  0  0
    1.7862   -1.5783    1.6774 O   0  0  0  0  0  0  0  0  0  0  0  0
    3.9738   -2.1811    2.4189 C   0  0  1  0  0  0  0  0  0  0  0  0
    4.7443   -3.1718    3.0380 O   0  0  0  0  0  0  0  0  0  0  0  0
    5.5281   -4.0972    2.2493 C   0  0  1  0  0  0  0  0  0  0  0  0
    5.0099   -5.4879    2.6916 C   0  0  1  0  0  0  0  0  0  0  0  0
    5.4150   -5.7063    4.0257 O   0  0  0  0  0  0  0  0  0  0  0  0
    5.6072   -3.7946    0.7116 C   0  0  2  0  0  0  0  0  0  0  0  0
    5.2965   -4.9550   -0.0332 O   0  0  0  0  0  0  0  0  0  0  0  0
    6.8671   -3.1858    0.0789 C   0  0  1  0  0  0  0  0  0  0  0  0
    8.1283   -4.0544    0.2164 C   0  0  0  0  0  0  0  0  0  0  0  0
    6.5961   -2.8011   -1.4249 C   0  0  0  0  0  0  0  0  0  0  0  0
    5.1308   -2.3956   -1.8620 C   0  0  2  0  0  0  0  0  0  0  0  0
    4.9065   -0.9407   -2.2436 C   0  0  0  0  0  0  0  0  0  0  0  0
    4.1328   -0.8008   -1.0030 O   0  0  0  0  0  0  0  0  0  0  0  0
    4.1429   -2.1895   -0.7635 C   0  0  1  0  0  0  0  0  0  0  0  0
    3.1808   -2.9187    0.2086 C   0  0  2  0  0  0  0  0  0  0  0  0
    2.5013   -4.0978   -0.4516 C   0  0  0  0  0  0  0  0  0  0  0  0
    4.6378   -2.6851    0.4806 C   0  0  1  0  0  0  0  0  0  0  0  0
    4.7630   -1.6681    1.4363 O   0  0  0  0  0  0  0  0  0  0  0  0
    3.6870   -7.5579    1.5219 H   0  0  0  0  0  0  0  0  0  0  0  0
    1.9653   -7.0014    1.8772 H   0  0  0  0  0  0  0  0  0  0  0  0
    1.7068   -5.2583    3.5506 H   0  0  0  0  0  0  0  0  0  0  0  0
    2.9585   -4.2182    4.0629 H   0  0  0  0  0  0  0  0  0  0  0  0
    1.5216   -1.3865    0.7619 H   0  0  0  0  0  0  0  0  0  0  0  0
    3.7443   -1.4224    3.1757 H   0  0  0  0  0  0  0  0  0  0  0  0
    6.5586   -4.0352    2.5726 H   0  0  0  0  0  0  0  0  0  0  0  0
    5.5292   -6.2506    2.1155 H   0  0  0  0  0  0  0  0  0  0  0  0
    5.1732   -6.5911    4.2601 H   0  0  0  0  0  0  0  0  0  0  0  0
    5.0689   -4.7111   -0.9237 H   0  0  0  0  0  0  0  0  0  0  0  0
    7.0922   -2.2600    0.6241 H   0  0  0  0  0  0  0  0  0  0  0  0
    8.0329   -5.0032   -0.3133 H   0  0  0  0  0  0  0  0  0  0  0  0
    8.3512   -4.2869    1.2583 H   0  0  0  0  0  0  0  0  0  0  0  0
    8.9970   -3.5398   -0.1953 H   0  0  0  0  0  0  0  0  0  0  0  0
    7.2840   -1.9996   -1.6698 H   0  0  0  0  0  0  0  0  0  0  0  0
    6.9372   -3.6220   -2.0680 H   0  0  0  0  0  0  0  0  0  0  0  0
    4.7501   -3.0275   -2.6447 H   0  0  0  0  0  0  0  0  0  0  0  0
    5.7869   -0.3033   -2.3038 H   0  0  0  0  0  0  0  0  0  0  0  0
    4.2948   -0.8291   -3.1406 H   0  0  0  0  0  0  0  0  0  0  0  0
    2.8626   -4.1892   -1.4700 H   0  0  0  0  0  0  0  0  0  0  0  0
    1.4147   -3.9649   -0.5469 H   0  0  0  0  0  0  0  0  0  0  0  0
    2.6913   -5.0518    0.0478 H   0  0  0  0  0  0  0  0  0  0  0  0
  1  2  2  0
  1 25  1  0
  1 26  1  0
  2 10  1  0
  2  3  1  0
  3  4  1  0
  3 27  1  0
  3 28  1  0
  4  5  1  0
  5 21  1  0
  5  6  1  6
  5  7  1  0
  6 29  1  0
  7 24  1  0
  7  8  1  0
  7 30  1  1
  8  9  1  0
  9 10  1  0
  9 12  1  0
  9 31  1  1
 10 11  1  0
 10 32  1  6
 11 33  1  0
 12 23  1  0
 12 13  1  6
 12 14  1  0
 13 34  1  0
 14 15  1  0
 14 16  1  0
 14 35  1  1
 15 36  1  0
 15 37  1  0
 15 38  1  0
 16 17  1  0
 16 39  1  0
 16 40  1  0
 17 20  1  0
 17 18  1  0
 17 41  1  6
 18 19  1  0
 18 42  1  0
 18 43  1  0
 20 19  1  1
 20 23  1  0
 20 21  1  0
 21 22  1  6
 21 23  1  0
 22 44  1  0
 22 45  1  0
 22 46  1  0
 23 24  1  1
M  END
>  <i_m_ct_stereo_status>  (354) 
1

>  <s_m_source_file>  (354) 
/var/tmp/pbs.5076255.sched01/tmpnhftudgm/135squ2m_dv.sdf

>  <i_m_source_file_index>  (354) 
13

>  <i_lp_mmshare_version>  (354) 
48012

>  <i_f3d_flags>  (354) 
0

>  <s_epik_input>  (354) 
W09IXVtDQEhdMUMoPVtDSDJdKVtDSDJdT1tDQF0oW09IXSkoW0NAQF0yM1tDSDNdKVtDQEhdKE80KU9bQ0hdMVtDQEBdKFtPSF0pKFtDQEBdMzRbQ0BdMjU2KVtDQEBIXShbQ0gzXSlbQ0gyXVtDQEBIXTVbQ0gyXU82

>  <s_epik_cmdline>  (354) 
J2VwaWtfcHl0aG9uJywgJy1waHQnLCAnMi4wJywgJy1waCcsICc3LjAnLCAnLXRuJywgJzgnLCAnLW1hJywgJzIwMCcsICctaW1hZScsICc8aW5maWxlLm1hZT4nLCAnLW9tYWUnLCAnPG91dGZpbGUubWFlPic=

>  <r_lp_tautomer_probability>  (354) 
1

>  <r_epik_Ionization_Penalty>  (354) 
2.60827e-05

>  <r_epik_Ionization_Penalty_Charging>  (354) 
0

>  <r_epik_Ionization_Penalty_Neutral>  (354) 
2.60827e-05

>  <r_epik_State_Penalty>  (354) 
-0

>  <r_epik_Charging_Adjusted_Penalty>  (354) 
0

>  <i_epik_Tot_Q>  (354) 
0

>  <i_epik_Tot_abs_Q>  (354) 
0

>  <s_epik_Chemistry_Notes>  (354) 
This compound contains an acetal/aminal-like group ( X-CH(R)-Y where X, Y are N, S, or O) that may be acid/base labile, releasing an aldehyde.

>  <s_lp_Force_Field>  (354) 
OPLS3e

>  <r_lp_Energy>  (354) 
118.621

>  <b_lp_Chiralities_Consistent>  (354) 
1

>  <s_lp_Variant>  (354) 
96:0-2

>  <s_i_glide_gridfile>  (354) 
pfpi4k_grid

>  <i_i_glide_lignum>  (354) 
13

>  <i_i_glide_rotatable_bonds>  (354) 
3

>  <r_i_docking_score>  (354) 
-2.75767

>  <r_i_glide_ligand_efficiency>  (354) 
-0.114903

>  <r_i_glide_ligand_efficiency_sa>  (354) 
-0.331437

>  <r_i_glide_ligand_efficiency_ln>  (354) 
-0.660036

>  <r_i_glide_gscore>  (354) 
-2.75767

>  <r_i_glide_lipo>  (354) 
-0.414798

>  <r_i_glide_hbond>  (354) 
0

>  <r_i_glide_metal>  (354) 
-0

>  <r_i_glide_rewards>  (354) 
-1.10224

>  <r_i_glide_evdw>  (354) 
-19.8639

>  <r_i_glide_ecoul>  (354) 
-1.52909

>  <r_i_glide_erotb>  (354) 
0

>  <r_i_glide_esite>  (354) 
-0.0180677

>  <r_i_glide_emodel>  (354) 
-23.2654

>  <r_i_glide_energy>  (354) 
-21.393

>  <r_i_glide_einternal>  (354) 
1.86633

>  <r_i_glide_intrahb_reward>  (354) 
-0

>  <i_i_glide_confnum>  (354) 
2

>  <i_i_glide_posenum>  (354) 
37

>  <r_i_glide_eff_state_penalty>  (354) 
0

>  <ligand_id>  (354) 
96

>  <original_smiles>  (354) 
C=C1COC2(O)C3OC(C1O)C1(O)C(C)CC4COC45C2(C)C15O3

>  <smiles>  (354) 
[H]OC1([H])C(=C([H])[H])C([H])([H])OC2(O[H])C3([H])OC1([H])C1(O[H])C([H])(C([H])([H])[H])C([H])([H])C4([H])C([H])([H])OC45C1(O3)C25C([H])([H])[H]

$$$$
96:1:2
     RDKit          3D

 46 51  0  0  1  0  0  0  0  0999 V2000
    3.3501   -6.6232    2.3312 C   0  0  0  0  0  0  0  0  0  0  0  0
    3.7840   -5.4515    2.8076 C   0  0  0  0  0  0  0  0  0  0  0  0
    2.8093   -4.4386    3.3807 C   0  0  0  0  0  0  0  0  0  0  0  0
    2.1789   -3.6884    2.3413 O   0  0  0  0  0  0  0  0  0  0  0  0
    2.7080   -2.5426    1.6808 C   0  0  1  0  0  0  0  0  0  0  0  0
    1.7181   -1.5302    1.6623 O   0  0  0  0  0  0  0  0  0  0  0  0
    3.9919   -1.8970    2.3215 C   0  0  1  0  0  0  0  0  0  0  0  0
    4.8421   -2.7839    2.9783 O   0  0  0  0  0  0  0  0  0  0  0  0
    5.6226   -3.7310    2.2215 C   0  0  1  0  0  0  0  0  0  0  0  0
    5.2665   -5.1061    2.8222 C   0  0  1  0  0  0  0  0  0  0  0  0
    5.7629   -5.1731    4.1435 O   0  0  0  0  0  0  0  0  0  0  0  0
    5.6302   -3.5638    0.6657 C   0  0  2  0  0  0  0  0  0  0  0  0
    5.3753   -4.8051    0.0381 O   0  0  0  0  0  0  0  0  0  0  0  0
    6.8189   -2.9379   -0.0863 C   0  0  1  0  0  0  0  0  0  0  0  0
    8.1451   -3.7001    0.0567 C   0  0  0  0  0  0  0  0  0  0  0  0
    6.4342   -2.7284   -1.6056 C   0  0  0  0  0  0  0  0  0  0  0  0
    4.9304   -2.4426   -1.9888 C   0  0  2  0  0  0  0  0  0  0  0  0
    4.5790   -1.0469   -2.4857 C   0  0  0  0  0  0  0  0  0  0  0  0
    3.8541   -0.8578   -1.2256 O   0  0  0  0  0  0  0  0  0  0  0  0
    3.9957   -2.1963   -0.8600 C   0  0  1  0  0  0  0  0  0  0  0  0
    3.1382   -2.8949    0.2443 C   0  0  2  0  0  0  0  0  0  0  0  0
    2.5109   -4.1829   -0.2665 C   0  0  0  0  0  0  0  0  0  0  0  0
    4.5867   -2.5482    0.3959 C   0  0  1  0  0  0  0  0  0  0  0  0
    4.6918   -1.4370    1.2493 O   0  0  0  0  0  0  0  0  0  0  0  0
    4.0339   -7.3542    1.9216 H   0  0  0  0  0  0  0  0  0  0  0  0
    2.2972   -6.8733    2.3294 H   0  0  0  0  0  0  0  0  0  0  0  0
    2.0157   -5.0057    3.8605 H   0  0  0  0  0  0  0  0  0  0  0  0
    3.2153   -3.8435    4.1947 H   0  0  0  0  0  0  0  0  0  0  0  0
    1.4586   -1.3681    0.7553 H   0  0  0  0  0  0  0  0  0  0  0  0
    3.7567   -1.0951    3.0192 H   0  0  0  0  0  0  0  0  0  0  0  0
    6.6418   -3.5444    2.4716 H   0  0  0  0  0  0  0  0  0  0  0  0
    5.8129   -5.8797    2.2855 H   0  0  0  0  0  0  0  0  0  0  0  0
    5.5828   -6.0362    4.4779 H   0  0  0  0  0  0  0  0  0  0  0  0
    4.5189   -5.1021    0.2951 H   0  0  0  0  0  0  0  0  0  0  0  0
    7.0048   -1.9510    0.3521 H   0  0  0  0  0  0  0  0  0  0  0  0
    8.0842   -4.7024   -0.3591 H   0  0  0  0  0  0  0  0  0  0  0  0
    8.4419   -3.8158    1.0988 H   0  0  0  0  0  0  0  0  0  0  0  0
    8.9484   -3.1780   -0.4664 H   0  0  0  0  0  0  0  0  0  0  0  0
    7.0600   -1.9182   -1.9672 H   0  0  0  0  0  0  0  0  0  0  0  0
    6.7936   -3.5844   -2.1843 H   0  0  0  0  0  0  0  0  0  0  0  0
    4.5453   -3.1734   -2.6898 H   0  0  0  0  0  0  0  0  0  0  0  0
    5.3936   -0.3416   -2.6266 H   0  0  0  0  0  0  0  0  0  0  0  0
    3.9155   -1.0589   -3.3482 H   0  0  0  0  0  0  0  0  0  0  0  0
    2.8434   -4.3257   -1.2876 H   0  0  0  0  0  0  0  0  0  0  0  0
    1.4296   -4.1190   -0.3180 H   0  0  0  0  0  0  0  0  0  0  0  0
    2.7876   -5.0636    0.3136 H   0  0  0  0  0  0  0  0  0  0  0  0
  1  2  2  0
  1 25  1  0
  1 26  1  0
  2 10  1  0
  2  3  1  0
  3  4  1  0
  3 27  1  0
  3 28  1  0
  4  5  1  0
  5 21  1  0
  5  6  1  6
  5  7  1  0
  6 29  1  0
  7 24  1  0
  7  8  1  0
  7 30  1  1
  8  9  1  0
  9 10  1  0
  9 12  1  0
  9 31  1  1
 10 11  1  0
 10 32  1  6
 11 33  1  0
 12 23  1  0
 12 13  1  6
 12 14  1  0
 13 34  1  0
 14 15  1  0
 14 16  1  0
 14 35  1  1
 15 36  1  0
 15 37  1  0
 15 38  1  0
 16 17  1  0
 16 39  1  0
 16 40  1  0
 17 20  1  0
 17 18  1  0
 17 41  1  6
 18 19  1  0
 18 42  1  0
 18 43  1  0
 20 19  1  1
 20 23  1  0
 20 21  1  0
 21 22  1  6
 21 23  1  0
 22 44  1  0
 22 45  1  0
 22 46  1  0
 23 24  1  1
M  END
>  <i_m_ct_stereo_status>  (355) 
1

>  <s_m_source_file>  (355) 
/var/tmp/pbs.5076255.sched01/tmpnhftudgm/135squ2m_dv.sdf

>  <i_m_source_file_index>  (355) 
13

>  <i_lp_mmshare_version>  (355) 
48012

>  <i_f3d_flags>  (355) 
0

>  <s_epik_input>  (355) 
W09IXVtDQEhdMUMoPVtDSDJdKVtDSDJdT1tDQF0oW09IXSkoW0NAQF0yM1tDSDNdKVtDQEhdKE80KU9bQ0hdMVtDQEBdKFtPSF0pKFtDQEBdMzRbQ0BdMjU2KVtDQEBIXShbQ0gzXSlbQ0gyXVtDQEBIXTVbQ0gyXU82

>  <s_epik_cmdline>  (355) 
J2VwaWtfcHl0aG9uJywgJy1waHQnLCAnMi4wJywgJy1waCcsICc3LjAnLCAnLXRuJywgJzgnLCAnLW1hJywgJzIwMCcsICctaW1hZScsICc8aW5maWxlLm1hZT4nLCAnLW9tYWUnLCAnPG91dGZpbGUubWFlPic=

>  <r_lp_tautomer_probability>  (355) 
1

>  <r_epik_Ionization_Penalty>  (355) 
2.60827e-05

>  <r_epik_Ionization_Penalty_Charging>  (355) 
0

>  <r_epik_Ionization_Penalty_Neutral>  (355) 
2.60827e-05

>  <r_epik_State_Penalty>  (355) 
-0

>  <r_epik_Charging_Adjusted_Penalty>  (355) 
0

>  <i_epik_Tot_Q>  (355) 
0

>  <i_epik_Tot_abs_Q>  (355) 
0

>  <s_epik_Chemistry_Notes>  (355) 
This compound contains an acetal/aminal-like group ( X-CH(R)-Y where X, Y are N, S, or O) that may be acid/base labile, releasing an aldehyde.

>  <s_lp_Force_Field>  (355) 
OPLS3e

>  <r_lp_Energy>  (355) 
118.621

>  <b_lp_Chiralities_Consistent>  (355) 
1

>  <s_lp_Variant>  (355) 
96:0-2

>  <s_i_glide_gridfile>  (355) 
pfpi4k_grid

>  <i_i_glide_lignum>  (355) 
13

>  <i_i_glide_rotatable_bonds>  (355) 
3

>  <r_i_docking_score>  (355) 
-2.74288

>  <r_i_glide_ligand_efficiency>  (355) 
-0.114287

>  <r_i_glide_ligand_efficiency_sa>  (355) 
-0.32966

>  <r_i_glide_ligand_efficiency_ln>  (355) 
-0.656497

>  <r_i_glide_gscore>  (355) 
-2.74288

>  <r_i_glide_lipo>  (355) 
-0.394958

>  <r_i_glide_hbond>  (355) 
0

>  <r_i_glide_metal>  (355) 
-0

>  <r_i_glide_rewards>  (355) 
-1.10214

>  <r_i_glide_evdw>  (355) 
-19.5091

>  <r_i_glide_ecoul>  (355) 
-1.67307

>  <r_i_glide_erotb>  (355) 
0

>  <r_i_glide_esite>  (355) 
-0.0193673

>  <r_i_glide_emodel>  (355) 
-23.1141

>  <r_i_glide_energy>  (355) 
-21.1821

>  <r_i_glide_einternal>  (355) 
1.91279

>  <r_i_glide_intrahb_reward>  (355) 
-0

>  <i_i_glide_confnum>  (355) 
2

>  <i_i_glide_posenum>  (355) 
1

>  <r_i_glide_eff_state_penalty>  (355) 
0

>  <ligand_id>  (355) 
96

>  <original_smiles>  (355) 
C=C1COC2(O)C3OC(C1O)C1(O)C(C)CC4COC45C2(C)C15O3

>  <smiles>  (355) 
[H]OC1([H])C(=C([H])[H])C([H])([H])OC2(O[H])C3([H])OC1([H])C1(O[H])C([H])(C([H])([H])[H])C([H])([H])C4([H])C([H])([H])OC45C1(O3)C25C([H])([H])[H]

$$$$
97:0:0
     RDKit          3D

 71 77  0  0  1  0  0  0  0  0999 V2000
    3.2085   -0.8022    2.7563 C   0  0  0  0  0  0  0  0  0  0  0  0
    2.1718    0.2313    3.2352 C   0  0  2  0  0  0  0  0  0  0  0  0
    2.3941    1.5869    2.5676 C   0  0  0  0  0  0  0  0  0  0  0  0
    1.2668    2.5702    2.8988 C   0  0  0  0  0  0  0  0  0  0  0  0
    1.0638    2.8634    4.4253 C   0  0  1  0  0  0  0  0  0  0  0  0
    2.3469    3.6718    4.9495 C   0  0  0  0  0  0  0  0  0  0  0  0
    2.2605    4.3630    6.3393 C   0  0  0  0  0  0  0  0  0  0  0  0
    2.9809    4.7361    4.0114 C   0  0  0  0  0  0  0  0  0  0  0  0
   -0.1473    3.8802    4.5546 C   0  0  1  0  0  0  0  0  0  0  0  0
   -0.0673    4.9900    3.6738 O   0  0  0  0  0  0  0  0  0  0  0  0
   -1.6346    3.4587    4.5159 C   0  0  1  0  0  0  0  0  0  0  0  0
   -2.2285    3.1347    3.1198 C   0  0  0  0  0  0  0  0  0  0  0  0
   -2.0655    2.4570    5.6088 C   0  0  1  0  0  0  0  0  0  0  0  0
   -1.8069    0.9831    5.2665 C   0  0  0  0  0  0  0  0  0  0  0  0
   -0.4322    0.6709    4.6576 C   0  0  0  0  0  0  0  0  0  0  0  0
    0.8584    1.4205    5.1598 C   0  0  2  0  0  0  0  0  0  0  0  0
    0.6902    1.4820    6.6957 C   0  0  0  0  0  0  0  0  0  0  0  0
   -0.2712    2.0759    7.4531 C   0  0  0  0  0  0  0  0  0  0  0  0
   -1.5765    2.7716    7.0637 C   0  0  2  0  0  0  0  0  0  0  0  0
   -2.5733    2.2783    7.9180 O   0  0  0  0  0  0  0  0  0  0  0  0
   -3.0428    3.3281    8.7559 C   0  0  1  0  0  0  0  0  0  0  0  0
   -2.9256    2.9567   10.2533 C   0  0  0  0  0  0  0  0  0  0  0  0
   -1.5997    3.5187   10.7894 C   0  0  0  0  0  0  0  0  0  0  0  0
   -1.0699    4.3639    9.6453 C   0  0  0  0  0  0  0  0  0  0  0  0
    0.0301    4.8899    9.6413 O   0  0  0  0  0  0  0  0  0  0  0  0
   -2.0773    4.4733    8.5043 C   0  0  1  0  0  0  0  0  0  0  0  0
   -1.5029    4.1549    7.2570 O   0  0  0  0  0  0  0  0  0  0  0  0
    1.4733    0.5486    7.3292 O   0  0  0  0  0  0  0  0  0  0  0  0
    2.6705    0.9688    7.9406 C   0  0  2  0  0  0  0  0  0  0  0  0
    3.3947    1.9969    7.3076 O   0  0  0  0  0  0  0  0  0  0  0  0
    3.7213    0.6750    6.8958 C   0  0  2  0  0  0  0  0  0  0  0  0
    3.4969    0.4701    5.3949 C   0  0  0  0  0  0  0  0  0  0  0  0
    2.0563    0.4001    4.7815 C   0  0  2  0  0  0  0  0  0  0  0  0
    4.2337   -0.4757    2.9330 H   0  0  0  0  0  0  0  0  0  0  0  0
    3.1107   -0.9673    1.6826 H   0  0  0  0  0  0  0  0  0  0  0  0
    3.0633   -1.7660    3.2468 H   0  0  0  0  0  0  0  0  0  0  0  0
    1.2408   -0.1680    2.8460 H   0  0  0  0  0  0  0  0  0  0  0  0
    3.3522    2.0059    2.8689 H   0  0  0  0  0  0  0  0  0  0  0  0
    2.4393    1.4556    1.4848 H   0  0  0  0  0  0  0  0  0  0  0  0
    1.4518    3.4805    2.3385 H   0  0  0  0  0  0  0  0  0  0  0  0
    0.3583    2.1957    2.4477 H   0  0  0  0  0  0  0  0  0  0  0  0
    3.1450    2.9569    5.0372 H   0  0  0  0  0  0  0  0  0  0  0  0
    1.7306    5.3143    6.3089 H   0  0  0  0  0  0  0  0  0  0  0  0
    3.2639    4.5728    6.7140 H   0  0  0  0  0  0  0  0  0  0  0  0
    1.7715    3.7721    7.1039 H   0  0  0  0  0  0  0  0  0  0  0  0
    2.3358    5.6023    3.8598 H   0  0  0  0  0  0  0  0  0  0  0  0
    3.2747    4.3481    3.0356 H   0  0  0  0  0  0  0  0  0  0  0  0
    3.8985    5.1263    4.4561 H   0  0  0  0  0  0  0  0  0  0  0  0
   -0.0383    4.3598    5.5150 H   0  0  0  0  0  0  0  0  0  0  0  0
    0.0208    4.6813    2.7749 H   0  0  0  0  0  0  0  0  0  0  0  0
   -2.1697    4.3678    4.7929 H   0  0  0  0  0  0  0  0  0  0  0  0
   -1.8467    2.2188    2.6785 H   0  0  0  0  0  0  0  0  0  0  0  0
   -2.0361    3.9331    2.4052 H   0  0  0  0  0  0  0  0  0  0  0  0
   -3.3116    3.0214    3.1722 H   0  0  0  0  0  0  0  0  0  0  0  0
   -3.1489    2.5708    5.6535 H   0  0  0  0  0  0  0  0  0  0  0  0
   -2.0228    0.3487    6.1297 H   0  0  0  0  0  0  0  0  0  0  0  0
   -2.5483    0.6729    4.5263 H   0  0  0  0  0  0  0  0  0  0  0  0
   -0.3263   -0.3919    4.8516 H   0  0  0  0  0  0  0  0  0  0  0  0
   -0.5458    0.7059    3.5812 H   0  0  0  0  0  0  0  0  0  0  0  0
   -0.2192    1.8723    8.5144 H   0  0  0  0  0  0  0  0  0  0  0  0
   -4.0633    3.6019    8.4815 H   0  0  0  0  0  0  0  0  0  0  0  0
   -3.7479    3.4050   10.8113 H   0  0  0  0  0  0  0  0  0  0  0  0
   -2.9994    1.8820   10.4205 H   0  0  0  0  0  0  0  0  0  0  0  0
   -1.7469    4.1272   11.6855 H   0  0  0  0  0  0  0  0  0  0  0  0
   -0.8947    2.7207   11.0293 H   0  0  0  0  0  0  0  0  0  0  0  0
   -2.5430    5.4607    8.5146 H   0  0  0  0  0  0  0  0  0  0  0  0
    2.8709    0.7358    9.0093 H   0  0  0  0  0  0  0  0  0  0  0  0
    4.6992    0.3574    7.2429 H   0  0  0  0  0  0  0  0  0  0  0  0
    4.1427    1.1570    4.8556 H   0  0  0  0  0  0  0  0  0  0  0  0
    3.9641   -0.4938    5.2050 H   0  0  0  0  0  0  0  0  0  0  0  0
    1.7377   -0.5720    5.1478 H   0  0  0  0  0  0  0  0  0  0  0  0
  1  2  1  0
  1 34  1  0
  1 35  1  0
  1 36  1  0
  2 33  1  0
  2  3  1  0
  2 37  1  6
  3  4  1  0
  3 38  1  0
  3 39  1  0
  4  5  1  0
  4 40  1  0
  4 41  1  0
  5 16  1  0
  5  6  1  1
  5  9  1  0
  6  7  1  0
  6  8  1  0
  6 42  1  0
  7 43  1  0
  7 44  1  0
  7 45  1  0
  8 46  1  0
  8 47  1  0
  8 48  1  0
  9 10  1  0
  9 11  1  0
  9 49  1  1
 10 50  1  0
 11 12  1  0
 11 13  1  0
 11 51  1  1
 12 52  1  0
 12 53  1  0
 12 54  1  0
 13 19  1  0
 13 14  1  0
 13 55  1  1
 14 15  1  0
 14 56  1  0
 14 57  1  0
 16 15  1  6
 15 58  1  0
 15 59  1  0
 16 33  1  0
 16 17  1  0
 17 18  2  0
 17 28  1  0
 18 19  1  0
 18 60  1  0
 19 27  1  6
 19 20  1  0
 20 21  1  0
 21 26  1  0
 21 22  1  0
 21 61  1  6
 22 23  1  0
 22 62  1  0
 22 63  1  0
 23 24  1  0
 23 64  1  0
 23 65  1  0
 24 25  2  0
 24 26  1  0
 26 27  1  0
 26 66  1  6
 28 29  1  0
 29 31  1  0
 29 30  1  0
 29 67  1  1
 30 31  1  0
 31 32  1  0
 31 68  1  1
 32 33  1  0
 32 69  1  0
 32 70  1  0
 33 71  1  1
M  END
>  <i_m_ct_stereo_status>  (356) 
1

>  <s_m_source_file>  (356) 
/var/tmp/pbs.5076255.sched01/tmpnhftudgm/135squ2m_dv.sdf

>  <i_m_source_file_index>  (356) 
14

>  <i_lp_mmshare_version>  (356) 
48012

>  <i_f3d_flags>  (356) 
0

>  <s_epik_input>  (356) 
W0NIM11bQ0hdKFtDSDNdKVtDQF0xKFtDQF0yMzQpW0NIMl1bQ0gyXVtDQEBIXShbQ0gzXSlbQ0BIXTRbQ0gyXVtDQEBIXTVbQ0BASF0oTzUpT0MzPVtDSF1bQ0BAXTYoW0NASF0oW0NIMl1bQ0gyXTIpW0NASF0oW0NIM10pW0NAQEhdMVtPSF0pT1tDQEBIXTdbQ0BIXShPNilDKD1PKVtDSDJdW0NIMl03

>  <s_epik_cmdline>  (356) 
J2VwaWtfcHl0aG9uJywgJy1waHQnLCAnMi4wJywgJy1waCcsICc3LjAnLCAnLXRuJywgJzgnLCAnLW1hJywgJzIwMCcsICctaW1hZScsICc8aW5maWxlLm1hZT4nLCAnLW9tYWUnLCAnPG91dGZpbGUubWFlPic=

>  <r_lp_tautomer_probability>  (356) 
1

>  <r_epik_Ionization_Penalty>  (356) 
2.29107e-07

>  <r_epik_Ionization_Penalty_Charging>  (356) 
0

>  <r_epik_Ionization_Penalty_Neutral>  (356) 
2.29107e-07

>  <r_epik_State_Penalty>  (356) 
-0

>  <r_epik_Charging_Adjusted_Penalty>  (356) 
0

>  <i_epik_Tot_Q>  (356) 
0

>  <i_epik_Tot_abs_Q>  (356) 
0

>  <s_epik_Chemistry_Notes>  (356) 
This compound contains an acetal/aminal-like group ( X-CH(R)-Y where X, Y are N, S, or O) that may be acid/base labile, releasing an aldehyde.

>  <s_lp_Force_Field>  (356) 
OPLS3e

>  <r_lp_Energy>  (356) 
96.8231

>  <b_lp_Chiralities_Consistent>  (356) 
1

>  <s_lp_Variant>  (356) 
97:0-1

>  <s_i_glide_gridfile>  (356) 
pfpi4k_grid

>  <i_i_glide_lignum>  (356) 
14

>  <i_i_glide_rotatable_bonds>  (356) 
2

>  <r_i_docking_score>  (356) 
-2.43672

>  <r_i_glide_ligand_efficiency>  (356) 
-0.07384

>  <r_i_glide_ligand_efficiency_sa>  (356) 
-0.236844

>  <r_i_glide_ligand_efficiency_ln>  (356) 
-0.541914

>  <r_i_glide_gscore>  (356) 
-2.43672

>  <r_i_glide_lipo>  (356) 
-0.107163

>  <r_i_glide_hbond>  (356) 
-0.157433

>  <r_i_glide_metal>  (356) 
-0

>  <r_i_glide_rewards>  (356) 
-0.327257

>  <r_i_glide_evdw>  (356) 
-22.865

>  <r_i_glide_ecoul>  (356) 
-4.6417

>  <r_i_glide_erotb>  (356) 
0

>  <r_i_glide_esite>  (356) 
-0.00536408

>  <r_i_glide_emodel>  (356) 
-31.7802

>  <r_i_glide_energy>  (356) 
-27.5067

>  <r_i_glide_einternal>  (356) 
0.0856967

>  <r_i_glide_intrahb_reward>  (356) 
-0

>  <i_i_glide_confnum>  (356) 
2

>  <i_i_glide_posenum>  (356) 
29

>  <r_i_glide_eff_state_penalty>  (356) 
0

>  <ligand_id>  (356) 
97

>  <original_smiles>  (356) 
CC1CCC2(C(C)C)C(O)C(C)C3CCC24C(=CC32OC3CCC(=O)C3O2)OC2OC2CC14

>  <smiles>  (356) 
[H]OC1([H])C([H])(C([H])([H])[H])C2([H])C3(OC4([H])C(=O)C([H])([H])C([H])([H])C4([H])O3)C([H])=C3OC4([H])OC4([H])C([H])([H])C4([H])C([H])(C([H])([H])[H])C([H])([H])C([H])([H])C1(C([H])(C([H])([H])[H])C([H])([H])[H])C34C([H])([H])C2([H])[H]

$$$$
97:0:1
     RDKit          3D

 71 77  0  0  1  0  0  0  0  0999 V2000
    0.8741    0.6955   12.6111 C   0  0  0  0  0  0  0  0  0  0  0  0
    1.3002    1.0795   11.1803 C   0  0  2  0  0  0  0  0  0  0  0  0
    2.2383    2.2883   11.1840 C   0  0  0  0  0  0  0  0  0  0  0  0
    2.8074    2.5673    9.7863 C   0  0  0  0  0  0  0  0  0  0  0  0
    1.7318    2.8411    8.6756 C   0  0  1  0  0  0  0  0  0  0  0  0
    1.0243    4.2423    9.0096 C   0  0  0  0  0  0  0  0  0  0  0  0
    0.1532    4.9062    7.9067 C   0  0  0  0  0  0  0  0  0  0  0  0
    1.9005    5.3958    9.5724 C   0  0  0  0  0  0  0  0  0  0  0  0
    2.5083    3.0892    7.3120 C   0  0  1  0  0  0  0  0  0  0  0  0
    3.5960    3.9850    7.4549 O   0  0  0  0  0  0  0  0  0  0  0  0
    3.0505    1.9526    6.4088 C   0  0  1  0  0  0  0  0  0  0  0  0
    4.3492    1.2470    6.8834 C   0  0  0  0  0  0  0  0  0  0  0  0
    1.9841    0.9697    5.8775 C   0  0  1  0  0  0  0  0  0  0  0  0
    1.6326   -0.1778    6.8348 C   0  0  0  0  0  0  0  0  0  0  0  0
    1.4180    0.2220    8.3053 C   0  0  0  0  0  0  0  0  0  0  0  0
    0.7016    1.5737    8.6808 C   0  0  2  0  0  0  0  0  0  0  0  0
   -0.4726    1.6756    7.6799 C   0  0  0  0  0  0  0  0  0  0  0  0
   -0.4634    1.7466    6.3200 C   0  0  0  0  0  0  0  0  0  0  0  0
    0.6778    1.6262    5.3094 C   0  0  2  0  0  0  0  0  0  0  0  0
    0.2290    0.7718    4.2949 O   0  0  0  0  0  0  0  0  0  0  0  0
    0.1209    1.4942    3.0749 C   0  0  1  0  0  0  0  0  0  0  0  0
   -1.3008    1.3612    2.4792 C   0  0  0  0  0  0  0  0  0  0  0  0
   -2.1277    2.5749    2.9359 C   0  0  0  0  0  0  0  0  0  0  0  0
   -1.1183    3.4696    3.6300 C   0  0  0  0  0  0  0  0  0  0  0  0
   -1.4262    4.4798    4.2388 O   0  0  0  0  0  0  0  0  0  0  0  0
    0.3091    2.9457    3.4802 C   0  0  1  0  0  0  0  0  0  0  0  0
    0.9718    2.8601    4.7207 O   0  0  0  0  0  0  0  0  0  0  0  0
   -1.6763    1.3500    8.2574 O   0  0  0  0  0  0  0  0  0  0  0  0
   -2.5485    2.3885    8.6533 C   0  0  2  0  0  0  0  0  0  0  0  0
   -1.9696    3.5735    9.1309 O   0  0  0  0  0  0  0  0  0  0  0  0
   -2.2461    2.5859   10.1182 C   0  0  2  0  0  0  0  0  0  0  0  0
   -0.9783    2.1603   10.8595 C   0  0  0  0  0  0  0  0  0  0  0  0
    0.1315    1.2982   10.1698 C   0  0  2  0  0  0  0  0  0  0  0  0
    0.3915    1.5193   13.1381 H   0  0  0  0  0  0  0  0  0  0  0  0
    1.7422    0.4074   13.2054 H   0  0  0  0  0  0  0  0  0  0  0  0
    0.1855   -0.1518   12.6098 H   0  0  0  0  0  0  0  0  0  0  0  0
    1.8843    0.2193   10.8696 H   0  0  0  0  0  0  0  0  0  0  0  0
    1.7199    3.1685   11.5605 H   0  0  0  0  0  0  0  0  0  0  0  0
    3.0653    2.1049   11.8732 H   0  0  0  0  0  0  0  0  0  0  0  0
    3.5295    3.3783    9.8674 H   0  0  0  0  0  0  0  0  0  0  0  0
    3.4341    1.7294    9.5162 H   0  0  0  0  0  0  0  0  0  0  0  0
    0.3548    4.0577    9.8306 H   0  0  0  0  0  0  0  0  0  0  0  0
    0.7426    5.4354    7.1594 H   0  0  0  0  0  0  0  0  0  0  0  0
   -0.5197    5.6384    8.3565 H   0  0  0  0  0  0  0  0  0  0  0  0
   -0.4743    4.2155    7.3581 H   0  0  0  0  0  0  0  0  0  0  0  0
    2.6086    5.7832    8.8397 H   0  0  0  0  0  0  0  0  0  0  0  0
    2.4476    5.1323   10.4773 H   0  0  0  0  0  0  0  0  0  0  0  0
    1.2703    6.2439    9.8494 H   0  0  0  0  0  0  0  0  0  0  0  0
    1.8386    3.6454    6.6739 H   0  0  0  0  0  0  0  0  0  0  0  0
    3.8698    4.2575    6.5864 H   0  0  0  0  0  0  0  0  0  0  0  0
    3.3823    2.4664    5.5032 H   0  0  0  0  0  0  0  0  0  0  0  0
    4.2173    0.6272    7.7650 H   0  0  0  0  0  0  0  0  0  0  0  0
    5.1417    1.9587    7.1114 H   0  0  0  0  0  0  0  0  0  0  0  0
    4.7399    0.5942    6.1031 H   0  0  0  0  0  0  0  0  0  0  0  0
    2.4615    0.4932    5.0179 H   0  0  0  0  0  0  0  0  0  0  0  0
    0.7871   -0.7515    6.4435 H   0  0  0  0  0  0  0  0  0  0  0  0
    2.4592   -0.8926    6.8236 H   0  0  0  0  0  0  0  0  0  0  0  0
    0.8358   -0.6090    8.6918 H   0  0  0  0  0  0  0  0  0  0  0  0
    2.3682    0.0960    8.8093 H   0  0  0  0  0  0  0  0  0  0  0  0
   -1.4332    1.6949    5.8466 H   0  0  0  0  0  0  0  0  0  0  0  0
    0.8956    1.1708    2.3732 H   0  0  0  0  0  0  0  0  0  0  0  0
   -1.2341    1.3473    1.3896 H   0  0  0  0  0  0  0  0  0  0  0  0
   -1.7758    0.4210    2.7736 H   0  0  0  0  0  0  0  0  0  0  0  0
   -2.5889    3.1054    2.1001 H   0  0  0  0  0  0  0  0  0  0  0  0
   -2.9144    2.2852    3.6338 H   0  0  0  0  0  0  0  0  0  0  0  0
    0.8645    3.5399    2.7555 H   0  0  0  0  0  0  0  0  0  0  0  0
   -3.5931    2.4264    8.2762 H   0  0  0  0  0  0  0  0  0  0  0  0
   -3.0726    2.8523   10.7718 H   0  0  0  0  0  0  0  0  0  0  0  0
   -0.5754    3.0290   11.3703 H   0  0  0  0  0  0  0  0  0  0  0  0
   -1.3703    1.5618   11.6799 H   0  0  0  0  0  0  0  0  0  0  0  0
   -0.3760    0.3392   10.1168 H   0  0  0  0  0  0  0  0  0  0  0  0
  1  2  1  0
  1 34  1  0
  1 35  1  0
  1 36  1  0
  2 33  1  0
  2  3  1  0
  2 37  1  6
  3  4  1  0
  3 38  1  0
  3 39  1  0
  4  5  1  0
  4 40  1  0
  4 41  1  0
  5 16  1  0
  5  6  1  1
  5  9  1  0
  6  7  1  0
  6  8  1  0
  6 42  1  0
  7 43  1  0
  7 44  1  0
  7 45  1  0
  8 46  1  0
  8 47  1  0
  8 48  1  0
  9 10  1  0
  9 11  1  0
  9 49  1  6
 10 50  1  0
 11 12  1  0
 11 13  1  0
 11 51  1  6
 12 52  1  0
 12 53  1  0
 12 54  1  0
 13 19  1  0
 13 14  1  0
 13 55  1  6
 14 15  1  0
 14 56  1  0
 14 57  1  0
 16 15  1  6
 15 58  1  0
 15 59  1  0
 16 33  1  0
 16 17  1  0
 17 18  2  0
 17 28  1  0
 18 19  1  0
 18 60  1  0
 19 27  1  6
 19 20  1  0
 20 21  1  0
 21 26  1  0
 21 22  1  0
 21 61  1  6
 22 23  1  0
 22 62  1  0
 22 63  1  0
 23 24  1  0
 23 64  1  0
 23 65  1  0
 24 25  2  0
 24 26  1  0
 26 27  1  0
 26 66  1  6
 28 29  1  0
 29 31  1  0
 29 30  1  0
 29 67  1  1
 30 31  1  0
 31 32  1  0
 31 68  1  1
 32 33  1  0
 32 69  1  0
 32 70  1  0
 33 71  1  6
M  END
>  <i_m_ct_stereo_status>  (357) 
1

>  <s_m_source_file>  (357) 
/var/tmp/pbs.5076255.sched01/tmpnhftudgm/135squ2m_dv.sdf

>  <i_m_source_file_index>  (357) 
14

>  <i_lp_mmshare_version>  (357) 
48012

>  <i_f3d_flags>  (357) 
0

>  <s_epik_input>  (357) 
W0NIM11bQ0hdKFtDSDNdKVtDQF0xKFtDQF0yMzQpW0NIMl1bQ0gyXVtDQEBIXShbQ0gzXSlbQ0BIXTRbQ0gyXVtDQEBIXTVbQ0BASF0oTzUpT0MzPVtDSF1bQ0BAXTYoW0NASF0oW0NIMl1bQ0gyXTIpW0NASF0oW0NIM10pW0NAQEhdMVtPSF0pT1tDQEBIXTdbQ0BIXShPNilDKD1PKVtDSDJdW0NIMl03

>  <s_epik_cmdline>  (357) 
J2VwaWtfcHl0aG9uJywgJy1waHQnLCAnMi4wJywgJy1waCcsICc3LjAnLCAnLXRuJywgJzgnLCAnLW1hJywgJzIwMCcsICctaW1hZScsICc8aW5maWxlLm1hZT4nLCAnLW9tYWUnLCAnPG91dGZpbGUubWFlPic=

>  <r_lp_tautomer_probability>  (357) 
1

>  <r_epik_Ionization_Penalty>  (357) 
2.29107e-07

>  <r_epik_Ionization_Penalty_Charging>  (357) 
0

>  <r_epik_Ionization_Penalty_Neutral>  (357) 
2.29107e-07

>  <r_epik_State_Penalty>  (357) 
-0

>  <r_epik_Charging_Adjusted_Penalty>  (357) 
0

>  <i_epik_Tot_Q>  (357) 
0

>  <i_epik_Tot_abs_Q>  (357) 
0

>  <s_epik_Chemistry_Notes>  (357) 
This compound contains an acetal/aminal-like group ( X-CH(R)-Y where X, Y are N, S, or O) that may be acid/base labile, releasing an aldehyde.

>  <s_lp_Force_Field>  (357) 
OPLS3e

>  <r_lp_Energy>  (357) 
96.8231

>  <b_lp_Chiralities_Consistent>  (357) 
1

>  <s_lp_Variant>  (357) 
97:0-1

>  <s_i_glide_gridfile>  (357) 
pfpi4k_grid

>  <i_i_glide_lignum>  (357) 
14

>  <i_i_glide_rotatable_bonds>  (357) 
2

>  <r_i_docking_score>  (357) 
-2.14044

>  <r_i_glide_ligand_efficiency>  (357) 
-0.0648619

>  <r_i_glide_ligand_efficiency_sa>  (357) 
-0.208047

>  <r_i_glide_ligand_efficiency_ln>  (357) 
-0.476023

>  <r_i_glide_gscore>  (357) 
-2.14044

>  <r_i_glide_lipo>  (357) 
-0.000420747

>  <r_i_glide_hbond>  (357) 
-0.144043

>  <r_i_glide_metal>  (357) 
-0

>  <r_i_glide_rewards>  (357) 
-0.282361

>  <r_i_glide_evdw>  (357) 
-17.239

>  <r_i_glide_ecoul>  (357) 
-5.07813

>  <r_i_glide_erotb>  (357) 
0

>  <r_i_glide_esite>  (357) 
-0.0899474

>  <r_i_glide_emodel>  (357) 
-25.8674

>  <r_i_glide_energy>  (357) 
-22.3172

>  <r_i_glide_einternal>  (357) 
0.343435

>  <r_i_glide_intrahb_reward>  (357) 
-0

>  <i_i_glide_confnum>  (357) 
2

>  <i_i_glide_posenum>  (357) 
11

>  <r_i_glide_eff_state_penalty>  (357) 
0

>  <ligand_id>  (357) 
97

>  <original_smiles>  (357) 
CC1CCC2(C(C)C)C(O)C(C)C3CCC24C(=CC32OC3CCC(=O)C3O2)OC2OC2CC14

>  <smiles>  (357) 
[H]OC1([H])C([H])(C([H])([H])[H])C2([H])C3(OC4([H])C(=O)C([H])([H])C([H])([H])C4([H])O3)C([H])=C3OC4([H])OC4([H])C([H])([H])C4([H])C([H])(C([H])([H])[H])C([H])([H])C([H])([H])C1(C([H])(C([H])([H])[H])C([H])([H])[H])C34C([H])([H])C2([H])[H]

$$$$
97:0:2
     RDKit          3D

 71 77  0  0  1  0  0  0  0  0999 V2000
    2.7772   -2.9243    0.9997 C   0  0  0  0  0  0  0  0  0  0  0  0
    2.6010   -1.6271    1.8120 C   0  0  2  0  0  0  0  0  0  0  0  0
    3.9491   -1.1050    2.3091 C   0  0  0  0  0  0  0  0  0  0  0  0
    3.8096    0.2726    2.9660 C   0  0  0  0  0  0  0  0  0  0  0  0
    2.8297    0.3337    4.1911 C   0  0  1  0  0  0  0  0  0  0  0  0
    3.4835   -0.5146    5.3858 C   0  0  0  0  0  0  0  0  0  0  0  0
    2.8805   -0.3565    6.8099 C   0  0  0  0  0  0  0  0  0  0  0  0
    5.0212   -0.4325    5.5924 C   0  0  0  0  0  0  0  0  0  0  0  0
    2.8084    1.8308    4.7201 C   0  0  1  0  0  0  0  0  0  0  0  0
    4.0996    2.3850    4.8783 O   0  0  0  0  0  0  0  0  0  0  0  0
    1.9624    2.9616    4.0812 C   0  0  1  0  0  0  0  0  0  0  0  0
    2.4845    3.5592    2.7512 C   0  0  0  0  0  0  0  0  0  0  0  0
    0.4370    2.7122    4.0665 C   0  0  1  0  0  0  0  0  0  0  0  0
   -0.0719    1.8733    2.8871 C   0  0  0  0  0  0  0  0  0  0  0  0
    0.7606    0.6272    2.5396 C   0  0  0  0  0  0  0  0  0  0  0  0
    1.3964   -0.2588    3.6763 C   0  0  2  0  0  0  0  0  0  0  0  0
    0.2835   -0.3311    4.7592 C   0  0  0  0  0  0  0  0  0  0  0  0
   -0.2893    0.6517    5.4807 C   0  0  0  0  0  0  0  0  0  0  0  0
   -0.1725    2.1853    5.4070 C   0  0  2  0  0  0  0  0  0  0  0  0
   -1.4715    2.6959    5.4650 O   0  0  0  0  0  0  0  0  0  0  0  0
   -1.6363    3.4547    6.6532 C   0  0  1  0  0  0  0  0  0  0  0  0
   -2.8493    2.9521    7.4716 C   0  0  0  0  0  0  0  0  0  0  0  0
   -2.3198    1.9588    8.5185 C   0  0  0  0  0  0  0  0  0  0  0  0
   -0.8189    2.0592    8.4081 C   0  0  0  0  0  0  0  0  0  0  0  0
   -0.0541    1.2736    8.9728 O   0  0  0  0  0  0  0  0  0  0  0  0
   -0.3832    3.1631    7.4646 C   0  0  1  0  0  0  0  0  0  0  0  0
    0.5299    2.7071    6.4952 O   0  0  0  0  0  0  0  0  0  0  0  0
   -0.3645   -1.5416    4.7393 O   0  0  0  0  0  0  0  0  0  0  0  0
   -0.0349   -2.4997    5.7105 C   0  0  2  0  0  0  0  0  0  0  0  0
    1.3115   -2.5821    6.1347 O   0  0  0  0  0  0  0  0  0  0  0  0
    0.9722   -3.3876    5.0075 C   0  0  2  0  0  0  0  0  0  0  0  0
    1.7980   -3.0387    3.7727 C   0  0  0  0  0  0  0  0  0  0  0  0
    1.5773   -1.7023    2.9806 C   0  0  2  0  0  0  0  0  0  0  0  0
    3.2790   -3.7124    1.5669 H   0  0  0  0  0  0  0  0  0  0  0  0
    3.3840   -2.7387    0.1086 H   0  0  0  0  0  0  0  0  0  0  0  0
    1.8290   -3.3034    0.6502 H   0  0  0  0  0  0  0  0  0  0  0  0
    2.2353   -0.9311    1.0621 H   0  0  0  0  0  0  0  0  0  0  0  0
    4.3935   -1.8087    3.0103 H   0  0  0  0  0  0  0  0  0  0  0  0
    4.6410   -1.0274    1.4664 H   0  0  0  0  0  0  0  0  0  0  0  0
    4.8095    0.6117    3.2314 H   0  0  0  0  0  0  0  0  0  0  0  0
    3.5068    0.9691    2.1948 H   0  0  0  0  0  0  0  0  0  0  0  0
    3.3491   -1.5488    5.1285 H   0  0  0  0  0  0  0  0  0  0  0  0
    3.2261    0.5425    7.3224 H   0  0  0  0  0  0  0  0  0  0  0  0
    3.1730   -1.2062    7.4267 H   0  0  0  0  0  0  0  0  0  0  0  0
    1.7986   -0.3159    6.8373 H   0  0  0  0  0  0  0  0  0  0  0  0
    5.3488    0.5462    5.9450 H   0  0  0  0  0  0  0  0  0  0  0  0
    5.6015   -0.6968    4.7085 H   0  0  0  0  0  0  0  0  0  0  0  0
    5.3273   -1.1390    6.3653 H   0  0  0  0  0  0  0  0  0  0  0  0
    2.4717    1.7894    5.7438 H   0  0  0  0  0  0  0  0  0  0  0  0
    4.4492    2.5222    4.0051 H   0  0  0  0  0  0  0  0  0  0  0  0
    2.0782    3.7983    4.7719 H   0  0  0  0  0  0  0  0  0  0  0  0
    2.3995    2.8734    1.9172 H   0  0  0  0  0  0  0  0  0  0  0  0
    3.5197    3.8811    2.8215 H   0  0  0  0  0  0  0  0  0  0  0  0
    1.9185    4.4470    2.4737 H   0  0  0  0  0  0  0  0  0  0  0  0
    0.0084    3.7077    3.9165 H   0  0  0  0  0  0  0  0  0  0  0  0
   -1.1341    1.6367    3.0127 H   0  0  0  0  0  0  0  0  0  0  0  0
   -0.0548    2.5090    2.0031 H   0  0  0  0  0  0  0  0  0  0  0  0
    0.0556    0.0299    1.9725 H   0  0  0  0  0  0  0  0  0  0  0  0
    1.4721    0.9180    1.7762 H   0  0  0  0  0  0  0  0  0  0  0  0
   -1.1334    0.3540    6.0953 H   0  0  0  0  0  0  0  0  0  0  0  0
   -1.7106    4.5163    6.4140 H   0  0  0  0  0  0  0  0  0  0  0  0
   -3.3145    3.7827    8.0038 H   0  0  0  0  0  0  0  0  0  0  0  0
   -3.6230    2.5064    6.8382 H   0  0  0  0  0  0  0  0  0  0  0  0
   -2.6537    2.1988    9.5375 H   0  0  0  0  0  0  0  0  0  0  0  0
   -2.6082    0.9432    8.2672 H   0  0  0  0  0  0  0  0  0  0  0  0
   -0.0133    4.0151    8.0361 H   0  0  0  0  0  0  0  0  0  0  0  0
   -0.8144   -2.9561    6.3403 H   0  0  0  0  0  0  0  0  0  0  0  0
    0.9709   -4.4438    5.2567 H   0  0  0  0  0  0  0  0  0  0  0  0
    2.8435   -3.2107    4.0050 H   0  0  0  0  0  0  0  0  0  0  0  0
    1.5728   -3.8472    3.0831 H   0  0  0  0  0  0  0  0  0  0  0  0
    0.6230   -1.9133    2.5073 H   0  0  0  0  0  0  0  0  0  0  0  0
  1  2  1  0
  1 34  1  0
  1 35  1  0
  1 36  1  0
  2 33  1  0
  2  3  1  0
  2 37  1  6
  3  4  1  0
  3 38  1  0
  3 39  1  0
  4  5  1  0
  4 40  1  0
  4 41  1  0
  5 16  1  0
  5  6  1  1
  5  9  1  0
  6  7  1  0
  6  8  1  0
  6 42  1  0
  7 43  1  0
  7 44  1  0
  7 45  1  0
  8 46  1  0
  8 47  1  0
  8 48  1  0
  9 10  1  0
  9 11  1  0
  9 49  1  1
 10 50  1  0
 11 12  1  0
 11 13  1  0
 11 51  1  1
 12 52  1  0
 12 53  1  0
 12 54  1  0
 13 19  1  0
 13 14  1  0
 13 55  1  6
 14 15  1  0
 14 56  1  0
 14 57  1  0
 16 15  1  6
 15 58  1  0
 15 59  1  0
 16 33  1  0
 16 17  1  0
 17 18  2  0
 17 28  1  0
 18 19  1  0
 18 60  1  0
 19 27  1  1
 19 20  1  0
 20 21  1  0
 21 26  1  0
 21 22  1  0
 21 61  1  6
 22 23  1  0
 22 62  1  0
 22 63  1  0
 23 24  1  0
 23 64  1  0
 23 65  1  0
 24 25  2  0
 24 26  1  0
 26 27  1  0
 26 66  1  1
 28 29  1  0
 29 31  1  0
 29 30  1  0
 29 67  1  1
 30 31  1  0
 31 32  1  0
 31 68  1  1
 32 33  1  0
 32 69  1  0
 32 70  1  0
 33 71  1  6
M  END
>  <i_m_ct_stereo_status>  (358) 
1

>  <s_m_source_file>  (358) 
/var/tmp/pbs.5076255.sched01/tmpnhftudgm/135squ2m_dv.sdf

>  <i_m_source_file_index>  (358) 
14

>  <i_lp_mmshare_version>  (358) 
48012

>  <i_f3d_flags>  (358) 
0

>  <s_epik_input>  (358) 
W0NIM11bQ0hdKFtDSDNdKVtDQF0xKFtDQF0yMzQpW0NIMl1bQ0gyXVtDQEBIXShbQ0gzXSlbQ0BIXTRbQ0gyXVtDQEBIXTVbQ0BASF0oTzUpT0MzPVtDSF1bQ0BAXTYoW0NASF0oW0NIMl1bQ0gyXTIpW0NASF0oW0NIM10pW0NAQEhdMVtPSF0pT1tDQEBIXTdbQ0BIXShPNilDKD1PKVtDSDJdW0NIMl03

>  <s_epik_cmdline>  (358) 
J2VwaWtfcHl0aG9uJywgJy1waHQnLCAnMi4wJywgJy1waCcsICc3LjAnLCAnLXRuJywgJzgnLCAnLW1hJywgJzIwMCcsICctaW1hZScsICc8aW5maWxlLm1hZT4nLCAnLW9tYWUnLCAnPG91dGZpbGUubWFlPic=

>  <r_lp_tautomer_probability>  (358) 
1

>  <r_epik_Ionization_Penalty>  (358) 
2.29107e-07

>  <r_epik_Ionization_Penalty_Charging>  (358) 
0

>  <r_epik_Ionization_Penalty_Neutral>  (358) 
2.29107e-07

>  <r_epik_State_Penalty>  (358) 
-0

>  <r_epik_Charging_Adjusted_Penalty>  (358) 
0

>  <i_epik_Tot_Q>  (358) 
0

>  <i_epik_Tot_abs_Q>  (358) 
0

>  <s_epik_Chemistry_Notes>  (358) 
This compound contains an acetal/aminal-like group ( X-CH(R)-Y where X, Y are N, S, or O) that may be acid/base labile, releasing an aldehyde.

>  <s_lp_Force_Field>  (358) 
OPLS3e

>  <r_lp_Energy>  (358) 
96.8231

>  <b_lp_Chiralities_Consistent>  (358) 
1

>  <s_lp_Variant>  (358) 
97:0-1

>  <s_i_glide_gridfile>  (358) 
pfpi4k_grid

>  <i_i_glide_lignum>  (358) 
14

>  <i_i_glide_rotatable_bonds>  (358) 
2

>  <r_i_docking_score>  (358) 
-1.92683

>  <r_i_glide_ligand_efficiency>  (358) 
-0.0583889

>  <r_i_glide_ligand_efficiency_sa>  (358) 
-0.187284

>  <r_i_glide_ligand_efficiency_ln>  (358) 
-0.428518

>  <r_i_glide_gscore>  (358) 
-1.92683

>  <r_i_glide_lipo>  (358) 
-0.27929

>  <r_i_glide_hbond>  (358) 
-0.180434

>  <r_i_glide_metal>  (358) 
-0

>  <r_i_glide_rewards>  (358) 
-0.282361

>  <r_i_glide_evdw>  (358) 
-20.6037

>  <r_i_glide_ecoul>  (358) 
-0.786781

>  <r_i_glide_erotb>  (358) 
0

>  <r_i_glide_esite>  (358) 
-0.0365472

>  <r_i_glide_emodel>  (358) 
-24.7137

>  <r_i_glide_energy>  (358) 
-21.3905

>  <r_i_glide_einternal>  (358) 
0.0172526

>  <r_i_glide_intrahb_reward>  (358) 
-0

>  <i_i_glide_confnum>  (358) 
2

>  <i_i_glide_posenum>  (358) 
27

>  <r_i_glide_eff_state_penalty>  (358) 
0

>  <ligand_id>  (358) 
97

>  <original_smiles>  (358) 
CC1CCC2(C(C)C)C(O)C(C)C3CCC24C(=CC32OC3CCC(=O)C3O2)OC2OC2CC14

>  <smiles>  (358) 
[H]OC1([H])C([H])(C([H])([H])[H])C2([H])C3(OC4([H])C(=O)C([H])([H])C([H])([H])C4([H])O3)C([H])=C3OC4([H])OC4([H])C([H])([H])C4([H])C([H])(C([H])([H])[H])C([H])([H])C([H])([H])C1(C([H])(C([H])([H])[H])C([H])([H])[H])C34C([H])([H])C2([H])[H]

$$$$
98:1:0
     RDKit          3D

 62 66  0  0  1  0  0  0  0  0999 V2000
    1.1703   -0.8762    3.0569 C   0  0  0  0  0  0  0  0  0  0  0  0
    0.7280   -1.8487    4.1291 C   0  0  0  0  0  0  0  0  0  0  0  0
    1.6817   -2.8544    4.7511 C   0  0  2  0  0  0  0  0  0  0  0  0
    2.0313   -4.0520    3.8201 C   0  0  0  0  0  0  0  0  0  0  0  0
    1.2823   -5.2988    4.3610 C   0  0  1  0  0  0  0  0  0  0  0  0
    1.8825   -6.7255    4.0581 C   0  0  1  0  0  0  0  0  0  0  0  0
    2.1257   -6.9950    2.5556 C   0  0  1  0  0  0  0  0  0  0  0  0
    3.0986   -6.1337    1.9910 O   0  0  0  0  0  0  0  0  0  0  0  0
    2.6003   -8.4303    2.3083 C   0  0  0  0  0  0  0  0  0  0  0  0
    3.8617   -8.7807    3.1322 C   0  0  2  0  0  0  0  0  0  0  0  0
    4.3922  -10.1716    2.7253 C   0  0  0  0  0  0  0  0  0  0  0  0
    3.4636  -11.3005    3.1887 C   0  0  1  0  0  0  0  0  0  0  0  0
    4.0883  -12.5279    2.8819 O   0  0  0  0  0  0  0  0  0  0  0  0
    3.1632  -11.2132    4.6915 C   0  0  0  0  0  0  0  0  0  0  0  0
    2.7136   -9.8038    5.1542 C   0  0  1  0  0  0  0  0  0  0  0  0
    2.6397   -9.8984    6.5667 O   0  0  0  0  0  0  0  0  0  0  0  0
    3.6482   -8.6246    4.6705 C   0  0  1  0  0  0  0  0  0  0  0  0
    5.0389   -8.7363    5.3594 C   0  0  0  0  0  0  0  0  0  0  0  0
    3.0870   -7.1608    4.9476 C   0  0  2  0  0  0  0  0  0  0  0  0
    2.7619   -6.8746    6.4390 C   0  0  0  0  0  0  0  0  0  0  0  0
    2.2911   -5.4353    6.7188 C   0  0  1  0  0  0  0  0  0  0  0  0
    3.4173   -4.5871    6.5893 O   0  0  0  0  0  0  0  0  0  0  0  0
    1.0603   -4.9967    5.8613 C   0  0  2  0  0  0  0  0  0  0  0  0
   -0.1823   -5.7625    6.3868 C   0  0  0  0  0  0  0  0  0  0  0  0
    0.9192   -3.4413    5.9606 C   0  0  2  0  0  0  0  0  0  0  0  0
   -0.4631   -2.7889    5.7974 C   0  0  0  0  0  0  0  0  0  0  0  0
   -1.4258   -3.0766    6.5069 O   0  0  0  0  0  0  0  0  0  0  0  0
   -0.4438   -1.7766    4.7576 C   0  0  0  0  0  0  0  0  0  0  0  0
    2.0430   -0.3247    3.4095 H   0  0  0  0  0  0  0  0  0  0  0  0
    0.3787   -0.1526    2.8412 H   0  0  0  0  0  0  0  0  0  0  0  0
    1.4213   -1.4031    2.1349 H   0  0  0  0  0  0  0  0  0  0  0  0
    3.1044   -4.2398    3.9251 H   0  0  0  0  0  0  0  0  0  0  0  0
    1.8512   -3.8720    2.7648 H   0  0  0  0  0  0  0  0  0  0  0  0
    0.3002   -5.2714    3.8737 H   0  0  0  0  0  0  0  0  0  0  0  0
    1.0798   -7.4177    4.3333 H   0  0  0  0  0  0  0  0  0  0  0  0
    1.1951   -6.8415    2.0111 H   0  0  0  0  0  0  0  0  0  0  0  0
    3.9190   -6.3196    2.4084 H   0  0  0  0  0  0  0  0  0  0  0  0
    1.7837   -9.1072    2.5693 H   0  0  0  0  0  0  0  0  0  0  0  0
    2.7859   -8.5869    1.2458 H   0  0  0  0  0  0  0  0  0  0  0  0
    4.6439   -8.0850    2.8281 H   0  0  0  0  0  0  0  0  0  0  0  0
    4.5118  -10.2206    1.6419 H   0  0  0  0  0  0  0  0  0  0  0  0
    5.3955  -10.3326    3.1222 H   0  0  0  0  0  0  0  0  0  0  0  0
    2.5317  -11.2591    2.6265 H   0  0  0  0  0  0  0  0  0  0  0  0
    4.0972  -12.6007    1.9113 H   0  0  0  0  0  0  0  0  0  0  0  0
    2.3777  -11.9334    4.9271 H   0  0  0  0  0  0  0  0  0  0  0  0
    4.0396  -11.5313    5.2512 H   0  0  0  0  0  0  0  0  0  0  0  0
    1.7057   -9.6308    4.7848 H   0  0  0  0  0  0  0  0  0  0  0  0
    2.2061  -10.7126    6.8090 H   0  0  0  0  0  0  0  0  0  0  0  0
    4.9860   -8.6238    6.4417 H   0  0  0  0  0  0  0  0  0  0  0  0
    5.7305   -7.9743    4.9940 H   0  0  0  0  0  0  0  0  0  0  0  0
    5.5169   -9.7001    5.1953 H   0  0  0  0  0  0  0  0  0  0  0  0
    3.9057   -6.4824    4.6925 H   0  0  0  0  0  0  0  0  0  0  0  0
    1.9697   -7.5443    6.7745 H   0  0  0  0  0  0  0  0  0  0  0  0
    3.6193   -7.0748    7.0798 H   0  0  0  0  0  0  0  0  0  0  0  0
    2.0026   -5.3759    7.7699 H   0  0  0  0  0  0  0  0  0  0  0  0
    3.7153   -4.6313    5.7013 H   0  0  0  0  0  0  0  0  0  0  0  0
   -0.4169   -5.4894    7.4170 H   0  0  0  0  0  0  0  0  0  0  0  0
   -0.0615   -6.8460    6.3715 H   0  0  0  0  0  0  0  0  0  0  0  0
   -1.0737   -5.5690    5.7913 H   0  0  0  0  0  0  0  0  0  0  0  0
    1.3338   -3.0764    6.9001 H   0  0  0  0  0  0  0  0  0  0  0  0
   -1.2385   -1.0797    4.5792 H   0  0  0  0  0  0  0  0  0  0  0  0
    2.5740   -2.3345    5.0628 H   0  0  0  0  0  0  0  0  0  0  0  0
  1 29  1  0
  1 30  1  0
  1 31  1  0
  1  2  1  0
  2  3  1  0
  2 28  2  0
  3  4  1  0
  3 62  1  1
  3 25  1  0
  4  5  1  0
  4 32  1  0
  4 33  1  0
  5 23  1  0
  5  6  1  0
  5 34  1  6
  6 19  1  0
  6  7  1  0
  6 35  1  1
  7  8  1  0
  7  9  1  0
  7 36  1  6
  8 37  1  0
  9 10  1  0
  9 38  1  0
  9 39  1  0
 10 17  1  0
 10 11  1  0
 10 40  1  6
 11 12  1  0
 11 41  1  0
 11 42  1  0
 12 13  1  0
 12 14  1  0
 12 43  1  6
 13 44  1  0
 14 15  1  0
 14 45  1  0
 14 46  1  0
 15 16  1  0
 15 17  1  0
 15 47  1  6
 16 48  1  0
 17 18  1  1
 17 19  1  0
 18 49  1  0
 18 50  1  0
 18 51  1  0
 19 20  1  0
 19 52  1  6
 20 21  1  0
 20 53  1  0
 20 54  1  0
 21 22  1  0
 21 23  1  0
 21 55  1  1
 22 56  1  0
 23 24  1  1
 23 25  1  0
 24 57  1  0
 24 58  1  0
 24 59  1  0
 25 60  1  1
 25 26  1  0
 26 27  2  0
 26 28  1  0
 28 61  1  0
M  END
>  <i_m_ct_stereo_status>  (359) 
1

>  <s_m_source_file>  (359) 
/var/tmp/pbs.5076255.sched01/tmpnhftudgm/135squ2m_dv.sdf

>  <i_m_source_file_index>  (359) 
16

>  <i_lp_mmshare_version>  (359) 
48012

>  <i_f3d_flags>  (359) 
0

>  <s_epik_input>  (359) 
Tz1DMVtDSDJdQyhbQ0gzXSk9QyhbQ0gyXTIpW0NAQEhdMVtDQF0oW0NIM10pKFtDQEhdKFtPSF0pW0NIMl1bQ0BIXTM0KVtDQEBIXTJbQ0BIXTNbQ0BASF0oW09IXSlbQ0gyXVtDQEBIXShbQ0BAXTQ1W0NIM10pW0NIMl1bQ0BASF0oW09IXSlbQ0gyXVtDQEhdNVtPSF0=

>  <s_epik_cmdline>  (359) 
J2VwaWtfcHl0aG9uJywgJy1waHQnLCAnMi4wJywgJy1waCcsICc3LjAnLCAnLXRuJywgJzgnLCAnLW1hJywgJzIwMCcsICctaW1hZScsICc8aW5maWxlLm1hZT4nLCAnLW9tYWUnLCAnPG91dGZpbGUubWFlPic=

>  <r_lp_tautomer_probability>  (359) 
0.499977

>  <r_epik_Ionization_Penalty>  (359) 
2.98631e-06

>  <r_epik_Ionization_Penalty_Charging>  (359) 
0

>  <r_epik_Ionization_Penalty_Neutral>  (359) 
2.98631e-06

>  <r_epik_State_Penalty>  (359) 
0.41068

>  <r_epik_Charging_Adjusted_Penalty>  (359) 
0.41068

>  <i_epik_Tot_Q>  (359) 
0

>  <i_epik_Tot_abs_Q>  (359) 
0

>  <s_lp_Force_Field>  (359) 
OPLS3e

>  <r_lp_Energy>  (359) 
32.3191

>  <b_lp_Chiralities_Consistent>  (359) 
1

>  <s_lp_Variant>  (359) 
98:0-2

>  <s_i_glide_gridfile>  (359) 
pfpi4k_grid

>  <i_i_glide_lignum>  (359) 
16

>  <i_i_glide_rotatable_bonds>  (359) 
4

>  <r_i_docking_score>  (359) 
-3.37932

>  <r_i_glide_ligand_efficiency>  (359) 
-0.12069

>  <r_i_glide_ligand_efficiency_sa>  (359) 
-0.366486

>  <r_i_glide_ligand_efficiency_ln>  (359) 
-0.780046

>  <r_i_glide_gscore>  (359) 
-3.37932

>  <r_i_glide_lipo>  (359) 
-0.0235065

>  <r_i_glide_hbond>  (359) 
-0.302347

>  <r_i_glide_metal>  (359) 
-0

>  <r_i_glide_rewards>  (359) 
-0.746502

>  <r_i_glide_evdw>  (359) 
-19.6905

>  <r_i_glide_ecoul>  (359) 
-8.66873

>  <r_i_glide_erotb>  (359) 
0

>  <r_i_glide_esite>  (359) 
-0.0221313

>  <r_i_glide_emodel>  (359) 
-34.8979

>  <r_i_glide_energy>  (359) 
-28.3592

>  <r_i_glide_einternal>  (359) 
0.923416

>  <r_i_glide_intrahb_reward>  (359) 
-0

>  <i_i_glide_confnum>  (359) 
1

>  <i_i_glide_posenum>  (359) 
8

>  <r_i_glide_eff_state_penalty>  (359) 
0

>  <ligand_id>  (359) 
98

>  <original_smiles>  (359) 
CC1=C2CC3C4C(O)CC5CC(O)CC(O)C5(C)C4CC(O)C3(C)C2C(=O)C1

>  <smiles>  (359) 
[H]OC1([H])C([H])([H])C([H])(O[H])C2(C([H])([H])[H])C([H])(C1([H])[H])C([H])([H])C([H])(O[H])C1([H])C3([H])C([H])([H])C4([H])C(C([H])([H])[H])=C([H])C(=O)C4([H])C3(C([H])([H])[H])C([H])(O[H])C([H])([H])C12[H]

$$$$
98:1:1
     RDKit          3D

 62 66  0  0  1  0  0  0  0  0999 V2000
    1.1404   -0.8917    3.0400 C   0  0  0  0  0  0  0  0  0  0  0  0
    0.7114   -1.8725    4.1184 C   0  0  0  0  0  0  0  0  0  0  0  0
    1.6846   -2.8708    4.7492 C   0  0  2  0  0  0  0  0  0  0  0  0
    2.0117   -4.0603    3.8010 C   0  0  0  0  0  0  0  0  0  0  0  0
    1.2722   -5.3059    4.3569 C   0  0  1  0  0  0  0  0  0  0  0  0
    1.8691   -6.7334    4.0546 C   0  0  1  0  0  0  0  0  0  0  0  0
    2.0949   -7.0150    2.5510 C   0  0  1  0  0  0  0  0  0  0  0  0
    3.0669   -6.1566    1.9849 O   0  0  0  0  0  0  0  0  0  0  0  0
    2.5698   -8.4503    2.3044 C   0  0  0  0  0  0  0  0  0  0  0  0
    3.8407   -8.7914    3.1185 C   0  0  2  0  0  0  0  0  0  0  0  0
    4.3675  -10.1831    2.7141 C   0  0  0  0  0  0  0  0  0  0  0  0
    3.4493  -11.3095    3.1999 C   0  0  1  0  0  0  0  0  0  0  0  0
    4.0900  -12.5395    2.9040 O   0  0  0  0  0  0  0  0  0  0  0  0
    3.1622  -11.2130    4.7019 C   0  0  0  0  0  0  0  0  0  0  0  0
    2.7131   -9.8029    5.1563 C   0  0  1  0  0  0  0  0  0  0  0  0
    2.6359   -9.8889    6.5708 O   0  0  0  0  0  0  0  0  0  0  0  0
    3.6412   -8.6262    4.6590 C   0  0  1  0  0  0  0  0  0  0  0  0
    5.0444   -8.7373    5.3296 C   0  0  0  0  0  0  0  0  0  0  0  0
    3.0818   -7.1632    4.9326 C   0  0  2  0  0  0  0  0  0  0  0  0
    2.7807   -6.8709    6.4271 C   0  0  0  0  0  0  0  0  0  0  0  0
    2.3053   -5.4313    6.7024 C   0  0  1  0  0  0  0  0  0  0  0  0
    3.4313   -4.5853    6.5560 O   0  0  0  0  0  0  0  0  0  0  0  0
    1.0602   -5.0054    5.8631 C   0  0  2  0  0  0  0  0  0  0  0  0
   -0.1724   -5.7638    6.4044 C   0  0  0  0  0  0  0  0  0  0  0  0
    0.9277   -3.4530    5.9665 C   0  0  2  0  0  0  0  0  0  0  0  0
   -0.4576   -2.7949    5.8066 C   0  0  0  0  0  0  0  0  0  0  0  0
   -1.4007   -3.0899    6.5299 O   0  0  0  0  0  0  0  0  0  0  0  0
   -0.4517   -1.7779    4.7626 C   0  0  0  0  0  0  0  0  0  0  0  0
    2.0200   -0.3366    3.3769 H   0  0  0  0  0  0  0  0  0  0  0  0
    0.3472   -0.1693    2.8283 H   0  0  0  0  0  0  0  0  0  0  0  0
    1.3829   -1.4215    2.1171 H   0  0  0  0  0  0  0  0  0  0  0  0
    3.0864   -4.2498    3.8953 H   0  0  0  0  0  0  0  0  0  0  0  0
    1.8209   -3.8868    2.7478 H   0  0  0  0  0  0  0  0  0  0  0  0
    0.2877   -5.2825    3.8863 H   0  0  0  0  0  0  0  0  0  0  0  0
    1.0725   -7.4265    4.3420 H   0  0  0  0  0  0  0  0  0  0  0  0
    1.1600   -6.8623    2.0125 H   0  0  0  0  0  0  0  0  0  0  0  0
    3.1972   -6.3964    1.0871 H   0  0  0  0  0  0  0  0  0  0  0  0
    1.7571   -9.1245    2.5803 H   0  0  0  0  0  0  0  0  0  0  0  0
    2.7424   -8.6165    1.2433 H   0  0  0  0  0  0  0  0  0  0  0  0
    4.6131   -8.0892    2.8009 H   0  0  0  0  0  0  0  0  0  0  0  0
    4.4745  -10.2402    1.6300 H   0  0  0  0  0  0  0  0  0  0  0  0
    5.3777  -10.3383    3.0971 H   0  0  0  0  0  0  0  0  0  0  0  0
    2.5136  -11.2822    2.6433 H   0  0  0  0  0  0  0  0  0  0  0  0
    4.0859  -12.6284    1.9435 H   0  0  0  0  0  0  0  0  0  0  0  0
    2.3811  -11.9365    4.9488 H   0  0  0  0  0  0  0  0  0  0  0  0
    4.0451  -11.5262    5.2555 H   0  0  0  0  0  0  0  0  0  0  0  0
    1.7021   -9.6335    4.7902 H   0  0  0  0  0  0  0  0  0  0  0  0
    2.1914  -10.6964    6.8160 H   0  0  0  0  0  0  0  0  0  0  0  0
    5.0034   -8.6212    6.4113 H   0  0  0  0  0  0  0  0  0  0  0  0
    5.7289   -7.9776    4.9522 H   0  0  0  0  0  0  0  0  0  0  0  0
    5.5210   -9.7012    5.1638 H   0  0  0  0  0  0  0  0  0  0  0  0
    3.8997   -6.4892    4.6586 H   0  0  0  0  0  0  0  0  0  0  0  0
    1.9929   -7.5378    6.7734 H   0  0  0  0  0  0  0  0  0  0  0  0
    3.6434   -7.0692    7.0557 H   0  0  0  0  0  0  0  0  0  0  0  0
    2.0352   -5.3706    7.7605 H   0  0  0  0  0  0  0  0  0  0  0  0
    3.7131   -4.6283    5.6638 H   0  0  0  0  0  0  0  0  0  0  0  0
   -0.3924   -5.4874    7.4353 H   0  0  0  0  0  0  0  0  0  0  0  0
   -0.0480   -6.8449    6.3922 H   0  0  0  0  0  0  0  0  0  0  0  0
   -1.0685   -5.5736    5.8197 H   0  0  0  0  0  0  0  0  0  0  0  0
    1.3523   -3.0764    6.8855 H   0  0  0  0  0  0  0  0  0  0  0  0
   -1.2536   -1.0900    4.5891 H   0  0  0  0  0  0  0  0  0  0  0  0
    2.5749   -2.3362    5.0342 H   0  0  0  0  0  0  0  0  0  0  0  0
  1 29  1  0
  1 30  1  0
  1 31  1  0
  1  2  1  0
  2  3  1  0
  2 28  2  0
  3  4  1  0
  3 62  1  1
  3 25  1  0
  4  5  1  0
  4 32  1  0
  4 33  1  0
  5 23  1  0
  5  6  1  0
  5 34  1  6
  6 19  1  0
  6  7  1  0
  6 35  1  1
  7  8  1  0
  7  9  1  0
  7 36  1  6
  8 37  1  0
  9 10  1  0
  9 38  1  0
  9 39  1  0
 10 17  1  0
 10 11  1  0
 10 40  1  6
 11 12  1  0
 11 41  1  0
 11 42  1  0
 12 13  1  0
 12 14  1  0
 12 43  1  6
 13 44  1  0
 14 15  1  0
 14 45  1  0
 14 46  1  0
 15 16  1  0
 15 17  1  0
 15 47  1  6
 16 48  1  0
 17 18  1  1
 17 19  1  0
 18 49  1  0
 18 50  1  0
 18 51  1  0
 19 20  1  0
 19 52  1  6
 20 21  1  0
 20 53  1  0
 20 54  1  0
 21 22  1  0
 21 23  1  0
 21 55  1  1
 22 56  1  0
 23 24  1  1
 23 25  1  0
 24 57  1  0
 24 58  1  0
 24 59  1  0
 25 60  1  1
 25 26  1  0
 26 27  2  0
 26 28  1  0
 28 61  1  0
M  END
>  <i_m_ct_stereo_status>  (360) 
1

>  <s_m_source_file>  (360) 
/var/tmp/pbs.5076255.sched01/tmpnhftudgm/135squ2m_dv.sdf

>  <i_m_source_file_index>  (360) 
16

>  <i_lp_mmshare_version>  (360) 
48012

>  <i_f3d_flags>  (360) 
0

>  <s_epik_input>  (360) 
Tz1DMVtDSDJdQyhbQ0gzXSk9QyhbQ0gyXTIpW0NAQEhdMVtDQF0oW0NIM10pKFtDQEhdKFtPSF0pW0NIMl1bQ0BIXTM0KVtDQEBIXTJbQ0BIXTNbQ0BASF0oW09IXSlbQ0gyXVtDQEBIXShbQ0BAXTQ1W0NIM10pW0NIMl1bQ0BASF0oW09IXSlbQ0gyXVtDQEhdNVtPSF0=

>  <s_epik_cmdline>  (360) 
J2VwaWtfcHl0aG9uJywgJy1waHQnLCAnMi4wJywgJy1waCcsICc3LjAnLCAnLXRuJywgJzgnLCAnLW1hJywgJzIwMCcsICctaW1hZScsICc8aW5maWxlLm1hZT4nLCAnLW9tYWUnLCAnPG91dGZpbGUubWFlPic=

>  <r_lp_tautomer_probability>  (360) 
0.499977

>  <r_epik_Ionization_Penalty>  (360) 
2.98631e-06

>  <r_epik_Ionization_Penalty_Charging>  (360) 
0

>  <r_epik_Ionization_Penalty_Neutral>  (360) 
2.98631e-06

>  <r_epik_State_Penalty>  (360) 
0.41068

>  <r_epik_Charging_Adjusted_Penalty>  (360) 
0.41068

>  <i_epik_Tot_Q>  (360) 
0

>  <i_epik_Tot_abs_Q>  (360) 
0

>  <s_lp_Force_Field>  (360) 
OPLS3e

>  <r_lp_Energy>  (360) 
32.3191

>  <b_lp_Chiralities_Consistent>  (360) 
1

>  <s_lp_Variant>  (360) 
98:0-2

>  <s_i_glide_gridfile>  (360) 
pfpi4k_grid

>  <i_i_glide_lignum>  (360) 
16

>  <i_i_glide_rotatable_bonds>  (360) 
4

>  <r_i_docking_score>  (360) 
-3.3224

>  <r_i_glide_ligand_efficiency>  (360) 
-0.118657

>  <r_i_glide_ligand_efficiency_sa>  (360) 
-0.360313

>  <r_i_glide_ligand_efficiency_ln>  (360) 
-0.766908

>  <r_i_glide_gscore>  (360) 
-3.3224

>  <r_i_glide_lipo>  (360) 
-0.0241481

>  <r_i_glide_hbond>  (360) 
-0.301083

>  <r_i_glide_metal>  (360) 
-0

>  <r_i_glide_rewards>  (360) 
-0.746502

>  <r_i_glide_evdw>  (360) 
-19.8385

>  <r_i_glide_ecoul>  (360) 
-8.24423

>  <r_i_glide_erotb>  (360) 
0

>  <r_i_glide_esite>  (360) 
-0.0221115

>  <r_i_glide_emodel>  (360) 
-34.3958

>  <r_i_glide_energy>  (360) 
-28.0827

>  <r_i_glide_einternal>  (360) 
1.10902

>  <r_i_glide_intrahb_reward>  (360) 
-0

>  <i_i_glide_confnum>  (360) 
1

>  <i_i_glide_posenum>  (360) 
1

>  <r_i_glide_eff_state_penalty>  (360) 
0

>  <ligand_id>  (360) 
98

>  <original_smiles>  (360) 
CC1=C2CC3C4C(O)CC5CC(O)CC(O)C5(C)C4CC(O)C3(C)C2C(=O)C1

>  <smiles>  (360) 
[H]OC1([H])C([H])([H])C([H])(O[H])C2(C([H])([H])[H])C([H])(C1([H])[H])C([H])([H])C([H])(O[H])C1([H])C3([H])C([H])([H])C4([H])C(C([H])([H])[H])=C([H])C(=O)C4([H])C3(C([H])([H])[H])C([H])(O[H])C([H])([H])C12[H]

$$$$
98:1:2
     RDKit          3D

 62 66  0  0  1  0  0  0  0  0999 V2000
   -2.2210    4.2347    3.1220 C   0  0  0  0  0  0  0  0  0  0  0  0
   -1.7775    3.3433    4.2694 C   0  0  0  0  0  0  0  0  0  0  0  0
   -0.3123    3.0109    4.4898 C   0  0  2  0  0  0  0  0  0  0  0  0
    0.2477    2.0184    3.4480 C   0  0  0  0  0  0  0  0  0  0  0  0
    0.4137    0.6539    4.1588 C   0  0  1  0  0  0  0  0  0  0  0  0
    1.5105   -0.3472    3.6339 C   0  0  1  0  0  0  0  0  0  0  0  0
    1.3902   -0.6531    2.1331 C   0  0  1  0  0  0  0  0  0  0  0  0
    1.5948    0.4819    1.3373 O   0  0  0  0  0  0  0  0  0  0  0  0
    2.3834   -1.7240    1.6795 C   0  0  0  0  0  0  0  0  0  0  0  0
    3.8362   -1.3177    1.9861 C   0  0  2  0  0  0  0  0  0  0  0  0
    4.8107   -2.3430    1.3624 C   0  0  0  0  0  0  0  0  0  0  0  0
    4.7396   -3.6993    2.0718 C   0  0  1  0  0  0  0  0  0  0  0  0
    5.7652   -4.5266    1.5656 O   0  0  0  0  0  0  0  0  0  0  0  0
    4.9133   -3.5533    3.5934 C   0  0  0  0  0  0  0  0  0  0  0  0
    4.0231   -2.4654    4.2372 C   0  0  1  0  0  0  0  0  0  0  0  0
    4.4480   -2.3952    5.5839 O   0  0  0  0  0  0  0  0  0  0  0  0
    4.0560   -1.0689    3.5140 C   0  0  1  0  0  0  0  0  0  0  0  0
    5.4462   -0.4070    3.6714 C   0  0  0  0  0  0  0  0  0  0  0  0
    2.9790   -0.0229    4.0276 C   0  0  2  0  0  0  0  0  0  0  0  0
    3.0490    0.2694    5.5489 C   0  0  0  0  0  0  0  0  0  0  0  0
    2.0465    1.3336    6.0213 C   0  0  1  0  0  0  0  0  0  0  0  0
    2.5071    2.5843    5.5474 O   0  0  0  0  0  0  0  0  0  0  0  0
    0.5652    1.0055    5.6627 C   0  0  2  0  0  0  0  0  0  0  0  0
    0.0917   -0.1752    6.5442 C   0  0  0  0  0  0  0  0  0  0  0  0
   -0.2750    2.3053    5.8701 C   0  0  2  0  0  0  0  0  0  0  0  0
   -1.7656    2.1784    6.2108 C   0  0  0  0  0  0  0  0  0  0  0  0
   -2.1736    1.5396    7.1726 O   0  0  0  0  0  0  0  0  0  0  0  0
   -2.5670    2.9483    5.2589 C   0  0  0  0  0  0  0  0  0  0  0  0
   -1.6664    5.1723    3.1636 H   0  0  0  0  0  0  0  0  0  0  0  0
   -3.2883    4.4471    3.1868 H   0  0  0  0  0  0  0  0  0  0  0  0
   -2.0374    3.7626    2.1606 H   0  0  0  0  0  0  0  0  0  0  0  0
    1.2346    2.3761    3.1567 H   0  0  0  0  0  0  0  0  0  0  0  0
   -0.3313    1.9507    2.5218 H   0  0  0  0  0  0  0  0  0  0  0  0
   -0.5456    0.1472    4.0349 H   0  0  0  0  0  0  0  0  0  0  0  0
    1.2822   -1.2927    4.1281 H   0  0  0  0  0  0  0  0  0  0  0  0
    0.3854   -1.0166    1.9352 H   0  0  0  0  0  0  0  0  0  0  0  0
    1.2916    0.2298    0.4525 H   0  0  0  0  0  0  0  0  0  0  0  0
    2.1294   -2.6609    2.1724 H   0  0  0  0  0  0  0  0  0  0  0  0
    2.2711   -1.9123    0.6111 H   0  0  0  0  0  0  0  0  0  0  0  0
    4.0224   -0.3812    1.4600 H   0  0  0  0  0  0  0  0  0  0  0  0
    4.5913   -2.4671    0.2996 H   0  0  0  0  0  0  0  0  0  0  0  0
    5.8323   -1.9621    1.3848 H   0  0  0  0  0  0  0  0  0  0  0  0
    3.7832   -4.1775    1.8633 H   0  0  0  0  0  0  0  0  0  0  0  0
    5.5885   -4.7126    0.6533 H   0  0  0  0  0  0  0  0  0  0  0  0
    4.7158   -4.5188    4.0616 H   0  0  0  0  0  0  0  0  0  0  0  0
    5.9477   -3.3285    3.8131 H   0  0  0  0  0  0  0  0  0  0  0  0
    2.9984   -2.8389    4.2422 H   0  0  0  0  0  0  0  0  0  0  0  0
    5.3549   -2.1190    5.6018 H   0  0  0  0  0  0  0  0  0  0  0  0
    5.7208   -0.2128    4.7059 H   0  0  0  0  0  0  0  0  0  0  0  0
    5.5108    0.5411    3.1400 H   0  0  0  0  0  0  0  0  0  0  0  0
    6.2212   -1.0425    3.2648 H   0  0  0  0  0  0  0  0  0  0  0  0
    3.2277    0.9136    3.5256 H   0  0  0  0  0  0  0  0  0  0  0  0
    2.8351   -0.6396    6.1050 H   0  0  0  0  0  0  0  0  0  0  0  0
    4.0452    0.5892    5.8452 H   0  0  0  0  0  0  0  0  0  0  0  0
    2.1166    1.3920    7.1108 H   0  0  0  0  0  0  0  0  0  0  0  0
    2.4420    2.5798    4.6025 H   0  0  0  0  0  0  0  0  0  0  0  0
    0.0946    0.0969    7.5996 H   0  0  0  0  0  0  0  0  0  0  0  0
    0.7166   -1.0595    6.4469 H   0  0  0  0  0  0  0  0  0  0  0  0
   -0.9132   -0.5057    6.2916 H   0  0  0  0  0  0  0  0  0  0  0  0
    0.1721    2.9510    6.6210 H   0  0  0  0  0  0  0  0  0  0  0  0
   -3.6163    3.1418    5.3870 H   0  0  0  0  0  0  0  0  0  0  0  0
    0.2448    3.9434    4.4916 H   0  0  0  0  0  0  0  0  0  0  0  0
  1 29  1  0
  1 30  1  0
  1 31  1  0
  1  2  1  0
  2  3  1  0
  2 28  2  0
  3  4  1  0
  3 62  1  1
  3 25  1  0
  4  5  1  0
  4 32  1  0
  4 33  1  0
  5 23  1  0
  5  6  1  0
  5 34  1  1
  6 19  1  0
  6  7  1  0
  6 35  1  1
  7  8  1  0
  7  9  1  0
  7 36  1  1
  8 37  1  0
  9 10  1  0
  9 38  1  0
  9 39  1  0
 10 17  1  0
 10 11  1  0
 10 40  1  6
 11 12  1  0
 11 41  1  0
 11 42  1  0
 12 13  1  0
 12 14  1  0
 12 43  1  1
 13 44  1  0
 14 15  1  0
 14 45  1  0
 14 46  1  0
 15 16  1  0
 15 17  1  0
 15 47  1  1
 16 48  1  0
 17 18  1  6
 17 19  1  0
 18 49  1  0
 18 50  1  0
 18 51  1  0
 19 20  1  0
 19 52  1  6
 20 21  1  0
 20 53  1  0
 20 54  1  0
 21 22  1  0
 21 23  1  0
 21 55  1  1
 22 56  1  0
 23 24  1  1
 23 25  1  0
 24 57  1  0
 24 58  1  0
 24 59  1  0
 25 60  1  1
 25 26  1  0
 26 27  2  0
 26 28  1  0
 28 61  1  0
M  END
>  <i_m_ct_stereo_status>  (361) 
1

>  <s_m_source_file>  (361) 
/var/tmp/pbs.5076255.sched01/tmpnhftudgm/135squ2m_dv.sdf

>  <i_m_source_file_index>  (361) 
16

>  <i_lp_mmshare_version>  (361) 
48012

>  <i_f3d_flags>  (361) 
0

>  <s_epik_input>  (361) 
Tz1DMVtDSDJdQyhbQ0gzXSk9QyhbQ0gyXTIpW0NAQEhdMVtDQF0oW0NIM10pKFtDQEhdKFtPSF0pW0NIMl1bQ0BIXTM0KVtDQEBIXTJbQ0BIXTNbQ0BASF0oW09IXSlbQ0gyXVtDQEBIXShbQ0BAXTQ1W0NIM10pW0NIMl1bQ0BASF0oW09IXSlbQ0gyXVtDQEhdNVtPSF0=

>  <s_epik_cmdline>  (361) 
J2VwaWtfcHl0aG9uJywgJy1waHQnLCAnMi4wJywgJy1waCcsICc3LjAnLCAnLXRuJywgJzgnLCAnLW1hJywgJzIwMCcsICctaW1hZScsICc8aW5maWxlLm1hZT4nLCAnLW9tYWUnLCAnPG91dGZpbGUubWFlPic=

>  <r_lp_tautomer_probability>  (361) 
0.499977

>  <r_epik_Ionization_Penalty>  (361) 
2.98631e-06

>  <r_epik_Ionization_Penalty_Charging>  (361) 
0

>  <r_epik_Ionization_Penalty_Neutral>  (361) 
2.98631e-06

>  <r_epik_State_Penalty>  (361) 
0.41068

>  <r_epik_Charging_Adjusted_Penalty>  (361) 
0.41068

>  <i_epik_Tot_Q>  (361) 
0

>  <i_epik_Tot_abs_Q>  (361) 
0

>  <s_lp_Force_Field>  (361) 
OPLS3e

>  <r_lp_Energy>  (361) 
32.3191

>  <b_lp_Chiralities_Consistent>  (361) 
1

>  <s_lp_Variant>  (361) 
98:0-2

>  <s_i_glide_gridfile>  (361) 
pfpi4k_grid

>  <i_i_glide_lignum>  (361) 
16

>  <i_i_glide_rotatable_bonds>  (361) 
4

>  <r_i_docking_score>  (361) 
-3.08104

>  <r_i_glide_ligand_efficiency>  (361) 
-0.110037

>  <r_i_glide_ligand_efficiency_sa>  (361) 
-0.334138

>  <r_i_glide_ligand_efficiency_ln>  (361) 
-0.711195

>  <r_i_glide_gscore>  (361) 
-3.08104

>  <r_i_glide_lipo>  (361) 
-0.21884

>  <r_i_glide_hbond>  (361) 
-0.221194

>  <r_i_glide_metal>  (361) 
-0

>  <r_i_glide_rewards>  (361) 
-0.746502

>  <r_i_glide_evdw>  (361) 
-21.6294

>  <r_i_glide_ecoul>  (361) 
-5.40858

>  <r_i_glide_erotb>  (361) 
0

>  <r_i_glide_esite>  (361) 
-0.00175194

>  <r_i_glide_emodel>  (361) 
-33.0456

>  <r_i_glide_energy>  (361) 
-27.0379

>  <r_i_glide_einternal>  (361) 
0.734236

>  <r_i_glide_intrahb_reward>  (361) 
-0

>  <i_i_glide_confnum>  (361) 
1

>  <i_i_glide_posenum>  (361) 
14

>  <r_i_glide_eff_state_penalty>  (361) 
0

>  <ligand_id>  (361) 
98

>  <original_smiles>  (361) 
CC1=C2CC3C4C(O)CC5CC(O)CC(O)C5(C)C4CC(O)C3(C)C2C(=O)C1

>  <smiles>  (361) 
[H]OC1([H])C([H])([H])C([H])(O[H])C2(C([H])([H])[H])C([H])(C1([H])[H])C([H])([H])C([H])(O[H])C1([H])C3([H])C([H])([H])C4([H])C(C([H])([H])[H])=C([H])C(=O)C4([H])C3(C([H])([H])[H])C([H])(O[H])C([H])([H])C12[H]

$$$$
99:0:0
     RDKit          3D

 30 32  0  0  1  0  0  0  0  0999 V2000
    2.2796   -9.0522    2.3910 C   0  0  0  0  0  0  0  0  0  0  0  0
    1.5167  -10.0059    3.3073 C   0  0  0  0  0  0  0  0  0  0  0  0
    1.3244   -9.4304    4.6553 N   0  0  0  0  0  0  0  0  0  0  0  0
    0.6414   -8.3055    4.9805 C   0  0  0  0  0  0  0  0  0  0  0  0
    0.1094   -7.5668    4.1510 O   0  0  0  0  0  0  0  0  0  0  0  0
    0.5714   -7.9732    6.4490 C   0  0  0  0  0  0  0  0  0  0  0  0
    0.4689   -9.0196    7.4050 C   0  0  0  0  0  0  0  0  0  0  0  0
    0.3356   -8.7919    8.7311 N   0  0  0  0  0  0  0  0  0  0  0  0
    0.3185   -7.5022    9.0326 N   0  0  0  0  0  0  0  0  0  0  0  0
    0.2054   -6.9750   10.2849 N   0  0  0  0  0  0  0  0  0  0  0  0
    0.2301   -5.6363   10.1524 C   0  0  0  0  0  0  0  0  0  0  0  0
    0.3405   -5.1891    8.7938 C   0  0  0  0  0  0  0  0  0  0  0  0
    0.4011   -6.4460    8.1438 C   0  0  0  0  0  0  0  0  0  0  0  0
    0.5190   -6.6441    6.7988 N   0  0  0  0  0  0  0  0  0  0  0  0
    0.2106  -10.6365    2.7880 C   0  0  0  0  0  0  0  0  0  0  0  0
    0.6288  -11.9725    3.3929 C   0  0  0  0  0  0  0  0  0  0  0  0
    2.0580  -11.4537    3.4099 C   0  0  0  0  0  0  0  0  0  0  0  0
    2.4163   -9.5034    1.4060 H   0  0  0  0  0  0  0  0  0  0  0  0
    3.2698   -8.8224    2.7845 H   0  0  0  0  0  0  0  0  0  0  0  0
    1.7454   -8.1191    2.2171 H   0  0  0  0  0  0  0  0  0  0  0  0
    1.7036   -9.9861    5.4084 H   0  0  0  0  0  0  0  0  0  0  0  0
    0.4625  -10.0554    7.0957 H   0  0  0  0  0  0  0  0  0  0  0  0
    0.1569   -5.0674   11.0694 H   0  0  0  0  0  0  0  0  0  0  0  0
    0.3867   -4.2404    8.2774 H   0  0  0  0  0  0  0  0  0  0  0  0
   -0.7144  -10.2255    3.1854 H   0  0  0  0  0  0  0  0  0  0  0  0
    0.1698  -10.6852    1.6997 H   0  0  0  0  0  0  0  0  0  0  0  0
    0.2161  -12.1418    4.3931 H   0  0  0  0  0  0  0  0  0  0  0  0
    0.4364  -12.8126    2.7232 H   0  0  0  0  0  0  0  0  0  0  0  0
    2.6068  -11.7696    2.5155 H   0  0  0  0  0  0  0  0  0  0  0  0
    2.6207  -11.7095    4.3090 H   0  0  0  0  0  0  0  0  0  0  0  0
  1  2  1  0
  1 18  1  0
  1 19  1  0
  1 20  1  0
  2 17  1  0
  2  3  1  0
  2 15  1  0
  3  4  1  0
  3 21  1  0
  4  5  2  0
  4  6  1  0
  6 14  2  0
  6  7  1  0
  7  8  2  0
  7 22  1  0
  8  9  1  0
  9 13  1  0
  9 10  1  0
 10 11  2  0
 11 12  1  0
 11 23  1  0
 12 13  2  0
 12 24  1  0
 13 14  1  0
 15 16  1  0
 15 25  1  0
 15 26  1  0
 16 17  1  0
 16 27  1  0
 16 28  1  0
 17 29  1  0
 17 30  1  0
M  END
>  <i_m_ct_stereo_status>  (362) 
1

>  <s_m_source_file>  (362) 
/var/tmp/pbs.5076255.sched01/tmpnhftudgm/135squ2m_dv.sdf

>  <i_m_source_file_index>  (362) 
17

>  <i_lp_mmshare_version>  (362) 
48012

>  <i_f3d_flags>  (362) 
0

>  <s_epik_input>  (362) 
W0NIMl0xW0NIMl1bQ0gyXUMxKFtDSDNdKVtOSF1DKD1PKWMoW2NIXW4yKW5jKG4yMylbY0hdW2NIXW4z

>  <s_epik_cmdline>  (362) 
J2VwaWtfcHl0aG9uJywgJy1waHQnLCAnMi4wJywgJy1waCcsICc3LjAnLCAnLXRuJywgJzgnLCAnLW1hJywgJzIwMCcsICctaW1hZScsICc8aW5maWxlLm1hZT4nLCAnLW9tYWUnLCAnPG91dGZpbGUubWFlPic=

>  <r_lp_tautomer_probability>  (362) 
1

>  <r_epik_Ionization_Penalty>  (362) 
4.70659e-06

>  <r_epik_Ionization_Penalty_Charging>  (362) 
0

>  <r_epik_Ionization_Penalty_Neutral>  (362) 
4.70659e-06

>  <r_epik_State_Penalty>  (362) 
-0

>  <r_epik_Charging_Adjusted_Penalty>  (362) 
0

>  <i_epik_Tot_Q>  (362) 
0

>  <i_epik_Tot_abs_Q>  (362) 
0

>  <s_lp_Force_Field>  (362) 
OPLS3e

>  <r_lp_Energy>  (362) 
38.1213

>  <b_lp_Chiralities_Consistent>  (362) 
1

>  <s_lp_Variant>  (362) 
99:0-1

>  <s_i_glide_gridfile>  (362) 
pfpi4k_grid

>  <i_i_glide_lignum>  (362) 
17

>  <i_i_glide_rotatable_bonds>  (362) 
3

>  <r_i_docking_score>  (362) 
-3.09453

>  <r_i_glide_ligand_efficiency>  (362) 
-0.182031

>  <r_i_glide_ligand_efficiency_sa>  (362) 
-0.468053

>  <r_i_glide_ligand_efficiency_ln>  (362) 
-0.807294

>  <r_i_glide_gscore>  (362) 
-3.09453

>  <r_i_glide_lipo>  (362) 
-0.245241

>  <r_i_glide_hbond>  (362) 
-0.319507

>  <r_i_glide_metal>  (362) 
-0

>  <r_i_glide_rewards>  (362) 
-1.83236

>  <r_i_glide_evdw>  (362) 
-17.427

>  <r_i_glide_ecoul>  (362) 
-4.49067

>  <r_i_glide_erotb>  (362) 
0.959484

>  <r_i_glide_esite>  (362) 
-0.111952

>  <r_i_glide_emodel>  (362) 
-26.9184

>  <r_i_glide_energy>  (362) 
-21.9177

>  <r_i_glide_einternal>  (362) 
0.122047

>  <r_i_glide_intrahb_reward>  (362) 
-0

>  <i_i_glide_confnum>  (362) 
1

>  <i_i_glide_posenum>  (362) 
28

>  <r_i_glide_eff_state_penalty>  (362) 
0

>  <ligand_id>  (362) 
99

>  <original_smiles>  (362) 
CC1(NC(=O)c2cnn3nccc3n2)CCC1

>  <smiles>  (362) 
[H]c1nn2nc([H])c([H])c2nc1C(=O)N([H])C1(C([H])([H])[H])C([H])([H])C([H])([H])C1([H])[H]

$$$$
99:0:1
     RDKit          3D

 30 32  0  0  1  0  0  0  0  0999 V2000
   -0.5029   -9.9261    2.6579 C   0  0  0  0  0  0  0  0  0  0  0  0
    0.6942  -10.3145    3.5261 C   0  0  0  0  0  0  0  0  0  0  0  0
    0.6162   -9.6848    4.8500 N   0  0  0  0  0  0  0  0  0  0  0  0
    0.6100   -8.3593    5.1435 C   0  0  0  0  0  0  0  0  0  0  0  0
    0.6895   -7.4861    4.2773 O   0  0  0  0  0  0  0  0  0  0  0  0
    0.5078   -7.9859    6.6070 C   0  0  0  0  0  0  0  0  0  0  0  0
    0.3318   -8.9810    7.6067 C   0  0  0  0  0  0  0  0  0  0  0  0
    0.2227   -8.6926    8.9247 N   0  0  0  0  0  0  0  0  0  0  0  0
    0.2956   -7.3947    9.1783 N   0  0  0  0  0  0  0  0  0  0  0  0
    0.2041   -6.8221   10.4090 N   0  0  0  0  0  0  0  0  0  0  0  0
    0.3324   -5.5008   10.2297 C   0  0  0  0  0  0  0  0  0  0  0  0
    0.4917   -5.1106    8.8533 C   0  0  0  0  0  0  0  0  0  0  0  0
    0.4606   -6.3882    8.2518 C   0  0  0  0  0  0  0  0  0  0  0  0
    0.5704   -6.6501    6.9177 N   0  0  0  0  0  0  0  0  0  0  0  0
    0.9906  -11.8294    3.6646 C   0  0  0  0  0  0  0  0  0  0  0  0
    2.4899  -11.5362    3.5706 C   0  0  0  0  0  0  0  0  0  0  0  0
    2.1141  -10.1935    2.9341 C   0  0  0  0  0  0  0  0  0  0  0  0
   -0.4541  -10.4434    1.6989 H   0  0  0  0  0  0  0  0  0  0  0  0
   -0.5501   -8.8596    2.4400 H   0  0  0  0  0  0  0  0  0  0  0  0
   -1.4457  -10.2251    3.1082 H   0  0  0  0  0  0  0  0  0  0  0  0
    0.5222  -10.3473    5.6060 H   0  0  0  0  0  0  0  0  0  0  0  0
    0.2658  -10.0324    7.3552 H   0  0  0  0  0  0  0  0  0  0  0  0
    0.2952   -4.9016   11.1261 H   0  0  0  0  0  0  0  0  0  0  0  0
    0.6159   -4.1965    8.2895 H   0  0  0  0  0  0  0  0  0  0  0  0
    0.6744  -12.3080    4.5930 H   0  0  0  0  0  0  0  0  0  0  0  0
    0.6413  -12.4097    2.8077 H   0  0  0  0  0  0  0  0  0  0  0  0
    2.9621  -11.4369    4.5493 H   0  0  0  0  0  0  0  0  0  0  0  0
    3.0508  -12.2094    2.9162 H   0  0  0  0  0  0  0  0  0  0  0  0
    2.1204  -10.2441    1.8449 H   0  0  0  0  0  0  0  0  0  0  0  0
    2.7001   -9.3446    3.2848 H   0  0  0  0  0  0  0  0  0  0  0  0
  1  2  1  0
  1 18  1  0
  1 19  1  0
  1 20  1  0
  2 17  1  0
  2  3  1  0
  2 15  1  0
  3  4  1  0
  3 21  1  0
  4  5  2  0
  4  6  1  0
  6 14  2  0
  6  7  1  0
  7  8  2  0
  7 22  1  0
  8  9  1  0
  9 13  1  0
  9 10  1  0
 10 11  2  0
 11 12  1  0
 11 23  1  0
 12 13  2  0
 12 24  1  0
 13 14  1  0
 15 16  1  0
 15 25  1  0
 15 26  1  0
 16 17  1  0
 16 27  1  0
 16 28  1  0
 17 29  1  0
 17 30  1  0
M  END
>  <i_m_ct_stereo_status>  (363) 
1

>  <s_m_source_file>  (363) 
/var/tmp/pbs.5076255.sched01/tmpnhftudgm/135squ2m_dv.sdf

>  <i_m_source_file_index>  (363) 
17

>  <i_lp_mmshare_version>  (363) 
48012

>  <i_f3d_flags>  (363) 
0

>  <s_epik_input>  (363) 
W0NIMl0xW0NIMl1bQ0gyXUMxKFtDSDNdKVtOSF1DKD1PKWMoW2NIXW4yKW5jKG4yMylbY0hdW2NIXW4z

>  <s_epik_cmdline>  (363) 
J2VwaWtfcHl0aG9uJywgJy1waHQnLCAnMi4wJywgJy1waCcsICc3LjAnLCAnLXRuJywgJzgnLCAnLW1hJywgJzIwMCcsICctaW1hZScsICc8aW5maWxlLm1hZT4nLCAnLW9tYWUnLCAnPG91dGZpbGUubWFlPic=

>  <r_lp_tautomer_probability>  (363) 
1

>  <r_epik_Ionization_Penalty>  (363) 
4.70659e-06

>  <r_epik_Ionization_Penalty_Charging>  (363) 
0

>  <r_epik_Ionization_Penalty_Neutral>  (363) 
4.70659e-06

>  <r_epik_State_Penalty>  (363) 
-0

>  <r_epik_Charging_Adjusted_Penalty>  (363) 
0

>  <i_epik_Tot_Q>  (363) 
0

>  <i_epik_Tot_abs_Q>  (363) 
0

>  <s_lp_Force_Field>  (363) 
OPLS3e

>  <r_lp_Energy>  (363) 
38.1213

>  <b_lp_Chiralities_Consistent>  (363) 
1

>  <s_lp_Variant>  (363) 
99:0-1

>  <s_i_glide_gridfile>  (363) 
pfpi4k_grid

>  <i_i_glide_lignum>  (363) 
17

>  <i_i_glide_rotatable_bonds>  (363) 
3

>  <r_i_docking_score>  (363) 
-2.96296

>  <r_i_glide_ligand_efficiency>  (363) 
-0.174292

>  <r_i_glide_ligand_efficiency_sa>  (363) 
-0.448153

>  <r_i_glide_ligand_efficiency_ln>  (363) 
-0.772969

>  <r_i_glide_gscore>  (363) 
-2.96296

>  <r_i_glide_lipo>  (363) 
-0.0914945

>  <r_i_glide_hbond>  (363) 
-0.283147

>  <r_i_glide_metal>  (363) 
-0

>  <r_i_glide_rewards>  (363) 
-1.83236

>  <r_i_glide_evdw>  (363) 
-17.8086

>  <r_i_glide_ecoul>  (363) 
-4.49854

>  <r_i_glide_erotb>  (363) 
0.959484

>  <r_i_glide_esite>  (363) 
-0.150229

>  <r_i_glide_emodel>  (363) 
-27.0882

>  <r_i_glide_energy>  (363) 
-22.3071

>  <r_i_glide_einternal>  (363) 
0.16766

>  <r_i_glide_intrahb_reward>  (363) 
-0

>  <i_i_glide_confnum>  (363) 
4

>  <i_i_glide_posenum>  (363) 
35

>  <r_i_glide_eff_state_penalty>  (363) 
0

>  <ligand_id>  (363) 
99

>  <original_smiles>  (363) 
CC1(NC(=O)c2cnn3nccc3n2)CCC1

>  <smiles>  (363) 
[H]c1nn2nc([H])c([H])c2nc1C(=O)N([H])C1(C([H])([H])[H])C([H])([H])C([H])([H])C1([H])[H]

$$$$
99:0:2
     RDKit          3D

 30 32  0  0  1  0  0  0  0  0999 V2000
   -1.0584   -9.5127    2.4639 C   0  0  0  0  0  0  0  0  0  0  0  0
    0.2272   -9.4089    3.2938 C   0  0  0  0  0  0  0  0  0  0  0  0
    0.2189   -8.2238    4.1657 N   0  0  0  0  0  0  0  0  0  0  0  0
    0.0610   -6.9197    3.8216 C   0  0  0  0  0  0  0  0  0  0  0  0
   -0.1252   -6.5496    2.6604 O   0  0  0  0  0  0  0  0  0  0  0  0
    0.1390   -5.9044    4.9448 C   0  0  0  0  0  0  0  0  0  0  0  0
   -0.0282   -6.2936    6.2985 C   0  0  0  0  0  0  0  0  0  0  0  0
   -0.0579   -5.4077    7.3290 N   0  0  0  0  0  0  0  0  0  0  0  0
    0.0971   -4.1540    6.9344 N   0  0  0  0  0  0  0  0  0  0  0  0
    0.1195   -3.0607    7.7441 N   0  0  0  0  0  0  0  0  0  0  0  0
    0.3332   -2.0060    6.9447 C   0  0  0  0  0  0  0  0  0  0  0  0
    0.4009   -2.3339    5.5513 C   0  0  0  0  0  0  0  0  0  0  0  0
    0.2700   -3.7297    5.6332 C   0  0  0  0  0  0  0  0  0  0  0  0
    0.3003   -4.5936    4.5857 N   0  0  0  0  0  0  0  0  0  0  0  0
    0.6319  -10.6726    4.1011 C   0  0  0  0  0  0  0  0  0  0  0  0
    2.0990  -10.4424    3.7332 C   0  0  0  0  0  0  0  0  0  0  0  0
    1.5939   -9.5587    2.5874 C   0  0  0  0  0  0  0  0  0  0  0  0
   -1.0397  -10.4045    1.8428 H   0  0  0  0  0  0  0  0  0  0  0  0
   -1.1843   -8.6892    1.7664 H   0  0  0  0  0  0  0  0  0  0  0  0
   -1.9425   -9.5659    3.0975 H   0  0  0  0  0  0  0  0  0  0  0  0
    0.3913   -8.4389    5.1374 H   0  0  0  0  0  0  0  0  0  0  0  0
   -0.1726   -7.3367    6.5542 H   0  0  0  0  0  0  0  0  0  0  0  0
    0.4177   -1.0522    7.4426 H   0  0  0  0  0  0  0  0  0  0  0  0
    0.5296   -1.8113    4.6136 H   0  0  0  0  0  0  0  0  0  0  0  0
    0.4195  -10.6639    5.1726 H   0  0  0  0  0  0  0  0  0  0  0  0
    0.2559  -11.5971    3.6593 H   0  0  0  0  0  0  0  0  0  0  0  0
    2.6535   -9.8973    4.4968 H   0  0  0  0  0  0  0  0  0  0  0  0
    2.6372  -11.3402    3.4167 H   0  0  0  0  0  0  0  0  0  0  0  0
    1.5211  -10.1242    1.6621 H   0  0  0  0  0  0  0  0  0  0  0  0
    2.1630   -8.6409    2.4359 H   0  0  0  0  0  0  0  0  0  0  0  0
  1  2  1  0
  1 18  1  0
  1 19  1  0
  1 20  1  0
  2 17  1  0
  2  3  1  0
  2 15  1  0
  3  4  1  0
  3 21  1  0
  4  5  2  0
  4  6  1  0
  6 14  2  0
  6  7  1  0
  7  8  2  0
  7 22  1  0
  8  9  1  0
  9 13  1  0
  9 10  1  0
 10 11  2  0
 11 12  1  0
 11 23  1  0
 12 13  2  0
 12 24  1  0
 13 14  1  0
 15 16  1  0
 15 25  1  0
 15 26  1  0
 16 17  1  0
 16 27  1  0
 16 28  1  0
 17 29  1  0
 17 30  1  0
M  END
>  <i_m_ct_stereo_status>  (364) 
1

>  <s_m_source_file>  (364) 
/var/tmp/pbs.5076255.sched01/tmpnhftudgm/135squ2m_dv.sdf

>  <i_m_source_file_index>  (364) 
17

>  <i_lp_mmshare_version>  (364) 
48012

>  <i_f3d_flags>  (364) 
0

>  <s_epik_input>  (364) 
W0NIMl0xW0NIMl1bQ0gyXUMxKFtDSDNdKVtOSF1DKD1PKWMoW2NIXW4yKW5jKG4yMylbY0hdW2NIXW4z

>  <s_epik_cmdline>  (364) 
J2VwaWtfcHl0aG9uJywgJy1waHQnLCAnMi4wJywgJy1waCcsICc3LjAnLCAnLXRuJywgJzgnLCAnLW1hJywgJzIwMCcsICctaW1hZScsICc8aW5maWxlLm1hZT4nLCAnLW9tYWUnLCAnPG91dGZpbGUubWFlPic=

>  <r_lp_tautomer_probability>  (364) 
1

>  <r_epik_Ionization_Penalty>  (364) 
4.70659e-06

>  <r_epik_Ionization_Penalty_Charging>  (364) 
0

>  <r_epik_Ionization_Penalty_Neutral>  (364) 
4.70659e-06

>  <r_epik_State_Penalty>  (364) 
-0

>  <r_epik_Charging_Adjusted_Penalty>  (364) 
0

>  <i_epik_Tot_Q>  (364) 
0

>  <i_epik_Tot_abs_Q>  (364) 
0

>  <s_lp_Force_Field>  (364) 
OPLS3e

>  <r_lp_Energy>  (364) 
38.1213

>  <b_lp_Chiralities_Consistent>  (364) 
1

>  <s_lp_Variant>  (364) 
99:0-1

>  <s_i_glide_gridfile>  (364) 
pfpi4k_grid

>  <i_i_glide_lignum>  (364) 
17

>  <i_i_glide_rotatable_bonds>  (364) 
3

>  <r_i_docking_score>  (364) 
-2.70952

>  <r_i_glide_ligand_efficiency>  (364) 
-0.159384

>  <r_i_glide_ligand_efficiency_sa>  (364) 
-0.40982

>  <r_i_glide_ligand_efficiency_ln>  (364) 
-0.706854

>  <r_i_glide_gscore>  (364) 
-2.70952

>  <r_i_glide_lipo>  (364) 
-0.273618

>  <r_i_glide_hbond>  (364) 
-0.16

>  <r_i_glide_metal>  (364) 
-0

>  <r_i_glide_rewards>  (364) 
-1.83236

>  <r_i_glide_evdw>  (364) 
-16.7497

>  <r_i_glide_ecoul>  (364) 
-3.17503

>  <r_i_glide_erotb>  (364) 
0.959484

>  <r_i_glide_esite>  (364) 
-0.0892875

>  <r_i_glide_emodel>  (364) 
-24.0977

>  <r_i_glide_energy>  (364) 
-19.9247

>  <r_i_glide_einternal>  (364) 
0.301455

>  <r_i_glide_intrahb_reward>  (364) 
-0

>  <i_i_glide_confnum>  (364) 
4

>  <i_i_glide_posenum>  (364) 
1

>  <r_i_glide_eff_state_penalty>  (364) 
0

>  <ligand_id>  (364) 
99

>  <original_smiles>  (364) 
CC1(NC(=O)c2cnn3nccc3n2)CCC1

>  <smiles>  (364) 
[H]c1nn2nc([H])c([H])c2nc1C(=O)N([H])C1(C([H])([H])[H])C([H])([H])C([H])([H])C1([H])[H]

$$$$
100:0:0
     RDKit          3D

 20 20  0  0  1  0  0  0  0  0999 V2000
    7.0612   -1.8649   -1.2040 O   0  0  0  0  0  0  0  0  0  0  0  0
    6.4374   -2.2786   -0.2059 C   0  0  0  0  0  0  0  0  0  0  0  0
    6.9361   -2.4087    0.9384 O   0  0  0  0  0  0  0  0  0  0  0  0
    4.9690   -2.6574   -0.4056 C   0  0  0  0  0  0  0  0  0  0  0  0
    4.7876   -3.8412   -1.3804 C   0  0  0  0  0  0  0  0  0  0  0  0
    5.0412   -3.4707   -2.8534 C   0  0  0  0  0  0  0  0  0  0  0  0
    4.1877   -2.2540   -3.2841 C   0  0  0  0  0  0  0  0  0  0  0  0
    4.3392   -1.0509   -2.3352 C   0  0  0  0  0  0  0  0  0  0  0  0
    4.1022   -1.4513   -0.8672 C   0  0  0  0  0  0  0  0  0  0  0  0
    4.6063   -2.9641    0.5766 H   0  0  0  0  0  0  0  0  0  0  0  0
    5.4152   -4.6773   -1.0848 H   0  0  0  0  0  0  0  0  0  0  0  0
    3.7660   -4.2029   -1.2804 H   0  0  0  0  0  0  0  0  0  0  0  0
    6.0986   -3.2563   -3.0081 H   0  0  0  0  0  0  0  0  0  0  0  0
    4.8008   -4.3259   -3.4875 H   0  0  0  0  0  0  0  0  0  0  0  0
    4.4611   -1.9565   -4.2975 H   0  0  0  0  0  0  0  0  0  0  0  0
    3.1378   -2.5508   -3.3247 H   0  0  0  0  0  0  0  0  0  0  0  0
    5.3319   -0.6133   -2.4314 H   0  0  0  0  0  0  0  0  0  0  0  0
    3.6270   -0.2761   -2.6213 H   0  0  0  0  0  0  0  0  0  0  0  0
    3.0547   -1.7239   -0.7478 H   0  0  0  0  0  0  0  0  0  0  0  0
    4.2501   -0.5957   -0.2073 H   0  0  0  0  0  0  0  0  0  0  0  0
  1  2  2  0
  2  3  1  0
  2  4  1  0
  4  9  1  0
  4  5  1  0
  4 10  1  0
  5  6  1  0
  5 11  1  0
  5 12  1  0
  6  7  1  0
  6 13  1  0
  6 14  1  0
  7  8  1  0
  7 15  1  0
  7 16  1  0
  8  9  1  0
  8 17  1  0
  8 18  1  0
  9 19  1  0
  9 20  1  0
M  CHG  1   3  -1
M  END
>  <i_m_ct_stereo_status>  (365) 
1

>  <s_m_source_file>  (365) 
/var/tmp/pbs.5076255.sched01/tmpnhftudgm/135squ2m_dv.sdf

>  <i_m_source_file_index>  (365) 
18

>  <i_lp_mmshare_version>  (365) 
48012

>  <i_f3d_flags>  (365) 
0

>  <s_epik_input>  (365) 
Tz1DKFtPSF0pW0NIXTFbQ0gyXVtDSDJdW0NIMl1bQ0gyXVtDSDJdMQ==

>  <s_epik_cmdline>  (365) 
J2VwaWtfcHl0aG9uJywgJy1waHQnLCAnMi4wJywgJy1waCcsICc3LjAnLCAnLXRuJywgJzgnLCAnLW1hJywgJzIwMCcsICctaW1hZScsICc8aW5maWxlLm1hZT4nLCAnLW9tYWUnLCAnPG91dGZpbGUubWFlPic=

>  <r_epik_Ionization_Penalty>  (365) 
0.00317138

>  <r_epik_Ionization_Penalty_Charging>  (365) 
0.00317138

>  <r_epik_Ionization_Penalty_Neutral>  (365) 
0

>  <r_epik_State_Penalty>  (365) 
0.00223512

>  <r_epik_Charging_Adjusted_Penalty>  (365) 
0.0054065

>  <i_epik_Tot_Q>  (365) 
-1

>  <i_epik_Tot_abs_Q>  (365) 
1

>  <s_lp_Force_Field>  (365) 
OPLS3e

>  <r_lp_Energy>  (365) 
9.52235

>  <b_lp_Chiralities_Consistent>  (365) 
1

>  <s_lp_Variant>  (365) 
100:0-1

>  <s_i_glide_gridfile>  (365) 
pfpi4k_grid

>  <i_i_glide_lignum>  (365) 
18

>  <i_i_glide_rotatable_bonds>  (365) 
1

>  <r_i_docking_score>  (365) 
-4.00742

>  <r_i_glide_ligand_efficiency>  (365) 
-0.445269

>  <r_i_glide_ligand_efficiency_sa>  (365) 
-0.926196

>  <r_i_glide_ligand_efficiency_ln>  (365) 
-1.25341

>  <r_i_glide_gscore>  (365) 
-4.00742

>  <r_i_glide_lipo>  (365) 
-0.328901

>  <r_i_glide_hbond>  (365) 
-0.190454

>  <r_i_glide_metal>  (365) 
-0

>  <r_i_glide_rewards>  (365) 
-2.25

>  <r_i_glide_evdw>  (365) 
-13.8277

>  <r_i_glide_ecoul>  (365) 
-3.56177

>  <r_i_glide_erotb>  (365) 
0

>  <r_i_glide_esite>  (365) 
-0.0124106

>  <r_i_glide_emodel>  (365) 
-21.4825

>  <r_i_glide_energy>  (365) 
-17.3895

>  <r_i_glide_einternal>  (365) 
4.03074

>  <r_i_glide_intrahb_reward>  (365) 
-0

>  <i_i_glide_confnum>  (365) 
4

>  <i_i_glide_posenum>  (365) 
37

>  <r_i_glide_eff_state_penalty>  (365) 
0

>  <ligand_id>  (365) 
100

>  <original_smiles>  (365) 
O=C(O)C1CCCCC1

>  <smiles>  (365) 
[H]C1([H])C([H])([H])C([H])([H])C([H])(C(=O)[O-])C([H])([H])C1([H])[H]

$$$$
100:0:1
     RDKit          3D

 20 20  0  0  1  0  0  0  0  0999 V2000
    5.6266   -3.1188    0.4119 O   0  0  0  0  0  0  0  0  0  0  0  0
    5.6134   -2.2268   -0.4659 C   0  0  0  0  0  0  0  0  0  0  0  0
    6.5830   -1.4726   -0.7176 O   0  0  0  0  0  0  0  0  0  0  0  0
    4.3213   -2.0392   -1.2876 C   0  0  0  0  0  0  0  0  0  0  0  0
    3.5942   -3.3887   -1.5188 C   0  0  0  0  0  0  0  0  0  0  0  0
    2.3416   -3.2346   -2.4034 C   0  0  0  0  0  0  0  0  0  0  0  0
    2.6744   -2.5662   -3.7389 C   0  0  0  0  0  0  0  0  0  0  0  0
    3.3559   -1.2093   -3.5149 C   0  0  0  0  0  0  0  0  0  0  0  0
    4.6113   -1.3501   -2.6429 C   0  0  0  0  0  0  0  0  0  0  0  0
    3.6557   -1.3951   -0.7144 H   0  0  0  0  0  0  0  0  0  0  0  0
    4.2793   -4.0950   -1.9921 H   0  0  0  0  0  0  0  0  0  0  0  0
    3.2988   -3.8386   -0.5697 H   0  0  0  0  0  0  0  0  0  0  0  0
    1.8674   -4.1999   -2.5765 H   0  0  0  0  0  0  0  0  0  0  0  0
    1.5870   -2.6606   -1.8853 H   0  0  0  0  0  0  0  0  0  0  0  0
    3.3212   -3.2178   -4.3230 H   0  0  0  0  0  0  0  0  0  0  0  0
    1.7586   -2.4333   -4.3155 H   0  0  0  0  0  0  0  0  0  0  0  0
    3.6153   -0.7604   -4.4731 H   0  0  0  0  0  0  0  0  0  0  0  0
    2.6562   -0.5209   -3.0369 H   0  0  0  0  0  0  0  0  0  0  0  0
    5.0291   -0.3544   -2.4803 H   0  0  0  0  0  0  0  0  0  0  0  0
    5.3560   -1.9355   -3.1835 H   0  0  0  0  0  0  0  0  0  0  0  0
  1  2  2  0
  2  3  1  0
  2  4  1  0
  4  9  1  0
  4  5  1  0
  4 10  1  0
  5  6  1  0
  5 11  1  0
  5 12  1  0
  6  7  1  0
  6 13  1  0
  6 14  1  0
  7  8  1  0
  7 15  1  0
  7 16  1  0
  8  9  1  0
  8 17  1  0
  8 18  1  0
  9 19  1  0
  9 20  1  0
M  CHG  1   3  -1
M  END
>  <i_m_ct_stereo_status>  (366) 
1

>  <s_m_source_file>  (366) 
/var/tmp/pbs.5076255.sched01/tmpnhftudgm/135squ2m_dv.sdf

>  <i_m_source_file_index>  (366) 
18

>  <i_lp_mmshare_version>  (366) 
48012

>  <i_f3d_flags>  (366) 
0

>  <s_epik_input>  (366) 
Tz1DKFtPSF0pW0NIXTFbQ0gyXVtDSDJdW0NIMl1bQ0gyXVtDSDJdMQ==

>  <s_epik_cmdline>  (366) 
J2VwaWtfcHl0aG9uJywgJy1waHQnLCAnMi4wJywgJy1waCcsICc3LjAnLCAnLXRuJywgJzgnLCAnLW1hJywgJzIwMCcsICctaW1hZScsICc8aW5maWxlLm1hZT4nLCAnLW9tYWUnLCAnPG91dGZpbGUubWFlPic=

>  <r_epik_Ionization_Penalty>  (366) 
0.00317138

>  <r_epik_Ionization_Penalty_Charging>  (366) 
0.00317138

>  <r_epik_Ionization_Penalty_Neutral>  (366) 
0

>  <r_epik_State_Penalty>  (366) 
0.00223512

>  <r_epik_Charging_Adjusted_Penalty>  (366) 
0.0054065

>  <i_epik_Tot_Q>  (366) 
-1

>  <i_epik_Tot_abs_Q>  (366) 
1

>  <s_lp_Force_Field>  (366) 
OPLS3e

>  <r_lp_Energy>  (366) 
9.52235

>  <b_lp_Chiralities_Consistent>  (366) 
1

>  <s_lp_Variant>  (366) 
100:0-1

>  <s_i_glide_gridfile>  (366) 
pfpi4k_grid

>  <i_i_glide_lignum>  (366) 
18

>  <i_i_glide_rotatable_bonds>  (366) 
1

>  <r_i_docking_score>  (366) 
-3.99435

>  <r_i_glide_ligand_efficiency>  (366) 
-0.443816

>  <r_i_glide_ligand_efficiency_sa>  (366) 
-0.923175

>  <r_i_glide_ligand_efficiency_ln>  (366) 
-1.24932

>  <r_i_glide_gscore>  (366) 
-3.99435

>  <r_i_glide_lipo>  (366) 
-0.596706

>  <r_i_glide_hbond>  (366) 
-0.16088

>  <r_i_glide_metal>  (366) 
-0

>  <r_i_glide_rewards>  (366) 
-2.25

>  <r_i_glide_evdw>  (366) 
-13.147

>  <r_i_glide_ecoul>  (366) 
-2.0835

>  <r_i_glide_erotb>  (366) 
0

>  <r_i_glide_esite>  (366) 
-0.0168846

>  <r_i_glide_emodel>  (366) 
-21.4008

>  <r_i_glide_energy>  (366) 
-15.2305

>  <r_i_glide_einternal>  (366) 
0.0662055

>  <r_i_glide_intrahb_reward>  (366) 
-0

>  <i_i_glide_confnum>  (366) 
3

>  <i_i_glide_posenum>  (366) 
14

>  <r_i_glide_eff_state_penalty>  (366) 
0

>  <ligand_id>  (366) 
100

>  <original_smiles>  (366) 
O=C(O)C1CCCCC1

>  <smiles>  (366) 
[H]C1([H])C([H])([H])C([H])([H])C([H])(C(=O)[O-])C([H])([H])C1([H])[H]

$$$$
100:0:2
     RDKit          3D

 20 20  0  0  1  0  0  0  0  0999 V2000
    7.0528   -1.4633   -0.2557 O   0  0  0  0  0  0  0  0  0  0  0  0
    6.5832   -2.6206   -0.3619 C   0  0  0  0  0  0  0  0  0  0  0  0
    7.2997   -3.6510   -0.3897 O   0  0  0  0  0  0  0  0  0  0  0  0
    5.0478   -2.7757   -0.4813 C   0  0  0  0  0  0  0  0  0  0  0  0
    4.6329   -3.8428   -1.5274 C   0  0  0  0  0  0  0  0  0  0  0  0
    4.9066   -3.3718   -2.9669 C   0  0  0  0  0  0  0  0  0  0  0  0
    4.2053   -2.0332   -3.2649 C   0  0  0  0  0  0  0  0  0  0  0  0
    4.5668   -0.9591   -2.2316 C   0  0  0  0  0  0  0  0  0  0  0  0
    4.3107   -1.4411   -0.7956 C   0  0  0  0  0  0  0  0  0  0  0  0
    4.7195   -3.1210    0.5006 H   0  0  0  0  0  0  0  0  0  0  0  0
    5.1055   -4.8043   -1.3408 H   0  0  0  0  0  0  0  0  0  0  0  0
    3.5634   -4.0226   -1.4155 H   0  0  0  0  0  0  0  0  0  0  0  0
    5.9834   -3.2756   -3.1210 H   0  0  0  0  0  0  0  0  0  0  0  0
    4.5729   -4.1393   -3.6679 H   0  0  0  0  0  0  0  0  0  0  0  0
    4.4795   -1.6859   -4.2571 H   0  0  0  0  0  0  0  0  0  0  0  0
    3.1222   -2.1806   -3.2788 H   0  0  0  0  0  0  0  0  0  0  0  0
    5.6158   -0.6994   -2.3217 H   0  0  0  0  0  0  0  0  0  0  0  0
    4.0108   -0.0478   -2.4260 H   0  0  0  0  0  0  0  0  0  0  0  0
    3.2409   -1.5957   -0.6570 H   0  0  0  0  0  0  0  0  0  0  0  0
    4.5669   -0.6638   -0.0701 H   0  0  0  0  0  0  0  0  0  0  0  0
  1  2  2  0
  2  3  1  0
  2  4  1  0
  4  9  1  0
  4  5  1  0
  4 10  1  0
  5  6  1  0
  5 11  1  0
  5 12  1  0
  6  7  1  0
  6 13  1  0
  6 14  1  0
  7  8  1  0
  7 15  1  0
  7 16  1  0
  8  9  1  0
  8 17  1  0
  8 18  1  0
  9 19  1  0
  9 20  1  0
M  CHG  1   3  -1
M  END
>  <i_m_ct_stereo_status>  (367) 
1

>  <s_m_source_file>  (367) 
/var/tmp/pbs.5076255.sched01/tmpnhftudgm/135squ2m_dv.sdf

>  <i_m_source_file_index>  (367) 
18

>  <i_lp_mmshare_version>  (367) 
48012

>  <i_f3d_flags>  (367) 
0

>  <s_epik_input>  (367) 
Tz1DKFtPSF0pW0NIXTFbQ0gyXVtDSDJdW0NIMl1bQ0gyXVtDSDJdMQ==

>  <s_epik_cmdline>  (367) 
J2VwaWtfcHl0aG9uJywgJy1waHQnLCAnMi4wJywgJy1waCcsICc3LjAnLCAnLXRuJywgJzgnLCAnLW1hJywgJzIwMCcsICctaW1hZScsICc8aW5maWxlLm1hZT4nLCAnLW9tYWUnLCAnPG91dGZpbGUubWFlPic=

>  <r_epik_Ionization_Penalty>  (367) 
0.00317138

>  <r_epik_Ionization_Penalty_Charging>  (367) 
0.00317138

>  <r_epik_Ionization_Penalty_Neutral>  (367) 
0

>  <r_epik_State_Penalty>  (367) 
0.00223512

>  <r_epik_Charging_Adjusted_Penalty>  (367) 
0.0054065

>  <i_epik_Tot_Q>  (367) 
-1

>  <i_epik_Tot_abs_Q>  (367) 
1

>  <s_lp_Force_Field>  (367) 
OPLS3e

>  <r_lp_Energy>  (367) 
9.52235

>  <b_lp_Chiralities_Consistent>  (367) 
1

>  <s_lp_Variant>  (367) 
100:0-1

>  <s_i_glide_gridfile>  (367) 
pfpi4k_grid

>  <i_i_glide_lignum>  (367) 
18

>  <i_i_glide_rotatable_bonds>  (367) 
1

>  <r_i_docking_score>  (367) 
-3.6766

>  <r_i_glide_ligand_efficiency>  (367) 
-0.408512

>  <r_i_glide_ligand_efficiency_sa>  (367) 
-0.849738

>  <r_i_glide_ligand_efficiency_ln>  (367) 
-1.14994

>  <r_i_glide_gscore>  (367) 
-3.6766

>  <r_i_glide_lipo>  (367) 
-0.326346

>  <r_i_glide_hbond>  (367) 
-0.146954

>  <r_i_glide_metal>  (367) 
-0

>  <r_i_glide_rewards>  (367) 
-2.25

>  <r_i_glide_evdw>  (367) 
-14.2101

>  <r_i_glide_ecoul>  (367) 
-1.58697

>  <r_i_glide_erotb>  (367) 
0

>  <r_i_glide_esite>  (367) 
-0.00475336

>  <r_i_glide_emodel>  (367) 
-21.4349

>  <r_i_glide_energy>  (367) 
-15.7971

>  <r_i_glide_einternal>  (367) 
0.102454

>  <r_i_glide_intrahb_reward>  (367) 
-0

>  <i_i_glide_confnum>  (367) 
4

>  <i_i_glide_posenum>  (367) 
8

>  <r_i_glide_eff_state_penalty>  (367) 
0

>  <ligand_id>  (367) 
100

>  <original_smiles>  (367) 
O=C(O)C1CCCCC1

>  <smiles>  (367) 
[H]C1([H])C([H])([H])C([H])([H])C([H])(C(=O)[O-])C([H])([H])C1([H])[H]

$$$$
101:0:0
     RDKit          3D

 85 91  0  0  1  0  0  0  0  0999 V2000
   -1.1801   -8.3307    2.4838 C   0  0  0  0  0  0  0  0  0  0  0  0
   -0.0965   -7.9624    3.5221 C   0  0  2  0  0  0  0  0  0  0  0  0
   -0.7424   -7.8964    4.9127 C   0  0  0  0  0  0  0  0  0  0  0  0
    0.2949   -7.6285    6.0105 C   0  0  0  0  0  0  0  0  0  0  0  0
    1.1068   -6.3337    5.7638 C   0  0  2  0  0  0  0  0  0  0  0  0
    0.3200   -5.0006    6.0149 C   0  0  1  0  0  0  0  0  0  0  0  0
   -0.4216   -4.9102    7.3689 C   0  0  0  0  0  0  0  0  0  0  0  0
    0.5233   -4.6175    8.5385 C   0  0  0  0  0  0  0  0  0  0  0  0
    1.2741   -3.2747    8.3709 C   0  0  1  0  0  0  0  0  0  0  0  0
    0.3064   -2.0789    8.4925 C   0  0  0  0  0  0  0  0  0  0  0  0
    2.4328   -3.1109    9.3900 C   0  0  1  0  0  0  0  0  0  0  0  0
    2.1095   -3.4754   10.8449 C   0  0  0  0  0  0  0  0  0  0  0  0
    3.6171   -3.8852    8.8029 C   0  0  0  0  0  0  0  0  0  0  0  0
    3.3812   -3.9599    7.2946 C   0  0  0  0  0  0  0  0  0  0  0  0
    2.0283   -3.2674    7.0247 C   0  0  1  0  0  0  0  0  0  0  0  0
    1.1872   -3.7317    5.7892 C   0  0  1  0  0  0  0  0  0  0  0  0
    1.8853   -3.7642    4.4001 C   0  0  1  0  0  0  0  0  0  0  0  0
    2.7725   -2.5152    4.0789 C   0  0  0  0  0  0  0  0  0  0  0  0
    2.3282   -1.6484    2.9231 N   0  0  0  0  0  0  0  0  0  0  0  0
    2.2639   -2.4561    1.6786 C   0  0  0  0  0  0  0  0  0  0  0  0
    3.3315   -0.5573    2.7446 C   0  0  0  0  0  0  0  0  0  0  0  0
    2.8518    0.5452    1.7684 C   0  0  0  0  0  0  0  0  0  0  0  0
    1.6320    1.0829    2.2444 O   0  0  0  0  0  0  0  0  0  0  0  0
    0.6118    0.1070    2.2792 C   0  0  0  0  0  0  0  0  0  0  0  0
    1.0020   -1.0248    3.2542 C   0  0  0  0  0  0  0  0  0  0  0  0
    2.6451   -5.1017    4.1592 C   0  0  2  0  0  0  0  0  0  0  0  0
    3.2440   -5.0892    2.8582 O   0  0  0  0  0  0  0  0  0  0  0  0
    3.6061   -6.3773    2.4140 C   0  0  2  0  0  0  0  0  0  0  0  0
    4.9680   -6.2551    1.6760 C   0  0  0  0  0  0  0  0  0  0  0  0
    2.5306   -6.8921    1.4320 C   0  0  0  0  0  0  0  0  0  0  0  0
    1.1143   -6.4229    1.7950 C   0  0  0  0  0  0  0  0  0  0  0  0
    0.6483   -6.6271    3.2521 C   0  0  2  0  0  0  0  0  0  0  0  0
    1.7577   -6.3651    4.3347 C   0  0  2  0  0  0  0  0  0  0  0  0
    2.5946   -7.5115    4.3076 O   0  0  0  0  0  0  0  0  0  0  0  0
    3.8660   -7.2783    3.4646 O   0  0  0  0  0  0  0  0  0  0  0  0
   -1.8742   -7.5095    2.3198 H   0  0  0  0  0  0  0  0  0  0  0  0
   -1.7610   -9.1934    2.8246 H   0  0  0  0  0  0  0  0  0  0  0  0
   -0.7409   -8.6183    1.5388 H   0  0  0  0  0  0  0  0  0  0  0  0
    0.6187   -8.7850    3.5206 H   0  0  0  0  0  0  0  0  0  0  0  0
   -1.5170   -7.1275    4.9257 H   0  0  0  0  0  0  0  0  0  0  0  0
   -1.2472   -8.8424    5.1385 H   0  0  0  0  0  0  0  0  0  0  0  0
   -0.1646   -7.6363    6.9855 H   0  0  0  0  0  0  0  0  0  0  0  0
    0.9894   -8.4754    6.0239 H   0  0  0  0  0  0  0  0  0  0  0  0
    1.9099   -6.3785    6.4939 H   0  0  0  0  0  0  0  0  0  0  0  0
   -0.4769   -4.9726    5.2777 H   0  0  0  0  0  0  0  0  0  0  0  0
   -1.1649   -4.1087    7.2956 H   0  0  0  0  0  0  0  0  0  0  0  0
   -1.0092   -5.7962    7.5695 H   0  0  0  0  0  0  0  0  0  0  0  0
   -0.0455   -4.6198    9.4620 H   0  0  0  0  0  0  0  0  0  0  0  0
    1.2425   -5.4423    8.6179 H   0  0  0  0  0  0  0  0  0  0  0  0
    0.8285   -1.1270    8.4689 H   0  0  0  0  0  0  0  0  0  0  0  0
   -0.2446   -2.1200    9.4368 H   0  0  0  0  0  0  0  0  0  0  0  0
   -0.4215   -2.0524    7.6793 H   0  0  0  0  0  0  0  0  0  0  0  0
    2.7240   -2.0585    9.3781 H   0  0  0  0  0  0  0  0  0  0  0  0
    1.8745   -4.5327   10.9614 H   0  0  0  0  0  0  0  0  0  0  0  0
    1.2609   -2.8988   11.2184 H   0  0  0  0  0  0  0  0  0  0  0  0
    2.9608   -3.2579   11.4916 H   0  0  0  0  0  0  0  0  0  0  0  0
    4.5671   -3.3968    9.0413 H   0  0  0  0  0  0  0  0  0  0  0  0
    3.6573   -4.8954    9.2160 H   0  0  0  0  0  0  0  0  0  0  0  0
    4.1819   -3.4885    6.7309 H   0  0  0  0  0  0  0  0  0  0  0  0
    3.3766   -5.0145    7.0186 H   0  0  0  0  0  0  0  0  0  0  0  0
    2.2817   -2.2171    6.8877 H   0  0  0  0  0  0  0  0  0  0  0  0
    0.4513   -2.9232    5.6895 H   0  0  0  0  0  0  0  0  0  0  0  0
    1.0438   -3.7895    3.7168 H   0  0  0  0  0  0  0  0  0  0  0  0
    2.8776   -1.8720    4.9432 H   0  0  0  0  0  0  0  0  0  0  0  0
    3.7988   -2.8419    3.9009 H   0  0  0  0  0  0  0  0  0  0  0  0
    1.9937   -1.8729    0.8036 H   0  0  0  0  0  0  0  0  0  0  0  0
    1.5490   -3.2585    1.7337 H   0  0  0  0  0  0  0  0  0  0  0  0
    3.2344   -2.9077    1.4431 H   0  0  0  0  0  0  0  0  0  0  0  0
    3.5548   -0.0772    3.6951 H   0  0  0  0  0  0  0  0  0  0  0  0
    4.2745   -0.9684    2.3838 H   0  0  0  0  0  0  0  0  0  0  0  0
    3.5807    1.3403    1.7155 H   0  0  0  0  0  0  0  0  0  0  0  0
    2.7391    0.1659    0.7490 H   0  0  0  0  0  0  0  0  0  0  0  0
   -0.3158    0.5810    2.6169 H   0  0  0  0  0  0  0  0  0  0  0  0
    0.4087   -0.2773    1.2894 H   0  0  0  0  0  0  0  0  0  0  0  0
    0.2121   -1.7620    3.2831 H   0  0  0  0  0  0  0  0  0  0  0  0
    1.0504   -0.5890    4.2617 H   0  0  0  0  0  0  0  0  0  0  0  0
    3.4797   -5.1639    4.8470 H   0  0  0  0  0  0  0  0  0  0  0  0
    5.7436   -5.9413    2.3817 H   0  0  0  0  0  0  0  0  0  0  0  0
    4.9357   -5.5228    0.8706 H   0  0  0  0  0  0  0  0  0  0  0  0
    5.2775   -7.2076    1.2498 H   0  0  0  0  0  0  0  0  0  0  0  0
    2.7318   -6.4867    0.4460 H   0  0  0  0  0  0  0  0  0  0  0  0
    2.5689   -7.9814    1.3238 H   0  0  0  0  0  0  0  0  0  0  0  0
    1.0916   -5.3554    1.6078 H   0  0  0  0  0  0  0  0  0  0  0  0
    0.4038   -6.8204    1.0733 H   0  0  0  0  0  0  0  0  0  0  0  0
   -0.1107   -5.8533    3.3684 H   0  0  0  0  0  0  0  0  0  0  0  0
  1  2  1  0
  1 36  1  0
  1 37  1  0
  1 38  1  0
  2 32  1  0
  2  3  1  0
  2 39  1  1
  3  4  1  0
  3 40  1  0
  3 41  1  0
  4  5  1  0
  4 42  1  0
  4 43  1  0
  5 33  1  0
  5  6  1  0
  5 44  1  1
  6 16  1  0
  6  7  1  0
  6 45  1  6
  7  8  1  0
  7 46  1  0
  7 47  1  0
  8  9  1  0
  8 48  1  0
  8 49  1  0
  9 15  1  0
  9 10  1  6
  9 11  1  0
 10 50  1  0
 10 51  1  0
 10 52  1  0
 11 12  1  0
 11 13  1  0
 11 53  1  1
 12 54  1  0
 12 55  1  0
 12 56  1  0
 13 14  1  0
 13 57  1  0
 13 58  1  0
 14 15  1  0
 14 59  1  0
 14 60  1  0
 15 16  1  0
 15 61  1  6
 16 17  1  0
 16 62  1  6
 17 18  1  0
 17 26  1  0
 17 63  1  6
 18 19  1  0
 18 64  1  0
 18 65  1  0
 19 25  1  0
 19 20  1  0
 19 21  1  0
 20 66  1  0
 20 67  1  0
 20 68  1  0
 21 22  1  0
 21 69  1  0
 21 70  1  0
 22 23  1  0
 22 71  1  0
 22 72  1  0
 23 24  1  0
 24 25  1  0
 24 73  1  0
 24 74  1  0
 25 75  1  0
 25 76  1  0
 26 33  1  0
 26 27  1  0
 26 77  1  1
 27 28  1  0
 28 35  1  0
 28 29  1  6
 28 30  1  0
 29 78  1  0
 29 79  1  0
 29 80  1  0
 30 31  1  0
 30 81  1  0
 30 82  1  0
 31 32  1  0
 31 83  1  0
 31 84  1  0
 32 33  1  0
 32 85  1  1
 33 34  1  1
 34 35  1  0
M  CHG  1  19   1
M  END
>  <i_m_ct_stereo_status>  (368) 
1

>  <s_m_source_file>  (368) 
/var/tmp/pbs.5076255.sched01/tmpnhftudgm/135squ2m_dv.sdf

>  <i_m_source_file_index>  (368) 
19

>  <i_lp_mmshare_version>  (368) 
48012

>  <i_f3d_flags>  (368) 
0

>  <s_epik_input>  (368) 
W0NIMl0xW0NIMl1bQ0BASF0oW0NIM10pW0NAQEhdMltDSDJdW0NIMl1bQ0BdKFtDSDNdKShPTzMpT1tDQEhdNFtDQEBIXShbQ0BASF0oW0NASF01W0NAQEhdMVtDQF0yMzQpW0NASF02W0NAQF0oW0NIM10pKFtDSDJdW0NIMl01KVtDQEBIXShbQ0gzXSlbQ0gyXVtDSDJdNilbQ0gyXVtOK103KFtDSDNdKVtDSDJdW0NIMl1PW0NIMl1bQ0gyXTc=

>  <s_epik_cmdline>  (368) 
J2VwaWtfcHl0aG9uJywgJy1waHQnLCAnMi4wJywgJy1waCcsICc3LjAnLCAnLXRuJywgJzgnLCAnLW1hJywgJzIwMCcsICctaW1hZScsICc8aW5maWxlLm1hZT4nLCAnLW9tYWUnLCAnPG91dGZpbGUubWFlPic=

>  <r_lp_tautomer_probability>  (368) 
1

>  <r_epik_Ionization_Penalty>  (368) 
4.99921e-15

>  <r_epik_Ionization_Penalty_Charging>  (368) 
0

>  <r_epik_Ionization_Penalty_Neutral>  (368) 
4.99921e-15

>  <r_epik_State_Penalty>  (368) 
-0

>  <r_epik_Charging_Adjusted_Penalty>  (368) 
0

>  <i_epik_Tot_Q>  (368) 
1

>  <i_epik_Tot_abs_Q>  (368) 
1

>  <s_lp_Force_Field>  (368) 
OPLS3e

>  <r_lp_Energy>  (368) 
75.7602

>  <b_lp_Chiralities_Consistent>  (368) 
1

>  <s_lp_Variant>  (368) 
101:0-1

>  <s_i_glide_gridfile>  (368) 
pfpi4k_grid

>  <i_i_glide_lignum>  (368) 
19

>  <i_i_glide_rotatable_bonds>  (368) 
2

>  <r_i_docking_score>  (368) 
-1.53687

>  <r_i_glide_ligand_efficiency>  (368) 
-0.0439107

>  <r_i_glide_ligand_efficiency_sa>  (368) 
-0.143635

>  <r_i_glide_ligand_efficiency_ln>  (368) 
-0.337378

>  <r_i_glide_gscore>  (368) 
-1.53687

>  <r_i_glide_lipo>  (368) 
-0.141923

>  <r_i_glide_hbond>  (368) 
0

>  <r_i_glide_metal>  (368) 
-0

>  <r_i_glide_rewards>  (368) 
-0.0768934

>  <r_i_glide_evdw>  (368) 
-19.3336

>  <r_i_glide_ecoul>  (368) 
-3.42785

>  <r_i_glide_erotb>  (368) 
0.170303

>  <r_i_glide_esite>  (368) 
-0.00750353

>  <r_i_glide_emodel>  (368) 
-24.5664

>  <r_i_glide_energy>  (368) 
-22.7614

>  <r_i_glide_einternal>  (368) 
0.617628

>  <r_i_glide_intrahb_reward>  (368) 
-0

>  <i_i_glide_confnum>  (368) 
1

>  <i_i_glide_posenum>  (368) 
3

>  <r_i_glide_eff_state_penalty>  (368) 
0

>  <ligand_id>  (368) 
101

>  <original_smiles>  (368) 
CC1CCC2C3CCC4(C)C(C)CCC4C3C(C[N+]3(C)CCOCC3)C3OC4(C)CCC1C23OO4

>  <smiles>  (368) 
[H]C([H])([H])C12OOC34C([H])(O1)C([H])(C([H])([H])[N+]1(C([H])([H])[H])C([H])([H])C([H])([H])OC([H])([H])C1([H])[H])C1([H])C([H])(C([H])([H])C([H])([H])C5(C([H])([H])[H])C([H])(C([H])([H])[H])C([H])([H])C([H])([H])C15[H])C3([H])C([H])([H])C([H])([H])C([H])(C([H])([H])[H])C4([H])C([H])([H])C2([H])[H]

$$$$
101:0:1
     RDKit          3D

 85 91  0  0  1  0  0  0  0  0999 V2000
    0.3766   -6.6920    8.4140 C   0  0  0  0  0  0  0  0  0  0  0  0
    1.2499   -7.7225    7.6749 C   0  0  2  0  0  0  0  0  0  0  0  0
    2.6113   -7.8360    8.3945 C   0  0  0  0  0  0  0  0  0  0  0  0
    3.4868   -8.9206    7.7693 C   0  0  0  0  0  0  0  0  0  0  0  0
    3.7253   -8.7149    6.2684 C   0  0  2  0  0  0  0  0  0  0  0  0
    4.6924   -7.5370    5.9227 C   0  0  1  0  0  0  0  0  0  0  0  0
    6.0503   -7.5223    6.6561 C   0  0  0  0  0  0  0  0  0  0  0  0
    7.0421   -8.5467    6.0951 C   0  0  0  0  0  0  0  0  0  0  0  0
    7.3792   -8.2895    4.6063 C   0  0  1  0  0  0  0  0  0  0  0  0
    8.2038   -6.9874    4.4305 C   0  0  0  0  0  0  0  0  0  0  0  0
    8.1319   -9.4637    3.9467 C   0  0  1  0  0  0  0  0  0  0  0  0
    9.2944  -10.0626    4.7575 C   0  0  0  0  0  0  0  0  0  0  0  0
    7.0655  -10.4977    3.5551 C   0  0  0  0  0  0  0  0  0  0  0  0
    5.7520   -9.7392    3.4260 C   0  0  0  0  0  0  0  0  0  0  0  0
    6.0654   -8.2739    3.7884 C   0  0  1  0  0  0  0  0  0  0  0  0
    4.9314   -7.3601    4.3965 C   0  0  1  0  0  0  0  0  0  0  0  0
    3.5841   -7.2711    3.6030 C   0  0  1  0  0  0  0  0  0  0  0  0
    3.7424   -7.0878    2.0546 C   0  0  0  0  0  0  0  0  0  0  0  0
    4.0321   -5.6928    1.5471 N   0  0  0  0  0  0  0  0  0  0  0  0
    2.9916   -4.7215    2.0541 C   0  0  0  0  0  0  0  0  0  0  0  0
    4.0120   -5.7142    0.0458 C   0  0  0  0  0  0  0  0  0  0  0  0
    4.5750   -4.4314   -0.6054 C   0  0  0  0  0  0  0  0  0  0  0  0
    5.8931   -4.1890   -0.1470 O   0  0  0  0  0  0  0  0  0  0  0  0
    5.9180   -3.9936    1.2599 C   0  0  0  0  0  0  0  0  0  0  0  0
    5.4004   -5.2477    1.9876 C   0  0  0  0  0  0  0  0  0  0  0  0
    2.6355   -8.4559    3.9690 C   0  0  2  0  0  0  0  0  0  0  0  0
    1.3933   -8.2846    3.2657 O   0  0  0  0  0  0  0  0  0  0  0  0
    0.3403   -9.0734    3.8104 C   0  0  2  0  0  0  0  0  0  0  0  0
   -0.4731   -9.6588    2.6480 C   0  0  0  0  0  0  0  0  0  0  0  0
   -0.5406   -8.1336    4.6725 C   0  0  0  0  0  0  0  0  0  0  0  0
    0.2469   -7.0039    5.3510 C   0  0  0  0  0  0  0  0  0  0  0  0
    1.5006   -7.4237    6.1611 C   0  0  2  0  0  0  0  0  0  0  0  0
    2.3656   -8.5734    5.5074 C   0  0  2  0  0  0  0  0  0  0  0  0
    1.5955   -9.7456    5.7457 O   0  0  0  0  0  0  0  0  0  0  0  0
    0.8635  -10.1900    4.5187 O   0  0  0  0  0  0  0  0  0  0  0  0
    0.7334   -5.6774    8.2552 H   0  0  0  0  0  0  0  0  0  0  0  0
    0.3779   -6.8858    9.4852 H   0  0  0  0  0  0  0  0  0  0  0  0
   -0.6548   -6.7461    8.0865 H   0  0  0  0  0  0  0  0  0  0  0  0
    0.7461   -8.6892    7.7720 H   0  0  0  0  0  0  0  0  0  0  0  0
    3.1251   -6.8734    8.3701 H   0  0  0  0  0  0  0  0  0  0  0  0
    2.4606   -8.0755    9.4480 H   0  0  0  0  0  0  0  0  0  0  0  0
    4.4219   -9.0030    8.3038 H   0  0  0  0  0  0  0  0  0  0  0  0
    2.9957   -9.8785    7.9072 H   0  0  0  0  0  0  0  0  0  0  0  0
    4.1940   -9.6247    5.9240 H   0  0  0  0  0  0  0  0  0  0  0  0
    4.2016   -6.6244    6.2538 H   0  0  0  0  0  0  0  0  0  0  0  0
    6.4802   -6.5286    6.5550 H   0  0  0  0  0  0  0  0  0  0  0  0
    5.9398   -7.6539    7.7264 H   0  0  0  0  0  0  0  0  0  0  0  0
    7.9554   -8.5272    6.6880 H   0  0  0  0  0  0  0  0  0  0  0  0
    6.6135   -9.5440    6.2062 H   0  0  0  0  0  0  0  0  0  0  0  0
    8.5294   -6.8413    3.3999 H   0  0  0  0  0  0  0  0  0  0  0  0
    9.1020   -7.0092    5.0487 H   0  0  0  0  0  0  0  0  0  0  0  0
    7.6465   -6.0925    4.7046 H   0  0  0  0  0  0  0  0  0  0  0  0
    8.5527   -9.0744    3.0173 H   0  0  0  0  0  0  0  0  0  0  0  0
    8.9505  -10.5134    5.6902 H   0  0  0  0  0  0  0  0  0  0  0  0
   10.0350   -9.2992    5.0029 H   0  0  0  0  0  0  0  0  0  0  0  0
    9.8016  -10.8437    4.1886 H   0  0  0  0  0  0  0  0  0  0  0  0
    7.3286  -11.0176    2.6356 H   0  0  0  0  0  0  0  0  0  0  0  0
    6.9553  -11.2455    4.3378 H   0  0  0  0  0  0  0  0  0  0  0  0
    5.3432   -9.8060    2.4215 H   0  0  0  0  0  0  0  0  0  0  0  0
    5.0323  -10.1845    4.0980 H   0  0  0  0  0  0  0  0  0  0  0  0
    6.3497   -7.8342    2.8378 H   0  0  0  0  0  0  0  0  0  0  0  0
    5.3603   -6.3685    4.3531 H   0  0  0  0  0  0  0  0  0  0  0  0
    3.0635   -6.3899    3.9611 H   0  0  0  0  0  0  0  0  0  0  0  0
    4.4375   -7.8331    1.6604 H   0  0  0  0  0  0  0  0  0  0  0  0
    2.8129   -7.4013    1.5845 H   0  0  0  0  0  0  0  0  0  0  0  0
    3.1033   -3.7102    1.6430 H   0  0  0  0  0  0  0  0  0  0  0  0
    2.9842   -4.6563    3.1484 H   0  0  0  0  0  0  0  0  0  0  0  0
    1.9922   -5.0399    1.7540 H   0  0  0  0  0  0  0  0  0  0  0  0
    4.5972   -6.5599   -0.3219 H   0  0  0  0  0  0  0  0  0  0  0  0
    2.9987   -5.8793   -0.3172 H   0  0  0  0  0  0  0  0  0  0  0  0
    4.6105   -4.5346   -1.6856 H   0  0  0  0  0  0  0  0  0  0  0  0
    3.9485   -3.5657   -0.3945 H   0  0  0  0  0  0  0  0  0  0  0  0
    6.9487   -3.8242    1.5779 H   0  0  0  0  0  0  0  0  0  0  0  0
    5.3467   -3.1137    1.5516 H   0  0  0  0  0  0  0  0  0  0  0  0
    5.4263   -5.0468    3.0616 H   0  0  0  0  0  0  0  0  0  0  0  0
    6.1281   -6.0338    1.7542 H   0  0  0  0  0  0  0  0  0  0  0  0
    3.0504   -9.4075    3.6011 H   0  0  0  0  0  0  0  0  0  0  0  0
    0.1460  -10.3558    2.0975 H   0  0  0  0  0  0  0  0  0  0  0  0
   -0.8256   -8.8953    1.9579 H   0  0  0  0  0  0  0  0  0  0  0  0
   -1.3362  -10.2028    3.0123 H   0  0  0  0  0  0  0  0  0  0  0  0
   -1.2667   -7.6429    4.0231 H   0  0  0  0  0  0  0  0  0  0  0  0
   -1.1323   -8.7120    5.3806 H   0  0  0  0  0  0  0  0  0  0  0  0
    0.5829   -6.3222    4.5709 H   0  0  0  0  0  0  0  0  0  0  0  0
   -0.4304   -6.3965    5.9439 H   0  0  0  0  0  0  0  0  0  0  0  0
    2.0860   -6.5024    6.1623 H   0  0  0  0  0  0  0  0  0  0  0  0
  1  2  1  0
  1 36  1  0
  1 37  1  0
  1 38  1  0
  2 32  1  0
  2  3  1  0
  2 39  1  6
  3  4  1  0
  3 40  1  0
  3 41  1  0
  4  5  1  0
  4 42  1  0
  4 43  1  0
  5 33  1  0
  5  6  1  0
  5 44  1  6
  6 16  1  0
  6  7  1  0
  6 45  1  1
  7  8  1  0
  7 46  1  0
  7 47  1  0
  8  9  1  0
  8 48  1  0
  8 49  1  0
  9 15  1  0
  9 10  1  1
  9 11  1  0
 10 50  1  0
 10 51  1  0
 10 52  1  0
 11 12  1  0
 11 13  1  0
 11 53  1  6
 12 54  1  0
 12 55  1  0
 12 56  1  0
 13 14  1  0
 13 57  1  0
 13 58  1  0
 14 15  1  0
 14 59  1  0
 14 60  1  0
 15 16  1  0
 15 61  1  6
 16 17  1  0
 16 62  1  1
 17 18  1  0
 17 26  1  0
 17 63  1  1
 18 19  1  0
 18 64  1  0
 18 65  1  0
 19 25  1  0
 19 20  1  0
 19 21  1  0
 20 66  1  0
 20 67  1  0
 20 68  1  0
 21 22  1  0
 21 69  1  0
 21 70  1  0
 22 23  1  0
 22 71  1  0
 22 72  1  0
 23 24  1  0
 24 25  1  0
 24 73  1  0
 24 74  1  0
 25 75  1  0
 25 76  1  0
 26 33  1  0
 26 27  1  0
 26 77  1  6
 27 28  1  0
 28 35  1  0
 28 29  1  6
 28 30  1  0
 29 78  1  0
 29 79  1  0
 29 80  1  0
 30 31  1  0
 30 81  1  0
 30 82  1  0
 31 32  1  0
 31 83  1  0
 31 84  1  0
 32 33  1  0
 32 85  1  1
 33 34  1  6
 34 35  1  0
M  CHG  1  19   1
M  END
>  <i_m_ct_stereo_status>  (369) 
1

>  <s_m_source_file>  (369) 
/var/tmp/pbs.5076255.sched01/tmpnhftudgm/135squ2m_dv.sdf

>  <i_m_source_file_index>  (369) 
19

>  <i_lp_mmshare_version>  (369) 
48012

>  <i_f3d_flags>  (369) 
0

>  <s_epik_input>  (369) 
W0NIMl0xW0NIMl1bQ0BASF0oW0NIM10pW0NAQEhdMltDSDJdW0NIMl1bQ0BdKFtDSDNdKShPTzMpT1tDQEhdNFtDQEBIXShbQ0BASF0oW0NASF01W0NAQEhdMVtDQF0yMzQpW0NASF02W0NAQF0oW0NIM10pKFtDSDJdW0NIMl01KVtDQEBIXShbQ0gzXSlbQ0gyXVtDSDJdNilbQ0gyXVtOK103KFtDSDNdKVtDSDJdW0NIMl1PW0NIMl1bQ0gyXTc=

>  <s_epik_cmdline>  (369) 
J2VwaWtfcHl0aG9uJywgJy1waHQnLCAnMi4wJywgJy1waCcsICc3LjAnLCAnLXRuJywgJzgnLCAnLW1hJywgJzIwMCcsICctaW1hZScsICc8aW5maWxlLm1hZT4nLCAnLW9tYWUnLCAnPG91dGZpbGUubWFlPic=

>  <r_lp_tautomer_probability>  (369) 
1

>  <r_epik_Ionization_Penalty>  (369) 
4.99921e-15

>  <r_epik_Ionization_Penalty_Charging>  (369) 
0

>  <r_epik_Ionization_Penalty_Neutral>  (369) 
4.99921e-15

>  <r_epik_State_Penalty>  (369) 
-0

>  <r_epik_Charging_Adjusted_Penalty>  (369) 
0

>  <i_epik_Tot_Q>  (369) 
1

>  <i_epik_Tot_abs_Q>  (369) 
1

>  <s_lp_Force_Field>  (369) 
OPLS3e

>  <r_lp_Energy>  (369) 
75.7602

>  <b_lp_Chiralities_Consistent>  (369) 
1

>  <s_lp_Variant>  (369) 
101:0-1

>  <s_i_glide_gridfile>  (369) 
pfpi4k_grid

>  <i_i_glide_lignum>  (369) 
19

>  <i_i_glide_rotatable_bonds>  (369) 
2

>  <r_i_docking_score>  (369) 
-1.48275

>  <r_i_glide_ligand_efficiency>  (369) 
-0.0423642

>  <r_i_glide_ligand_efficiency_sa>  (369) 
-0.138576

>  <r_i_glide_ligand_efficiency_ln>  (369) 
-0.325496

>  <r_i_glide_gscore>  (369) 
-1.48275

>  <r_i_glide_lipo>  (369) 
-0.215352

>  <r_i_glide_hbond>  (369) 
0

>  <r_i_glide_metal>  (369) 
-0

>  <r_i_glide_rewards>  (369) 
-0.0768934

>  <r_i_glide_evdw>  (369) 
-20.1198

>  <r_i_glide_ecoul>  (369) 
-2.12492

>  <r_i_glide_erotb>  (369) 
0.170303

>  <r_i_glide_esite>  (369) 
-0.0360802

>  <r_i_glide_emodel>  (369) 
-23.4177

>  <r_i_glide_energy>  (369) 
-22.2447

>  <r_i_glide_einternal>  (369) 
0.243506

>  <r_i_glide_intrahb_reward>  (369) 
-0

>  <i_i_glide_confnum>  (369) 
1

>  <i_i_glide_posenum>  (369) 
19

>  <r_i_glide_eff_state_penalty>  (369) 
0

>  <ligand_id>  (369) 
101

>  <original_smiles>  (369) 
CC1CCC2C3CCC4(C)C(C)CCC4C3C(C[N+]3(C)CCOCC3)C3OC4(C)CCC1C23OO4

>  <smiles>  (369) 
[H]C([H])([H])C12OOC34C([H])(O1)C([H])(C([H])([H])[N+]1(C([H])([H])[H])C([H])([H])C([H])([H])OC([H])([H])C1([H])[H])C1([H])C([H])(C([H])([H])C([H])([H])C5(C([H])([H])[H])C([H])(C([H])([H])[H])C([H])([H])C([H])([H])C15[H])C3([H])C([H])([H])C([H])([H])C([H])(C([H])([H])[H])C4([H])C([H])([H])C2([H])[H]

$$$$
101:0:2
     RDKit          3D

 85 91  0  0  1  0  0  0  0  0999 V2000
    0.6449   -6.4484    8.4069 C   0  0  0  0  0  0  0  0  0  0  0  0
    1.1457   -7.6145    7.5343 C   0  0  2  0  0  0  0  0  0  0  0  0
    2.3964   -8.2394    8.1899 C   0  0  0  0  0  0  0  0  0  0  0  0
    2.8797   -9.4697    7.4231 C   0  0  0  0  0  0  0  0  0  0  0  0
    3.1775   -9.1854    5.9455 C   0  0  2  0  0  0  0  0  0  0  0  0
    4.4760   -8.3547    5.6893 C   0  0  1  0  0  0  0  0  0  0  0  0
    5.7600   -8.8632    6.3742 C   0  0  0  0  0  0  0  0  0  0  0  0
    6.3596  -10.0852    5.6717 C   0  0  0  0  0  0  0  0  0  0  0  0
    6.7712   -9.7885    4.2074 C   0  0  1  0  0  0  0  0  0  0  0  0
    7.9769   -8.8160    4.1490 C   0  0  0  0  0  0  0  0  0  0  0  0
    7.0932  -11.0693    3.4052 C   0  0  1  0  0  0  0  0  0  0  0  0
    7.9977  -12.0946    4.1098 C   0  0  0  0  0  0  0  0  0  0  0  0
    5.7456  -11.6427    2.9489 C   0  0  0  0  0  0  0  0  0  0  0  0
    4.7650  -10.4802    2.9362 C   0  0  0  0  0  0  0  0  0  0  0  0
    5.5425   -9.2452    3.4376 C   0  0  1  0  0  0  0  0  0  0  0  0
    4.7615   -8.0954    4.1784 C   0  0  1  0  0  0  0  0  0  0  0  0
    3.5149   -7.4883    3.4529 C   0  0  1  0  0  0  0  0  0  0  0  0
    3.7115   -7.1984    1.9298 C   0  0  0  0  0  0  0  0  0  0  0  0
    4.2916   -5.8483    1.5635 N   0  0  0  0  0  0  0  0  0  0  0  0
    3.4630   -4.7359    2.1549 C   0  0  0  0  0  0  0  0  0  0  0  0
    4.3146   -5.7319    0.0757 C   0  0  0  0  0  0  0  0  0  0  0  0
    5.1364   -4.5284   -0.4424 C   0  0  0  0  0  0  0  0  0  0  0  0
    6.4628   -4.6066    0.0570 O   0  0  0  0  0  0  0  0  0  0  0  0
    6.4947   -4.5667    1.4708 C   0  0  0  0  0  0  0  0  0  0  0  0
    5.7102   -5.7575    2.0637 C   0  0  0  0  0  0  0  0  0  0  0  0
    2.2346   -8.3335    3.7227 C   0  0  2  0  0  0  0  0  0  0  0  0
    1.1144   -7.6902    3.0862 O   0  0  0  0  0  0  0  0  0  0  0  0
   -0.1356   -8.1529    3.5770 C   0  0  2  0  0  0  0  0  0  0  0  0
   -1.1008   -8.3119    2.3925 C   0  0  0  0  0  0  0  0  0  0  0  0
   -0.6603   -7.0842    4.5666 C   0  0  0  0  0  0  0  0  0  0  0  0
    0.4476   -6.3527    5.3356 C   0  0  0  0  0  0  0  0  0  0  0  0
    1.4900   -7.2437    6.0542 C   0  0  2  0  0  0  0  0  0  0  0  0
    1.9389   -8.5290    5.2536 C   0  0  2  0  0  0  0  0  0  0  0  0
    0.8219   -9.4058    5.3905 O   0  0  0  0  0  0  0  0  0  0  0  0
   -0.0007   -9.4511    4.1366 O   0  0  0  0  0  0  0  0  0  0  0  0
    1.3108   -5.5919    8.3441 H   0  0  0  0  0  0  0  0  0  0  0  0
    0.5899   -6.7495    9.4517 H   0  0  0  0  0  0  0  0  0  0  0  0
   -0.3548   -6.1368    8.1190 H   0  0  0  0  0  0  0  0  0  0  0  0
    0.3576   -8.3720    7.5444 H   0  0  0  0  0  0  0  0  0  0  0  0
    3.1946   -7.4984    8.2543 H   0  0  0  0  0  0  0  0  0  0  0  0
    2.1740   -8.5385    9.2154 H   0  0  0  0  0  0  0  0  0  0  0  0
    3.7328   -9.9144    7.9135 H   0  0  0  0  0  0  0  0  0  0  0  0
    2.1064  -10.2289    7.4692 H   0  0  0  0  0  0  0  0  0  0  0  0
    3.3221  -10.1548    5.4899 H   0  0  0  0  0  0  0  0  0  0  0  0
    4.3126   -7.3742    6.1275 H   0  0  0  0  0  0  0  0  0  0  0  0
    6.4920   -8.0603    6.3710 H   0  0  0  0  0  0  0  0  0  0  0  0
    5.6019   -9.0744    7.4246 H   0  0  0  0  0  0  0  0  0  0  0  0
    7.2251  -10.4318    6.2346 H   0  0  0  0  0  0  0  0  0  0  0  0
    5.6279  -10.8946    5.6928 H   0  0  0  0  0  0  0  0  0  0  0  0
    8.3345   -8.6640    3.1302 H   0  0  0  0  0  0  0  0  0  0  0  0
    8.8139   -9.1993    4.7335 H   0  0  0  0  0  0  0  0  0  0  0  0
    7.7372   -7.8275    4.5397 H   0  0  0  0  0  0  0  0  0  0  0  0
    7.6057  -10.7610    2.4940 H   0  0  0  0  0  0  0  0  0  0  0  0
    7.5236  -12.5127    4.9999 H   0  0  0  0  0  0  0  0  0  0  0  0
    8.9443  -11.6429    4.4122 H   0  0  0  0  0  0  0  0  0  0  0  0
    8.2288  -12.9265    3.4424 H   0  0  0  0  0  0  0  0  0  0  0  0
    5.8153  -12.1150    1.9715 H   0  0  0  0  0  0  0  0  0  0  0  0
    5.3924  -12.3951    3.6509 H   0  0  0  0  0  0  0  0  0  0  0  0
    4.3548  -10.2931    1.9481 H   0  0  0  0  0  0  0  0  0  0  0  0
    3.9418  -10.7342    3.5862 H   0  0  0  0  0  0  0  0  0  0  0  0
    5.9674   -8.7975    2.5404 H   0  0  0  0  0  0  0  0  0  0  0  0
    5.4916   -7.2919    4.2127 H   0  0  0  0  0  0  0  0  0  0  0  0
    3.3152   -6.5304    3.9264 H   0  0  0  0  0  0  0  0  0  0  0  0
    4.2424   -8.0219    1.4474 H   0  0  0  0  0  0  0  0  0  0  0  0
    2.7472   -7.2636    1.4319 H   0  0  0  0  0  0  0  0  0  0  0  0
    3.7890   -3.7413    1.8352 H   0  0  0  0  0  0  0  0  0  0  0  0
    3.4379   -4.7658    3.2539 H   0  0  0  0  0  0  0  0  0  0  0  0
    2.4326   -4.8128    1.8127 H   0  0  0  0  0  0  0  0  0  0  0  0
    4.7282   -6.6377   -0.3771 H   0  0  0  0  0  0  0  0  0  0  0  0
    3.2946   -5.6560   -0.3106 H   0  0  0  0  0  0  0  0  0  0  0  0
    5.1696   -4.5354   -1.5289 H   0  0  0  0  0  0  0  0  0  0  0  0
    4.6887   -3.5769   -0.1578 H   0  0  0  0  0  0  0  0  0  0  0  0
    7.5344   -4.6331    1.7999 H   0  0  0  0  0  0  0  0  0  0  0  0
    6.1061   -3.6212    1.8427 H   0  0  0  0  0  0  0  0  0  0  0  0
    5.7376   -5.6766    3.1533 H   0  0  0  0  0  0  0  0  0  0  0  0
    6.2586   -6.6694    1.7889 H   0  0  0  0  0  0  0  0  0  0  0  0
    2.3117   -9.3237    3.2466 H   0  0  0  0  0  0  0  0  0  0  0  0
   -0.7451   -9.0980    1.7391 H   0  0  0  0  0  0  0  0  0  0  0  0
   -1.1826   -7.4021    1.8041 H   0  0  0  0  0  0  0  0  0  0  0  0
   -2.0929   -8.5923    2.7332 H   0  0  0  0  0  0  0  0  0  0  0  0
   -1.1911   -6.3124    4.0076 H   0  0  0  0  0  0  0  0  0  0  0  0
   -1.3956   -7.5202    5.2381 H   0  0  0  0  0  0  0  0  0  0  0  0
    0.9876   -5.7298    4.6221 H   0  0  0  0  0  0  0  0  0  0  0  0
   -0.0028   -5.6320    6.0139 H   0  0  0  0  0  0  0  0  0  0  0  0
    2.3433   -6.5693    6.1354 H   0  0  0  0  0  0  0  0  0  0  0  0
  1  2  1  0
  1 36  1  0
  1 37  1  0
  1 38  1  0
  2 32  1  0
  2  3  1  0
  2 39  1  6
  3  4  1  0
  3 40  1  0
  3 41  1  0
  4  5  1  0
  4 42  1  0
  4 43  1  0
  5 33  1  0
  5  6  1  0
  5 44  1  6
  6 16  1  0
  6  7  1  0
  6 45  1  1
  7  8  1  0
  7 46  1  0
  7 47  1  0
  8  9  1  0
  8 48  1  0
  8 49  1  0
  9 15  1  0
  9 10  1  1
  9 11  1  0
 10 50  1  0
 10 51  1  0
 10 52  1  0
 11 12  1  0
 11 13  1  0
 11 53  1  6
 12 54  1  0
 12 55  1  0
 12 56  1  0
 13 14  1  0
 13 57  1  0
 13 58  1  0
 14 15  1  0
 14 59  1  0
 14 60  1  0
 15 16  1  0
 15 61  1  6
 16 17  1  0
 16 62  1  1
 17 18  1  0
 17 26  1  0
 17 63  1  1
 18 19  1  0
 18 64  1  0
 18 65  1  0
 19 25  1  0
 19 20  1  0
 19 21  1  0
 20 66  1  0
 20 67  1  0
 20 68  1  0
 21 22  1  0
 21 69  1  0
 21 70  1  0
 22 23  1  0
 22 71  1  0
 22 72  1  0
 23 24  1  0
 24 25  1  0
 24 73  1  0
 24 74  1  0
 25 75  1  0
 25 76  1  0
 26 33  1  0
 26 27  1  0
 26 77  1  6
 27 28  1  0
 28 35  1  0
 28 29  1  6
 28 30  1  0
 29 78  1  0
 29 79  1  0
 29 80  1  0
 30 31  1  0
 30 81  1  0
 30 82  1  0
 31 32  1  0
 31 83  1  0
 31 84  1  0
 32 33  1  0
 32 85  1  1
 33 34  1  6
 34 35  1  0
M  CHG  1  19   1
M  END
>  <i_m_ct_stereo_status>  (370) 
1

>  <s_m_source_file>  (370) 
/var/tmp/pbs.5076255.sched01/tmpnhftudgm/135squ2m_dv.sdf

>  <i_m_source_file_index>  (370) 
19

>  <i_lp_mmshare_version>  (370) 
48012

>  <i_f3d_flags>  (370) 
0

>  <s_epik_input>  (370) 
W0NIMl0xW0NIMl1bQ0BASF0oW0NIM10pW0NAQEhdMltDSDJdW0NIMl1bQ0BdKFtDSDNdKShPTzMpT1tDQEhdNFtDQEBIXShbQ0BASF0oW0NASF01W0NAQEhdMVtDQF0yMzQpW0NASF02W0NAQF0oW0NIM10pKFtDSDJdW0NIMl01KVtDQEBIXShbQ0gzXSlbQ0gyXVtDSDJdNilbQ0gyXVtOK103KFtDSDNdKVtDSDJdW0NIMl1PW0NIMl1bQ0gyXTc=

>  <s_epik_cmdline>  (370) 
J2VwaWtfcHl0aG9uJywgJy1waHQnLCAnMi4wJywgJy1waCcsICc3LjAnLCAnLXRuJywgJzgnLCAnLW1hJywgJzIwMCcsICctaW1hZScsICc8aW5maWxlLm1hZT4nLCAnLW9tYWUnLCAnPG91dGZpbGUubWFlPic=

>  <r_lp_tautomer_probability>  (370) 
1

>  <r_epik_Ionization_Penalty>  (370) 
4.99921e-15

>  <r_epik_Ionization_Penalty_Charging>  (370) 
0

>  <r_epik_Ionization_Penalty_Neutral>  (370) 
4.99921e-15

>  <r_epik_State_Penalty>  (370) 
-0

>  <r_epik_Charging_Adjusted_Penalty>  (370) 
0

>  <i_epik_Tot_Q>  (370) 
1

>  <i_epik_Tot_abs_Q>  (370) 
1

>  <s_lp_Force_Field>  (370) 
OPLS3e

>  <r_lp_Energy>  (370) 
75.7602

>  <b_lp_Chiralities_Consistent>  (370) 
1

>  <s_lp_Variant>  (370) 
101:0-1

>  <s_i_glide_gridfile>  (370) 
pfpi4k_grid

>  <i_i_glide_lignum>  (370) 
19

>  <i_i_glide_rotatable_bonds>  (370) 
2

>  <r_i_docking_score>  (370) 
-1.46642

>  <r_i_glide_ligand_efficiency>  (370) 
-0.0418977

>  <r_i_glide_ligand_efficiency_sa>  (370) 
-0.13705

>  <r_i_glide_ligand_efficiency_ln>  (370) 
-0.321912

>  <r_i_glide_gscore>  (370) 
-1.46642

>  <r_i_glide_lipo>  (370) 
-0.234626

>  <r_i_glide_hbond>  (370) 
0

>  <r_i_glide_metal>  (370) 
-0

>  <r_i_glide_rewards>  (370) 
-0.0768934

>  <r_i_glide_evdw>  (370) 
-20.7779

>  <r_i_glide_ecoul>  (370) 
-1.63967

>  <r_i_glide_erotb>  (370) 
0.170303

>  <r_i_glide_esite>  (370) 
-0.0403568

>  <r_i_glide_emodel>  (370) 
-24.003

>  <r_i_glide_energy>  (370) 
-22.4176

>  <r_i_glide_einternal>  (370) 
0.0308773

>  <r_i_glide_intrahb_reward>  (370) 
-0

>  <i_i_glide_confnum>  (370) 
1

>  <i_i_glide_posenum>  (370) 
2

>  <r_i_glide_eff_state_penalty>  (370) 
0

>  <ligand_id>  (370) 
101

>  <original_smiles>  (370) 
CC1CCC2C3CCC4(C)C(C)CCC4C3C(C[N+]3(C)CCOCC3)C3OC4(C)CCC1C23OO4

>  <smiles>  (370) 
[H]C([H])([H])C12OOC34C([H])(O1)C([H])(C([H])([H])[N+]1(C([H])([H])[H])C([H])([H])C([H])([H])OC([H])([H])C1([H])[H])C1([H])C([H])(C([H])([H])C([H])([H])C5(C([H])([H])[H])C([H])(C([H])([H])[H])C([H])([H])C([H])([H])C15[H])C3([H])C([H])([H])C([H])([H])C([H])(C([H])([H])[H])C4([H])C([H])([H])C2([H])[H]

$$$$
102:0:0
     RDKit          3D

 36 39  0  0  1  0  0  0  0  0999 V2000
   -0.0621   -9.9981    2.8059 O   0  0  0  0  0  0  0  0  0  0  0  0
   -0.3553   -8.6000    3.1752 S   0  0  0  0  0  0  0  0  0  0  0  0
   -1.6809   -8.0148    2.9277 O   0  0  0  0  0  0  0  0  0  0  0  0
    0.0029   -8.3526    4.9050 C   0  0  0  0  0  0  0  0  0  0  0  0
    0.2645   -9.4598    5.7316 C   0  0  0  0  0  0  0  0  0  0  0  0
    0.5674   -9.2550    7.0896 C   0  0  0  0  0  0  0  0  0  0  0  0
    0.5968   -7.9460    7.6145 C   0  0  0  0  0  0  0  0  0  0  0  0
    0.2928   -6.8423    6.7875 C   0  0  0  0  0  0  0  0  0  0  0  0
   -0.0211   -7.0448    5.4287 C   0  0  0  0  0  0  0  0  0  0  0  0
    0.7771   -7.5414    2.2911 C   0  0  0  0  0  0  0  0  0  0  0  0
    0.3668   -6.5898    1.3312 N   0  0  0  0  0  0  0  0  0  0  0  0
    1.4165   -5.9659    0.8713 N   0  0  0  0  0  0  0  0  0  0  0  0
    2.4703   -6.4816    1.5222 N   0  0  0  0  0  0  0  0  0  0  0  0
    3.7817   -6.1694    1.3899 C   0  0  0  0  0  0  0  0  0  0  0  0
    4.7591   -6.8608    2.1315 C   0  0  0  0  0  0  0  0  0  0  0  0
    4.2782   -7.8579    3.0263 C   0  0  0  0  0  0  0  0  0  0  0  0
    2.9600   -8.1780    3.1979 N   0  0  0  0  0  0  0  0  0  0  0  0
    2.1491   -7.4424    2.3884 C   0  0  0  0  0  0  0  0  0  0  0  0
    6.2474   -6.5766    1.9420 C   0  0  0  0  0  0  0  0  0  0  0  0
    6.5462   -5.2435    1.2411 C   0  0  0  0  0  0  0  0  0  0  0  0
    5.6262   -5.0332    0.0419 C   0  0  0  0  0  0  0  0  0  0  0  0
    4.1473   -5.0288    0.4398 C   0  0  0  0  0  0  0  0  0  0  0  0
    0.2323  -10.4633    5.3268 H   0  0  0  0  0  0  0  0  0  0  0  0
    0.7890  -10.1104    7.7136 H   0  0  0  0  0  0  0  0  0  0  0  0
    0.8403   -7.7953    8.6546 H   0  0  0  0  0  0  0  0  0  0  0  0
    0.3093   -5.8403    7.1918 H   0  0  0  0  0  0  0  0  0  0  0  0
   -0.2603   -6.2097    4.7865 H   0  0  0  0  0  0  0  0  0  0  0  0
    4.9928   -8.4078    3.6249 H   0  0  0  0  0  0  0  0  0  0  0  0
    6.7667   -6.6121    2.8950 H   0  0  0  0  0  0  0  0  0  0  0  0
    6.6530   -7.3834    1.3365 H   0  0  0  0  0  0  0  0  0  0  0  0
    6.4037   -4.4155    1.9313 H   0  0  0  0  0  0  0  0  0  0  0  0
    7.5870   -5.1995    0.9300 H   0  0  0  0  0  0  0  0  0  0  0  0
    5.8779   -4.1201   -0.4975 H   0  0  0  0  0  0  0  0  0  0  0  0
    5.7756   -5.8482   -0.6600 H   0  0  0  0  0  0  0  0  0  0  0  0
    3.5255   -5.0530   -0.4587 H   0  0  0  0  0  0  0  0  0  0  0  0
    3.9284   -4.0877    0.9475 H   0  0  0  0  0  0  0  0  0  0  0  0
  1  2  2  0
  2  3  2  0
  2  4  1  0
  2 10  1  0
  4  9  1  0
  4  5  2  0
  5  6  1  0
  5 23  1  0
  6  7  2  0
  6 24  1  0
  7  8  1  0
  7 25  1  0
  8  9  2  0
  8 26  1  0
  9 27  1  0
 10 18  2  0
 10 11  1  0
 11 12  2  0
 12 13  1  0
 13 18  1  0
 13 14  1  0
 14 22  1  0
 14 15  2  0
 15 16  1  0
 15 19  1  0
 16 17  2  0
 16 28  1  0
 17 18  1  0
 19 20  1  0
 19 29  1  0
 19 30  1  0
 20 21  1  0
 20 31  1  0
 20 32  1  0
 21 22  1  0
 21 33  1  0
 21 34  1  0
 22 35  1  0
 22 36  1  0
M  END
>  <i_m_ct_stereo_status>  (371) 
1

>  <s_m_source_file>  (371) 
/var/tmp/pbs.5076255.sched01/tmpnhftudgm/135squ2m_dv.sdf

>  <i_m_source_file_index>  (371) 
20

>  <i_lp_mmshare_version>  (371) 
48012

>  <i_f3d_flags>  (371) 
0

>  <s_epik_input>  (371) 
W2NIXTFbY0hdW2NIXVtjSF1bY0hdYzFTKD1PKSg9TyljKG5uMiljM25bY0hdYyhjNG4yMylbQ0gyXVtDSDJdW0NIMl1bQ0gyXTQ=

>  <s_epik_cmdline>  (371) 
J2VwaWtfcHl0aG9uJywgJy1waHQnLCAnMi4wJywgJy1waCcsICc3LjAnLCAnLXRuJywgJzgnLCAnLW1hJywgJzIwMCcsICctaW1hZScsICc8aW5maWxlLm1hZT4nLCAnLW9tYWUnLCAnPG91dGZpbGUubWFlPic=

>  <r_lp_tautomer_probability>  (371) 
1

>  <r_epik_Ionization_Penalty>  (371) 
7.07783e-14

>  <r_epik_Ionization_Penalty_Charging>  (371) 
0

>  <r_epik_Ionization_Penalty_Neutral>  (371) 
7.07783e-14

>  <r_epik_State_Penalty>  (371) 
-0

>  <r_epik_Charging_Adjusted_Penalty>  (371) 
0

>  <i_epik_Tot_Q>  (371) 
0

>  <i_epik_Tot_abs_Q>  (371) 
0

>  <s_lp_Force_Field>  (371) 
OPLS3e

>  <r_lp_Energy>  (371) 
24.8151

>  <b_lp_Chiralities_Consistent>  (371) 
1

>  <s_lp_Variant>  (371) 
102:0-1

>  <s_i_glide_gridfile>  (371) 
pfpi4k_grid

>  <i_i_glide_lignum>  (371) 
20

>  <i_i_glide_rotatable_bonds>  (371) 
2

>  <r_i_docking_score>  (371) 
-3.25014

>  <r_i_glide_ligand_efficiency>  (371) 
-0.147734

>  <r_i_glide_ligand_efficiency_sa>  (371) 
-0.413955

>  <r_i_glide_ligand_efficiency_ln>  (371) 
-0.794452

>  <r_i_glide_gscore>  (371) 
-3.25014

>  <r_i_glide_lipo>  (371) 
-0.327165

>  <r_i_glide_hbond>  (371) 
0

>  <r_i_glide_metal>  (371) 
-0

>  <r_i_glide_rewards>  (371) 
-1.26571

>  <r_i_glide_evdw>  (371) 
-25.3038

>  <r_i_glide_ecoul>  (371) 
-3.12755

>  <r_i_glide_erotb>  (371) 
0.376169

>  <r_i_glide_esite>  (371) 
-0.299115

>  <r_i_glide_emodel>  (371) 
-32.631

>  <r_i_glide_energy>  (371) 
-28.4313

>  <r_i_glide_einternal>  (371) 
3.2259

>  <r_i_glide_intrahb_reward>  (371) 
-0

>  <i_i_glide_confnum>  (371) 
3

>  <i_i_glide_posenum>  (371) 
37

>  <r_i_glide_eff_state_penalty>  (371) 
0

>  <ligand_id>  (371) 
102

>  <original_smiles>  (371) 
O=S(=O)(c1ccccc1)c1nnn2c3c(cnc12)CCCC3

>  <smiles>  (371) 
[H]c1nc2c(S(=O)(=O)c3c([H])c([H])c([H])c([H])c3[H])nnn2c2c1C([H])([H])C([H])([H])C([H])([H])C2([H])[H]

$$$$
102:0:1
     RDKit          3D

 36 39  0  0  1  0  0  0  0  0999 V2000
    6.4335   -4.7998    0.1428 O   0  0  0  0  0  0  0  0  0  0  0  0
    5.2977   -3.9065    0.4432 S   0  0  0  0  0  0  0  0  0  0  0  0
    5.5116   -2.7456    1.3213 O   0  0  0  0  0  0  0  0  0  0  0  0
    4.6175   -3.2760   -1.1092 C   0  0  0  0  0  0  0  0  0  0  0  0
    3.6990   -2.2040   -1.1099 C   0  0  0  0  0  0  0  0  0  0  0  0
    3.1608   -1.7516   -2.3371 C   0  0  0  0  0  0  0  0  0  0  0  0
    3.5303   -2.3603   -3.5557 C   0  0  0  0  0  0  0  0  0  0  0  0
    4.4689   -3.4118   -3.5443 C   0  0  0  0  0  0  0  0  0  0  0  0
    5.0088   -3.8532   -2.3248 C   0  0  0  0  0  0  0  0  0  0  0  0
    3.9387   -4.8390    1.1690 C   0  0  0  0  0  0  0  0  0  0  0  0
    2.7429   -4.2266    1.5994 N   0  0  0  0  0  0  0  0  0  0  0  0
    1.9324   -5.1245    2.0721 N   0  0  0  0  0  0  0  0  0  0  0  0
    2.5988   -6.2921    1.9343 N   0  0  0  0  0  0  0  0  0  0  0  0
    2.2104   -7.5299    2.3044 C   0  0  0  0  0  0  0  0  0  0  0  0
    3.0756   -8.6426    2.1366 C   0  0  0  0  0  0  0  0  0  0  0  0
    4.3364   -8.3725    1.5466 C   0  0  0  0  0  0  0  0  0  0  0  0
    4.7566   -7.1363    1.1503 N   0  0  0  0  0  0  0  0  0  0  0  0
    3.8098   -6.1816    1.4063 C   0  0  0  0  0  0  0  0  0  0  0  0
    2.6706  -10.0445    2.6181 C   0  0  0  0  0  0  0  0  0  0  0  0
    1.1703  -10.2203    2.8779 C   0  0  0  0  0  0  0  0  0  0  0  0
    0.6035   -9.0324    3.6465 C   0  0  0  0  0  0  0  0  0  0  0  0
    0.8088   -7.7090    2.8782 C   0  0  0  0  0  0  0  0  0  0  0  0
    3.3848   -1.7315   -0.1831 H   0  0  0  0  0  0  0  0  0  0  0  0
    2.4293   -0.9531   -2.3384 H   0  0  0  0  0  0  0  0  0  0  0  0
    3.0827   -2.0275   -4.4865 H   0  0  0  0  0  0  0  0  0  0  0  0
    4.7665   -3.8953   -4.4651 H   0  0  0  0  0  0  0  0  0  0  0  0
    5.7263   -4.6573   -2.3127 H   0  0  0  0  0  0  0  0  0  0  0  0
    5.0254   -9.2006    1.3931 H   0  0  0  0  0  0  0  0  0  0  0  0
    3.0137  -10.7909    1.9087 H   0  0  0  0  0  0  0  0  0  0  0  0
    3.2091  -10.2370    3.5415 H   0  0  0  0  0  0  0  0  0  0  0  0
    0.6401  -10.2971    1.9336 H   0  0  0  0  0  0  0  0  0  0  0  0
    0.9757  -11.1480    3.4040 H   0  0  0  0  0  0  0  0  0  0  0  0
   -0.4552   -9.1860    3.8725 H   0  0  0  0  0  0  0  0  0  0  0  0
    1.1103   -8.9655    4.6050 H   0  0  0  0  0  0  0  0  0  0  0  0
    0.5426   -6.8716    3.5266 H   0  0  0  0  0  0  0  0  0  0  0  0
    0.1089   -7.6942    2.0388 H   0  0  0  0  0  0  0  0  0  0  0  0
  1  2  2  0
  2  3  2  0
  2  4  1  0
  2 10  1  0
  4  9  1  0
  4  5  2  0
  5  6  1  0
  5 23  1  0
  6  7  2  0
  6 24  1  0
  7  8  1  0
  7 25  1  0
  8  9  2  0
  8 26  1  0
  9 27  1  0
 10 18  2  0
 10 11  1  0
 11 12  2  0
 12 13  1  0
 13 18  1  0
 13 14  1  0
 14 22  1  0
 14 15  2  0
 15 16  1  0
 15 19  1  0
 16 17  2  0
 16 28  1  0
 17 18  1  0
 19 20  1  0
 19 29  1  0
 19 30  1  0
 20 21  1  0
 20 31  1  0
 20 32  1  0
 21 22  1  0
 21 33  1  0
 21 34  1  0
 22 35  1  0
 22 36  1  0
M  END
>  <i_m_ct_stereo_status>  (372) 
1

>  <s_m_source_file>  (372) 
/var/tmp/pbs.5076255.sched01/tmpnhftudgm/135squ2m_dv.sdf

>  <i_m_source_file_index>  (372) 
20

>  <i_lp_mmshare_version>  (372) 
48012

>  <i_f3d_flags>  (372) 
0

>  <s_epik_input>  (372) 
W2NIXTFbY0hdW2NIXVtjSF1bY0hdYzFTKD1PKSg9TyljKG5uMiljM25bY0hdYyhjNG4yMylbQ0gyXVtDSDJdW0NIMl1bQ0gyXTQ=

>  <s_epik_cmdline>  (372) 
J2VwaWtfcHl0aG9uJywgJy1waHQnLCAnMi4wJywgJy1waCcsICc3LjAnLCAnLXRuJywgJzgnLCAnLW1hJywgJzIwMCcsICctaW1hZScsICc8aW5maWxlLm1hZT4nLCAnLW9tYWUnLCAnPG91dGZpbGUubWFlPic=

>  <r_lp_tautomer_probability>  (372) 
1

>  <r_epik_Ionization_Penalty>  (372) 
7.07783e-14

>  <r_epik_Ionization_Penalty_Charging>  (372) 
0

>  <r_epik_Ionization_Penalty_Neutral>  (372) 
7.07783e-14

>  <r_epik_State_Penalty>  (372) 
-0

>  <r_epik_Charging_Adjusted_Penalty>  (372) 
0

>  <i_epik_Tot_Q>  (372) 
0

>  <i_epik_Tot_abs_Q>  (372) 
0

>  <s_lp_Force_Field>  (372) 
OPLS3e

>  <r_lp_Energy>  (372) 
24.8151

>  <b_lp_Chiralities_Consistent>  (372) 
1

>  <s_lp_Variant>  (372) 
102:0-1

>  <s_i_glide_gridfile>  (372) 
pfpi4k_grid

>  <i_i_glide_lignum>  (372) 
20

>  <i_i_glide_rotatable_bonds>  (372) 
2

>  <r_i_docking_score>  (372) 
-3.24035

>  <r_i_glide_ligand_efficiency>  (372) 
-0.147289

>  <r_i_glide_ligand_efficiency_sa>  (372) 
-0.412709

>  <r_i_glide_ligand_efficiency_ln>  (372) 
-0.792061

>  <r_i_glide_gscore>  (372) 
-3.24035

>  <r_i_glide_lipo>  (372) 
-0.615709

>  <r_i_glide_hbond>  (372) 
0

>  <r_i_glide_metal>  (372) 
-0

>  <r_i_glide_rewards>  (372) 
-1.40825

>  <r_i_glide_evdw>  (372) 
-27.3191

>  <r_i_glide_ecoul>  (372) 
-1.19078

>  <r_i_glide_erotb>  (372) 
0.376169

>  <r_i_glide_esite>  (372) 
-0.0479908

>  <r_i_glide_emodel>  (372) 
-34.4264

>  <r_i_glide_energy>  (372) 
-28.5099

>  <r_i_glide_einternal>  (372) 
0.355168

>  <r_i_glide_intrahb_reward>  (372) 
-0

>  <i_i_glide_confnum>  (372) 
1

>  <i_i_glide_posenum>  (372) 
14

>  <r_i_glide_eff_state_penalty>  (372) 
0

>  <ligand_id>  (372) 
102

>  <original_smiles>  (372) 
O=S(=O)(c1ccccc1)c1nnn2c3c(cnc12)CCCC3

>  <smiles>  (372) 
[H]c1nc2c(S(=O)(=O)c3c([H])c([H])c([H])c([H])c3[H])nnn2c2c1C([H])([H])C([H])([H])C([H])([H])C2([H])[H]

$$$$
102:0:2
     RDKit          3D

 36 39  0  0  1  0  0  0  0  0999 V2000
    6.8006   -3.9004   -0.3158 O   0  0  0  0  0  0  0  0  0  0  0  0
    5.6197   -3.0893    0.0163 S   0  0  0  0  0  0  0  0  0  0  0  0
    5.7695   -1.9126    0.8870 O   0  0  0  0  0  0  0  0  0  0  0  0
    4.8619   -2.5374   -1.5257 C   0  0  0  0  0  0  0  0  0  0  0  0
    4.4311   -1.2019   -1.6928 C   0  0  0  0  0  0  0  0  0  0  0  0
    3.8230   -0.8149   -2.9049 C   0  0  0  0  0  0  0  0  0  0  0  0
    3.6367   -1.7571   -3.9335 C   0  0  0  0  0  0  0  0  0  0  0  0
    4.0736   -3.0859   -3.7594 C   0  0  0  0  0  0  0  0  0  0  0  0
    4.6886   -3.4749   -2.5567 C   0  0  0  0  0  0  0  0  0  0  0  0
    4.3615   -4.1154    0.7765 C   0  0  0  0  0  0  0  0  0  0  0  0
    3.1231   -3.6121    1.2229 N   0  0  0  0  0  0  0  0  0  0  0  0
    2.4010   -4.5893    1.7089 N   0  0  0  0  0  0  0  0  0  0  0  0
    3.1501   -5.6974    1.5870 N   0  0  0  0  0  0  0  0  0  0  0  0
    2.8690   -6.9705    1.9690 C   0  0  0  0  0  0  0  0  0  0  0  0
    3.8157   -8.0032    1.7916 C   0  0  0  0  0  0  0  0  0  0  0  0
    5.0414   -7.6282    1.1858 C   0  0  0  0  0  0  0  0  0  0  0  0
    5.3542   -6.3584    0.7861 N   0  0  0  0  0  0  0  0  0  0  0  0
    4.3487   -5.4750    1.0365 C   0  0  0  0  0  0  0  0  0  0  0  0
    3.5469   -9.4283    2.2761 C   0  0  0  0  0  0  0  0  0  0  0  0
    2.0673   -9.7199    2.5628 C   0  0  0  0  0  0  0  0  0  0  0  0
    1.4242   -8.5775    3.3468 C   0  0  0  0  0  0  0  0  0  0  0  0
    1.4932   -7.2493    2.5690 C   0  0  0  0  0  0  0  0  0  0  0  0
    4.5569   -0.4691   -0.9088 H   0  0  0  0  0  0  0  0  0  0  0  0
    3.4791    0.1989   -3.0548 H   0  0  0  0  0  0  0  0  0  0  0  0
    3.1493   -1.4569   -4.8492 H   0  0  0  0  0  0  0  0  0  0  0  0
    3.9244   -3.8198   -4.5367 H   0  0  0  0  0  0  0  0  0  0  0  0
    5.0156   -4.4944   -2.4126 H   0  0  0  0  0  0  0  0  0  0  0  0
    5.7943   -8.3880    1.0142 H   0  0  0  0  0  0  0  0  0  0  0  0
    3.9362  -10.1554    1.5656 H   0  0  0  0  0  0  0  0  0  0  0  0
    4.1128   -9.5695    3.1942 H   0  0  0  0  0  0  0  0  0  0  0  0
    1.5279   -9.8504    1.6289 H   0  0  0  0  0  0  0  0  0  0  0  0
    1.9620  -10.6559    3.0992 H   0  0  0  0  0  0  0  0  0  0  0  0
    0.3871   -8.8132    3.5931 H   0  0  0  0  0  0  0  0  0  0  0  0
    1.9434   -8.4632    4.2970 H   0  0  0  0  0  0  0  0  0  0  0  0
    1.1783   -6.4288    3.2189 H   0  0  0  0  0  0  0  0  0  0  0  0
    0.7829   -7.2943    1.7423 H   0  0  0  0  0  0  0  0  0  0  0  0
  1  2  2  0
  2  3  2  0
  2  4  1  0
  2 10  1  0
  4  9  1  0
  4  5  2  0
  5  6  1  0
  5 23  1  0
  6  7  2  0
  6 24  1  0
  7  8  1  0
  7 25  1  0
  8  9  2  0
  8 26  1  0
  9 27  1  0
 10 18  2  0
 10 11  1  0
 11 12  2  0
 12 13  1  0
 13 18  1  0
 13 14  1  0
 14 22  1  0
 14 15  2  0
 15 16  1  0
 15 19  1  0
 16 17  2  0
 16 28  1  0
 17 18  1  0
 19 20  1  0
 19 29  1  0
 19 30  1  0
 20 21  1  0
 20 31  1  0
 20 32  1  0
 21 22  1  0
 21 33  1  0
 21 34  1  0
 22 35  1  0
 22 36  1  0
M  END
>  <i_m_ct_stereo_status>  (373) 
1

>  <s_m_source_file>  (373) 
/var/tmp/pbs.5076255.sched01/tmpnhftudgm/135squ2m_dv.sdf

>  <i_m_source_file_index>  (373) 
20

>  <i_lp_mmshare_version>  (373) 
48012

>  <i_f3d_flags>  (373) 
0

>  <s_epik_input>  (373) 
W2NIXTFbY0hdW2NIXVtjSF1bY0hdYzFTKD1PKSg9TyljKG5uMiljM25bY0hdYyhjNG4yMylbQ0gyXVtDSDJdW0NIMl1bQ0gyXTQ=

>  <s_epik_cmdline>  (373) 
J2VwaWtfcHl0aG9uJywgJy1waHQnLCAnMi4wJywgJy1waCcsICc3LjAnLCAnLXRuJywgJzgnLCAnLW1hJywgJzIwMCcsICctaW1hZScsICc8aW5maWxlLm1hZT4nLCAnLW9tYWUnLCAnPG91dGZpbGUubWFlPic=

>  <r_lp_tautomer_probability>  (373) 
1

>  <r_epik_Ionization_Penalty>  (373) 
7.07783e-14

>  <r_epik_Ionization_Penalty_Charging>  (373) 
0

>  <r_epik_Ionization_Penalty_Neutral>  (373) 
7.07783e-14

>  <r_epik_State_Penalty>  (373) 
-0

>  <r_epik_Charging_Adjusted_Penalty>  (373) 
0

>  <i_epik_Tot_Q>  (373) 
0

>  <i_epik_Tot_abs_Q>  (373) 
0

>  <s_lp_Force_Field>  (373) 
OPLS3e

>  <r_lp_Energy>  (373) 
24.8151

>  <b_lp_Chiralities_Consistent>  (373) 
1

>  <s_lp_Variant>  (373) 
102:0-1

>  <s_i_glide_gridfile>  (373) 
pfpi4k_grid

>  <i_i_glide_lignum>  (373) 
20

>  <i_i_glide_rotatable_bonds>  (373) 
2

>  <r_i_docking_score>  (373) 
-3.1951

>  <r_i_glide_ligand_efficiency>  (373) 
-0.145232

>  <r_i_glide_ligand_efficiency_sa>  (373) 
-0.406945

>  <r_i_glide_ligand_efficiency_ln>  (373) 
-0.780999

>  <r_i_glide_gscore>  (373) 
-3.1951

>  <r_i_glide_lipo>  (373) 
-0.477434

>  <r_i_glide_hbond>  (373) 
0

>  <r_i_glide_metal>  (373) 
-0

>  <r_i_glide_rewards>  (373) 
-1.41323

>  <r_i_glide_evdw>  (373) 
-30.0767

>  <r_i_glide_ecoul>  (373) 
-1.0337

>  <r_i_glide_erotb>  (373) 
0.376169

>  <r_i_glide_esite>  (373) 
-0.0217179

>  <r_i_glide_emodel>  (373) 
-36.9666

>  <r_i_glide_energy>  (373) 
-31.1104

>  <r_i_glide_einternal>  (373) 
0.456606

>  <r_i_glide_intrahb_reward>  (373) 
-0

>  <i_i_glide_confnum>  (373) 
5

>  <i_i_glide_posenum>  (373) 
22

>  <r_i_glide_eff_state_penalty>  (373) 
0

>  <ligand_id>  (373) 
102

>  <original_smiles>  (373) 
O=S(=O)(c1ccccc1)c1nnn2c3c(cnc12)CCCC3

>  <smiles>  (373) 
[H]c1nc2c(S(=O)(=O)c3c([H])c([H])c([H])c([H])c3[H])nnn2c2c1C([H])([H])C([H])([H])C([H])([H])C2([H])[H]

$$$$
103:0:0
     RDKit          3D

 38 40  0  0  1  0  0  0  0  0999 V2000
   -1.6588   -9.2166    2.3464 C   0  0  0  0  0  0  0  0  0  0  0  0
   -0.6051   -8.3238    2.8732 C   0  0  0  0  0  0  0  0  0  0  0  0
   -0.7628   -7.0111    2.5791 O   0  0  0  0  0  0  0  0  0  0  0  0
    0.2942   -6.2742    3.1420 N   0  0  0  0  0  0  0  0  0  0  0  0
    1.0560   -7.1497    3.7780 C   0  0  0  0  0  0  0  0  0  0  0  0
    0.5316   -8.4582    3.5997 C   0  0  0  0  0  0  0  0  0  0  0  0
    1.2936   -9.9584    4.2570 S   0  0  0  0  0  0  0  0  0  0  0  0
    1.1974   -9.7899    5.7102 O   0  0  0  0  0  0  0  0  0  0  0  0
    0.6493  -11.0748    3.5488 O   0  0  0  0  0  0  0  0  0  0  0  0
    2.9656   -9.9360    3.8063 N   0  0  0  0  0  0  0  0  0  0  0  0
    3.9801   -9.2438    4.6276 C   0  0  0  0  0  0  0  0  0  0  0  0
    4.6566   -8.0777    3.8765 C   0  0  0  0  0  0  0  0  0  0  0  0
    5.0991   -8.5406    2.5648 N   0  0  0  0  0  0  0  0  0  0  0  0
    6.7150   -8.3032    2.0255 S   0  0  0  0  0  0  0  0  0  0  0  0
    7.5933   -8.3093    3.1928 O   0  0  0  0  0  0  0  0  0  0  0  0
    6.9432   -9.2153    0.8891 O   0  0  0  0  0  0  0  0  0  0  0  0
    6.7403   -6.6667    1.3676 C   0  0  0  0  0  0  0  0  0  0  0  0
    5.6568   -5.9675    0.9195 C   0  0  0  0  0  0  0  0  0  0  0  0
    5.9866   -4.6474    0.4839 C   0  0  0  0  0  0  0  0  0  0  0  0
    7.3173   -4.3596    0.6098 C   0  0  0  0  0  0  0  0  0  0  0  0
    8.2002   -5.7168    1.2703 S   0  0  0  0  0  0  0  0  0  0  0  0
    4.0394   -9.0872    1.7098 C   0  0  0  0  0  0  0  0  0  0  0  0
    3.3747  -10.2741    2.4300 C   0  0  0  0  0  0  0  0  0  0  0  0
   -1.3941  -10.2583    2.4755 H   0  0  0  0  0  0  0  0  0  0  0  0
   -1.8058   -9.0457    1.2861 H   0  0  0  0  0  0  0  0  0  0  0  0
   -2.5850   -9.0409    2.8725 H   0  0  0  0  0  0  0  0  0  0  0  0
    1.9360   -6.8121    4.3118 H   0  0  0  0  0  0  0  0  0  0  0  0
    3.5588   -8.9234    5.5829 H   0  0  0  0  0  0  0  0  0  0  0  0
    4.7539   -9.9790    4.8515 H   0  0  0  0  0  0  0  0  0  0  0  0
    3.9800   -7.2424    3.7272 H   0  0  0  0  0  0  0  0  0  0  0  0
    5.5000   -7.6791    4.4406 H   0  0  0  0  0  0  0  0  0  0  0  0
    4.6469   -6.3505    0.8911 H   0  0  0  0  0  0  0  0  0  0  0  0
    5.2222   -3.9792    0.1058 H   0  0  0  0  0  0  0  0  0  0  0  0
    7.8224   -3.4394    0.3596 H   0  0  0  0  0  0  0  0  0  0  0  0
    3.3012   -8.3112    1.5045 H   0  0  0  0  0  0  0  0  0  0  0  0
    4.4464   -9.3958    0.7456 H   0  0  0  0  0  0  0  0  0  0  0  0
    4.0998  -11.0842    2.4918 H   0  0  0  0  0  0  0  0  0  0  0  0
    2.5257  -10.6530    1.8627 H   0  0  0  0  0  0  0  0  0  0  0  0
  1  2  1  0
  1 24  1  0
  1 25  1  0
  1 26  1  0
  2  6  2  0
  2  3  1  0
  3  4  1  0
  4  5  2  0
  5  6  1  0
  5 27  1  0
  6  7  1  0
  7  8  2  0
  7  9  2  0
  7 10  1  0
 10 23  1  0
 10 11  1  0
 11 12  1  0
 11 28  1  0
 11 29  1  0
 12 13  1  0
 12 30  1  0
 12 31  1  0
 13 14  1  0
 13 22  1  0
 14 15  2  0
 14 16  2  0
 14 17  1  0
 17 21  1  0
 17 18  2  0
 18 19  1  0
 18 32  1  0
 19 20  2  0
 19 33  1  0
 20 21  1  0
 20 34  1  0
 22 23  1  0
 22 35  1  0
 22 36  1  0
 23 37  1  0
 23 38  1  0
M  END
>  <i_m_ct_stereo_status>  (374) 
1

>  <s_m_source_file>  (374) 
/var/tmp/pbs.5076255.sched01/tmpnhftudgm/135squ2m_dv.sdf

>  <i_m_source_file_index>  (374) 
21

>  <i_lp_mmshare_version>  (374) 
48012

>  <i_f3d_flags>  (374) 
0

>  <s_epik_input>  (374) 
W0NIM11jMW9uW2NIXWMxUyg9TykoPU8pTjJbQ0gyXVtDSDJdTihbQ0gyXVtDSDJdMilTKD1PKSg9TyljM1tjSF1bY0hdW2NIXXMz

>  <s_epik_cmdline>  (374) 
J2VwaWtfcHl0aG9uJywgJy1waHQnLCAnMi4wJywgJy1waCcsICc3LjAnLCAnLXRuJywgJzgnLCAnLW1hJywgJzIwMCcsICctaW1hZScsICc8aW5maWxlLm1hZT4nLCAnLW9tYWUnLCAnPG91dGZpbGUubWFlPic=

>  <r_lp_tautomer_probability>  (374) 
1

>  <r_epik_Ionization_Penalty>  (374) 
2.35481e-11

>  <r_epik_Ionization_Penalty_Charging>  (374) 
0

>  <r_epik_Ionization_Penalty_Neutral>  (374) 
2.35481e-11

>  <r_epik_State_Penalty>  (374) 
-0

>  <r_epik_Charging_Adjusted_Penalty>  (374) 
0

>  <i_epik_Tot_Q>  (374) 
0

>  <i_epik_Tot_abs_Q>  (374) 
0

>  <s_lp_Force_Field>  (374) 
OPLS3e

>  <r_lp_Energy>  (374) 
-8.24154

>  <b_lp_Chiralities_Consistent>  (374) 
1

>  <s_lp_Variant>  (374) 
103:0-1

>  <s_i_glide_gridfile>  (374) 
pfpi4k_grid

>  <i_i_glide_lignum>  (374) 
21

>  <i_i_glide_rotatable_bonds>  (374) 
4

>  <r_i_docking_score>  (374) 
-3.30952

>  <r_i_glide_ligand_efficiency>  (374) 
-0.143892

>  <r_i_glide_ligand_efficiency_sa>  (374) 
-0.40921

>  <r_i_glide_ligand_efficiency_ln>  (374) 
-0.800271

>  <r_i_glide_gscore>  (374) 
-3.30952

>  <r_i_glide_lipo>  (374) 
-0.73861

>  <r_i_glide_hbond>  (374) 
0

>  <r_i_glide_metal>  (374) 
-0

>  <r_i_glide_rewards>  (374) 
-0.970277

>  <r_i_glide_evdw>  (374) 
-28.8249

>  <r_i_glide_ecoul>  (374) 
-2.86208

>  <r_i_glide_erotb>  (374) 
0.543767

>  <r_i_glide_esite>  (374) 
-0.273838

>  <r_i_glide_emodel>  (374) 
-38.9404

>  <r_i_glide_energy>  (374) 
-31.687

>  <r_i_glide_einternal>  (374) 
0.691727

>  <r_i_glide_intrahb_reward>  (374) 
-0

>  <i_i_glide_confnum>  (374) 
1

>  <i_i_glide_posenum>  (374) 
2

>  <r_i_glide_eff_state_penalty>  (374) 
0

>  <ligand_id>  (374) 
103

>  <original_smiles>  (374) 
Cc1oncc1S(=O)(=O)N1CCN(S(=O)(=O)c2cccs2)CC1

>  <smiles>  (374) 
[H]c1noc(C([H])([H])[H])c1S(=O)(=O)N1C([H])([H])C([H])([H])N(S(=O)(=O)c2sc([H])c([H])c2[H])C([H])([H])C1([H])[H]

$$$$
103:0:1
     RDKit          3D

 38 40  0  0  1  0  0  0  0  0999 V2000
   -0.0273    1.4437    3.5561 C   0  0  0  0  0  0  0  0  0  0  0  0
   -0.3517    0.2714    4.4232 C   0  0  0  0  0  0  0  0  0  0  0  0
   -1.6624    0.0773    4.7445 O   0  0  0  0  0  0  0  0  0  0  0  0
   -1.7888   -1.0599    5.5593 N   0  0  0  0  0  0  0  0  0  0  0  0
   -0.5627   -1.5323    5.7114 C   0  0  0  0  0  0  0  0  0  0  0  0
    0.3676   -0.7255    5.0117 C   0  0  0  0  0  0  0  0  0  0  0  0
    2.1344   -1.0393    4.8911 S   0  0  0  0  0  0  0  0  0  0  0  0
    2.7944    0.1345    5.4799 O   0  0  0  0  0  0  0  0  0  0  0  0
    2.3027   -2.3950    5.4384 O   0  0  0  0  0  0  0  0  0  0  0  0
    2.4678   -1.0666    3.2035 N   0  0  0  0  0  0  0  0  0  0  0  0
    1.9336   -2.1377    2.3552 C   0  0  0  0  0  0  0  0  0  0  0  0
    3.0388   -2.7078    1.4403 C   0  0  0  0  0  0  0  0  0  0  0  0
    3.8842   -1.6506    0.8591 N   0  0  0  0  0  0  0  0  0  0  0  0
    5.1816   -2.0413   -0.1998 S   0  0  0  0  0  0  0  0  0  0  0  0
    6.1307   -0.9206   -0.2207 O   0  0  0  0  0  0  0  0  0  0  0  0
    5.6228   -3.4085    0.1181 O   0  0  0  0  0  0  0  0  0  0  0  0
    4.4145   -2.0983   -1.7987 C   0  0  0  0  0  0  0  0  0  0  0  0
    3.9442   -3.2156   -2.4259 C   0  0  0  0  0  0  0  0  0  0  0  0
    3.3715   -2.9267   -3.7008 C   0  0  0  0  0  0  0  0  0  0  0  0
    3.4391   -1.5961   -4.0207 C   0  0  0  0  0  0  0  0  0  0  0  0
    4.2049   -0.6644   -2.7642 S   0  0  0  0  0  0  0  0  0  0  0  0
    3.4475   -0.2660    1.0537 C   0  0  0  0  0  0  0  0  0  0  0  0
    3.2601   -0.0016    2.5546 C   0  0  0  0  0  0  0  0  0  0  0  0
    1.0415    1.6330    3.5479 H   0  0  0  0  0  0  0  0  0  0  0  0
   -0.4886    2.3498    3.9422 H   0  0  0  0  0  0  0  0  0  0  0  0
   -0.3692    1.2809    2.5324 H   0  0  0  0  0  0  0  0  0  0  0  0
   -0.4092   -2.4291    6.2983 H   0  0  0  0  0  0  0  0  0  0  0  0
    1.4950   -2.9305    2.9673 H   0  0  0  0  0  0  0  0  0  0  0  0
    1.1171   -1.7219    1.7643 H   0  0  0  0  0  0  0  0  0  0  0  0
    3.6741   -3.3825    2.0180 H   0  0  0  0  0  0  0  0  0  0  0  0
    2.6003   -3.2965    0.6321 H   0  0  0  0  0  0  0  0  0  0  0  0
    3.9706   -4.2142   -2.0075 H   0  0  0  0  0  0  0  0  0  0  0  0
    2.9112   -3.6999   -4.3052 H   0  0  0  0  0  0  0  0  0  0  0  0
    3.0543   -1.1019   -4.9059 H   0  0  0  0  0  0  0  0  0  0  0  0
    4.1728    0.4365    0.6434 H   0  0  0  0  0  0  0  0  0  0  0  0
    2.5163   -0.1054    0.5039 H   0  0  0  0  0  0  0  0  0  0  0  0
    2.7777    0.9635    2.6719 H   0  0  0  0  0  0  0  0  0  0  0  0
    4.2293    0.0758    3.0531 H   0  0  0  0  0  0  0  0  0  0  0  0
  1  2  1  0
  1 24  1  0
  1 25  1  0
  1 26  1  0
  2  6  2  0
  2  3  1  0
  3  4  1  0
  4  5  2  0
  5  6  1  0
  5 27  1  0
  6  7  1  0
  7  8  2  0
  7  9  2  0
  7 10  1  0
 10 23  1  0
 10 11  1  0
 11 12  1  0
 11 28  1  0
 11 29  1  0
 12 13  1  0
 12 30  1  0
 12 31  1  0
 13 14  1  0
 13 22  1  0
 14 15  2  0
 14 16  2  0
 14 17  1  0
 17 21  1  0
 17 18  2  0
 18 19  1  0
 18 32  1  0
 19 20  2  0
 19 33  1  0
 20 21  1  0
 20 34  1  0
 22 23  1  0
 22 35  1  0
 22 36  1  0
 23 37  1  0
 23 38  1  0
M  END
>  <i_m_ct_stereo_status>  (375) 
1

>  <s_m_source_file>  (375) 
/var/tmp/pbs.5076255.sched01/tmpnhftudgm/135squ2m_dv.sdf

>  <i_m_source_file_index>  (375) 
21

>  <i_lp_mmshare_version>  (375) 
48012

>  <i_f3d_flags>  (375) 
0

>  <s_epik_input>  (375) 
W0NIM11jMW9uW2NIXWMxUyg9TykoPU8pTjJbQ0gyXVtDSDJdTihbQ0gyXVtDSDJdMilTKD1PKSg9TyljM1tjSF1bY0hdW2NIXXMz

>  <s_epik_cmdline>  (375) 
J2VwaWtfcHl0aG9uJywgJy1waHQnLCAnMi4wJywgJy1waCcsICc3LjAnLCAnLXRuJywgJzgnLCAnLW1hJywgJzIwMCcsICctaW1hZScsICc8aW5maWxlLm1hZT4nLCAnLW9tYWUnLCAnPG91dGZpbGUubWFlPic=

>  <r_lp_tautomer_probability>  (375) 
1

>  <r_epik_Ionization_Penalty>  (375) 
2.35481e-11

>  <r_epik_Ionization_Penalty_Charging>  (375) 
0

>  <r_epik_Ionization_Penalty_Neutral>  (375) 
2.35481e-11

>  <r_epik_State_Penalty>  (375) 
-0

>  <r_epik_Charging_Adjusted_Penalty>  (375) 
0

>  <i_epik_Tot_Q>  (375) 
0

>  <i_epik_Tot_abs_Q>  (375) 
0

>  <s_lp_Force_Field>  (375) 
OPLS3e

>  <r_lp_Energy>  (375) 
-8.24154

>  <b_lp_Chiralities_Consistent>  (375) 
1

>  <s_lp_Variant>  (375) 
103:0-1

>  <s_i_glide_gridfile>  (375) 
pfpi4k_grid

>  <i_i_glide_lignum>  (375) 
21

>  <i_i_glide_rotatable_bonds>  (375) 
4

>  <r_i_docking_score>  (375) 
-3.2274

>  <r_i_glide_ligand_efficiency>  (375) 
-0.140322

>  <r_i_glide_ligand_efficiency_sa>  (375) 
-0.399056

>  <r_i_glide_ligand_efficiency_ln>  (375) 
-0.780414

>  <r_i_glide_gscore>  (375) 
-3.2274

>  <r_i_glide_lipo>  (375) 
-0.370956

>  <r_i_glide_hbond>  (375) 
0

>  <r_i_glide_metal>  (375) 
-0

>  <r_i_glide_rewards>  (375) 
-0.835482

>  <r_i_glide_evdw>  (375) 
-30.1506

>  <r_i_glide_ecoul>  (375) 
-5.85295

>  <r_i_glide_erotb>  (375) 
0.543767

>  <r_i_glide_esite>  (375) 
-0.179251

>  <r_i_glide_emodel>  (375) 
-42.6565

>  <r_i_glide_energy>  (375) 
-36.0036

>  <r_i_glide_einternal>  (375) 
1.24471

>  <r_i_glide_intrahb_reward>  (375) 
-0

>  <i_i_glide_confnum>  (375) 
2

>  <i_i_glide_posenum>  (375) 
38

>  <r_i_glide_eff_state_penalty>  (375) 
0

>  <ligand_id>  (375) 
103

>  <original_smiles>  (375) 
Cc1oncc1S(=O)(=O)N1CCN(S(=O)(=O)c2cccs2)CC1

>  <smiles>  (375) 
[H]c1noc(C([H])([H])[H])c1S(=O)(=O)N1C([H])([H])C([H])([H])N(S(=O)(=O)c2sc([H])c([H])c2[H])C([H])([H])C1([H])[H]

$$$$
103:0:2
     RDKit          3D

 38 40  0  0  1  0  0  0  0  0999 V2000
    0.0780   -4.3037    6.5240 C   0  0  0  0  0  0  0  0  0  0  0  0
   -0.0719   -2.8925    6.0528 C   0  0  0  0  0  0  0  0  0  0  0  0
   -1.3357   -2.3819    6.0784 O   0  0  0  0  0  0  0  0  0  0  0  0
   -1.3178   -1.0616    5.5992 N   0  0  0  0  0  0  0  0  0  0  0  0
   -0.0543   -0.7967    5.2951 C   0  0  0  0  0  0  0  0  0  0  0  0
    0.7583   -1.9235    5.5630 C   0  0  0  0  0  0  0  0  0  0  0  0
    2.5392   -2.0065    5.2665 S   0  0  0  0  0  0  0  0  0  0  0  0
    3.0819   -0.7842    5.8761 O   0  0  0  0  0  0  0  0  0  0  0  0
    2.9766   -3.3437    5.6927 O   0  0  0  0  0  0  0  0  0  0  0  0
    2.7071   -1.8900    3.5545 N   0  0  0  0  0  0  0  0  0  0  0  0
    2.3714   -3.0200    2.6810 C   0  0  0  0  0  0  0  0  0  0  0  0
    3.4956   -3.2444    1.6483 C   0  0  0  0  0  0  0  0  0  0  0  0
    3.9761   -1.9770    1.0647 N   0  0  0  0  0  0  0  0  0  0  0  0
    5.2352   -1.9679   -0.1169 S   0  0  0  0  0  0  0  0  0  0  0  0
    5.9114   -0.6620   -0.0684 O   0  0  0  0  0  0  0  0  0  0  0  0
    5.9929   -3.2197    0.0153 O   0  0  0  0  0  0  0  0  0  0  0  0
    4.3721   -2.0541   -1.6655 C   0  0  0  0  0  0  0  0  0  0  0  0
    3.7517   -3.1596   -2.1814 C   0  0  0  0  0  0  0  0  0  0  0  0
    3.1211   -2.9070   -3.4344 C   0  0  0  0  0  0  0  0  0  0  0  0
    3.2861   -1.6140   -3.8630 C   0  0  0  0  0  0  0  0  0  0  0  0
    4.2099   -0.6758   -2.7193 S   0  0  0  0  0  0  0  0  0  0  0  0
    3.2067   -0.7623    1.3748 C   0  0  0  0  0  0  0  0  0  0  0  0
    3.0669   -0.6152    2.9049 C   0  0  0  0  0  0  0  0  0  0  0  0
    1.0738   -4.6970    6.3332 H   0  0  0  0  0  0  0  0  0  0  0  0
   -0.6289   -4.9604    6.0157 H   0  0  0  0  0  0  0  0  0  0  0  0
   -0.1039   -4.3695    7.5967 H   0  0  0  0  0  0  0  0  0  0  0  0
    0.2211    0.1686    4.8911 H   0  0  0  0  0  0  0  0  0  0  0  0
    2.2112   -3.9229    3.2714 H   0  0  0  0  0  0  0  0  0  0  0  0
    1.4253   -2.8022    2.1843 H   0  0  0  0  0  0  0  0  0  0  0  0
    4.3400   -3.7372    2.1331 H   0  0  0  0  0  0  0  0  0  0  0  0
    3.1534   -3.9091    0.8533 H   0  0  0  0  0  0  0  0  0  0  0  0
    3.7173   -4.1235   -1.6914 H   0  0  0  0  0  0  0  0  0  0  0  0
    2.5574   -3.6696   -3.9515 H   0  0  0  0  0  0  0  0  0  0  0  0
    2.8879   -1.1472   -4.7492 H   0  0  0  0  0  0  0  0  0  0  0  0
    3.6963    0.1154    0.9520 H   0  0  0  0  0  0  0  0  0  0  0  0
    2.2277   -0.8228    0.8938 H   0  0  0  0  0  0  0  0  0  0  0  0
    2.3245    0.1448    3.1485 H   0  0  0  0  0  0  0  0  0  0  0  0
    4.0178   -0.2769    3.3198 H   0  0  0  0  0  0  0  0  0  0  0  0
  1  2  1  0
  1 24  1  0
  1 25  1  0
  1 26  1  0
  2  6  2  0
  2  3  1  0
  3  4  1  0
  4  5  2  0
  5  6  1  0
  5 27  1  0
  6  7  1  0
  7  8  2  0
  7  9  2  0
  7 10  1  0
 10 23  1  0
 10 11  1  0
 11 12  1  0
 11 28  1  0
 11 29  1  0
 12 13  1  0
 12 30  1  0
 12 31  1  0
 13 14  1  0
 13 22  1  0
 14 15  2  0
 14 16  2  0
 14 17  1  0
 17 21  1  0
 17 18  2  0
 18 19  1  0
 18 32  1  0
 19 20  2  0
 19 33  1  0
 20 21  1  0
 20 34  1  0
 22 23  1  0
 22 35  1  0
 22 36  1  0
 23 37  1  0
 23 38  1  0
M  END
>  <i_m_ct_stereo_status>  (376) 
1

>  <s_m_source_file>  (376) 
/var/tmp/pbs.5076255.sched01/tmpnhftudgm/135squ2m_dv.sdf

>  <i_m_source_file_index>  (376) 
21

>  <i_lp_mmshare_version>  (376) 
48012

>  <i_f3d_flags>  (376) 
0

>  <s_epik_input>  (376) 
W0NIM11jMW9uW2NIXWMxUyg9TykoPU8pTjJbQ0gyXVtDSDJdTihbQ0gyXVtDSDJdMilTKD1PKSg9TyljM1tjSF1bY0hdW2NIXXMz

>  <s_epik_cmdline>  (376) 
J2VwaWtfcHl0aG9uJywgJy1waHQnLCAnMi4wJywgJy1waCcsICc3LjAnLCAnLXRuJywgJzgnLCAnLW1hJywgJzIwMCcsICctaW1hZScsICc8aW5maWxlLm1hZT4nLCAnLW9tYWUnLCAnPG91dGZpbGUubWFlPic=

>  <r_lp_tautomer_probability>  (376) 
1

>  <r_epik_Ionization_Penalty>  (376) 
2.35481e-11

>  <r_epik_Ionization_Penalty_Charging>  (376) 
0

>  <r_epik_Ionization_Penalty_Neutral>  (376) 
2.35481e-11

>  <r_epik_State_Penalty>  (376) 
-0

>  <r_epik_Charging_Adjusted_Penalty>  (376) 
0

>  <i_epik_Tot_Q>  (376) 
0

>  <i_epik_Tot_abs_Q>  (376) 
0

>  <s_lp_Force_Field>  (376) 
OPLS3e

>  <r_lp_Energy>  (376) 
-8.24154

>  <b_lp_Chiralities_Consistent>  (376) 
1

>  <s_lp_Variant>  (376) 
103:0-1

>  <s_i_glide_gridfile>  (376) 
pfpi4k_grid

>  <i_i_glide_lignum>  (376) 
21

>  <i_i_glide_rotatable_bonds>  (376) 
4

>  <r_i_docking_score>  (376) 
-2.96728

>  <r_i_glide_ligand_efficiency>  (376) 
-0.129012

>  <r_i_glide_ligand_efficiency_sa>  (376) 
-0.366893

>  <r_i_glide_ligand_efficiency_ln>  (376) 
-0.717515

>  <r_i_glide_gscore>  (376) 
-2.96728

>  <r_i_glide_lipo>  (376) 
-0.39969

>  <r_i_glide_hbond>  (376) 
0

>  <r_i_glide_metal>  (376) 
-0

>  <r_i_glide_rewards>  (376) 
-0.835482

>  <r_i_glide_evdw>  (376) 
-27.7931

>  <r_i_glide_ecoul>  (376) 
-5.01564

>  <r_i_glide_erotb>  (376) 
0.543767

>  <r_i_glide_esite>  (376) 
-0.133872

>  <r_i_glide_emodel>  (376) 
-39.4331

>  <r_i_glide_energy>  (376) 
-32.8087

>  <r_i_glide_einternal>  (376) 
0.544242

>  <r_i_glide_intrahb_reward>  (376) 
-0

>  <i_i_glide_confnum>  (376) 
2

>  <i_i_glide_posenum>  (376) 
1

>  <r_i_glide_eff_state_penalty>  (376) 
0

>  <ligand_id>  (376) 
103

>  <original_smiles>  (376) 
Cc1oncc1S(=O)(=O)N1CCN(S(=O)(=O)c2cccs2)CC1

>  <smiles>  (376) 
[H]c1noc(C([H])([H])[H])c1S(=O)(=O)N1C([H])([H])C([H])([H])N(S(=O)(=O)c2sc([H])c([H])c2[H])C([H])([H])C1([H])[H]

$$$$
104:0:0
     RDKit          3D

 32 34  0  0  1  0  0  0  0  0999 V2000
    7.1692   -5.8593    1.0223 C   0  0  0  0  0  0  0  0  0  0  0  0
    6.0819   -5.0038    1.7241 C   0  0  2  0  0  0  0  0  0  0  0  0
    4.8924   -5.7691    1.9536 O   0  0  0  0  0  0  0  0  0  0  0  0
    4.1596   -5.7273    0.7659 C   0  0  1  0  0  0  0  0  0  0  0  0
    2.7456   -6.1077    1.0243 N   0  0  0  0  0  0  0  0  0  0  0  0
    2.2128   -6.9160    2.0242 C   0  0  0  0  0  0  0  0  0  0  0  0
    0.8913   -7.0079    1.6902 C   0  0  0  0  0  0  0  0  0  0  0  0
   -0.1781   -7.6232    2.3821 C   0  0  0  0  0  0  0  0  0  0  0  0
   -1.0810   -8.0505    2.9669 N   0  0  0  0  0  0  0  0  0  0  0  0
    0.6883   -6.2765    0.5118 N   0  0  0  0  0  0  0  0  0  0  0  0
    1.8148   -5.8100    0.0990 N   0  0  0  0  0  0  0  0  0  0  0  0
    4.3594   -4.3197    0.1534 C   0  0  1  0  0  0  0  0  0  0  0  0
    3.3454   -3.3847    0.5076 O   0  0  0  0  0  0  0  0  0  0  0  0
    4.0529   -2.2441    0.8588 C   0  0  0  0  0  0  0  0  0  0  0  0
    4.4494   -1.4633   -0.4188 C   0  0  0  0  0  0  0  0  0  0  0  0
    3.1736   -1.3425    1.7366 C   0  0  0  0  0  0  0  0  0  0  0  0
    5.1983   -2.6489    1.5523 O   0  0  0  0  0  0  0  0  0  0  0  0
    5.6247   -3.8194    0.8495 C   0  0  1  0  0  0  0  0  0  0  0  0
    8.0599   -5.2708    0.7962 H   0  0  0  0  0  0  0  0  0  0  0  0
    6.8168   -6.2526    0.0704 H   0  0  0  0  0  0  0  0  0  0  0  0
    7.4901   -6.7125    1.6277 H   0  0  0  0  0  0  0  0  0  0  0  0
    6.4544   -4.6799    2.6914 H   0  0  0  0  0  0  0  0  0  0  0  0
    4.5128   -6.5203    0.1055 H   0  0  0  0  0  0  0  0  0  0  0  0
    2.7759   -7.3541    2.8399 H   0  0  0  0  0  0  0  0  0  0  0  0
    4.5002   -4.3972   -0.9261 H   0  0  0  0  0  0  0  0  0  0  0  0
    5.0446   -2.0455   -1.1384 H   0  0  0  0  0  0  0  0  0  0  0  0
    5.0200   -0.5800   -0.1253 H   0  0  0  0  0  0  0  0  0  0  0  0
    3.5388   -1.1228   -0.9197 H   0  0  0  0  0  0  0  0  0  0  0  0
    2.8653   -1.8151    2.6796 H   0  0  0  0  0  0  0  0  0  0  0  0
    2.2792   -1.0562    1.1742 H   0  0  0  0  0  0  0  0  0  0  0  0
    3.7127   -0.4177    1.9531 H   0  0  0  0  0  0  0  0  0  0  0  0
    6.3948   -3.5220    0.1407 H   0  0  0  0  0  0  0  0  0  0  0  0
  1  2  1  0
  1 19  1  0
  1 20  1  0
  1 21  1  0
  2 18  1  0
  2  3  1  0
  2 22  1  1
  3  4  1  0
  4  5  1  0
  4 12  1  0
  4 23  1  6
  5 11  1  0
  5  6  1  0
  6  7  2  0
  6 24  1  0
  7  8  1  0
  7 10  1  0
  8  9  3  0
 10 11  2  0
 12 18  1  0
 12 13  1  0
 12 25  1  6
 13 14  1  0
 14 15  1  0
 14 16  1  0
 14 17  1  0
 15 26  1  0
 15 27  1  0
 15 28  1  0
 16 29  1  0
 16 30  1  0
 16 31  1  0
 17 18  1  0
 18 32  1  6
M  END
>  <i_m_ct_stereo_status>  (377) 
1

>  <s_m_source_file>  (377) 
/var/tmp/pbs.5076255.sched01/tmpnhftudgm/135squ2m_dv.sdf

>  <i_m_source_file_index>  (377) 
22

>  <i_lp_mmshare_version>  (377) 
48012

>  <i_f3d_flags>  (377) 
0

>  <s_epik_input>  (377) 
TzFDKFtDSDNdKShbQ0gzXSlPW0NASF0oW0NASF0xMilbQ0BIXShbQ0gzXSlPW0NASF0ybjNbY0hdYyhDI04pbm4z

>  <s_epik_cmdline>  (377) 
J2VwaWtfcHl0aG9uJywgJy1waHQnLCAnMi4wJywgJy1waCcsICc3LjAnLCAnLXRuJywgJzgnLCAnLW1hJywgJzIwMCcsICctaW1hZScsICc8aW5maWxlLm1hZT4nLCAnLW9tYWUnLCAnPG91dGZpbGUubWFlPic=

>  <r_lp_tautomer_probability>  (377) 
1

>  <r_epik_Ionization_Penalty>  (377) 
3.28896e-15

>  <r_epik_Ionization_Penalty_Charging>  (377) 
0

>  <r_epik_Ionization_Penalty_Neutral>  (377) 
3.28896e-15

>  <r_epik_State_Penalty>  (377) 
-0

>  <r_epik_Charging_Adjusted_Penalty>  (377) 
0

>  <i_epik_Tot_Q>  (377) 
0

>  <i_epik_Tot_abs_Q>  (377) 
0

>  <s_epik_Chemistry_Notes>  (377) 
This compound contains an acetal/aminal-like group ( X-CH(R)-Y where X, Y are N, S, or O) that may be acid/base labile, releasing an aldehyde.

>  <s_lp_Force_Field>  (377) 
OPLS3e

>  <r_lp_Energy>  (377) 
-5.396

>  <b_lp_Chiralities_Consistent>  (377) 
1

>  <s_lp_Variant>  (377) 
104:0-1

>  <s_i_glide_gridfile>  (377) 
pfpi4k_grid

>  <i_i_glide_lignum>  (377) 
22

>  <i_i_glide_rotatable_bonds>  (377) 
2

>  <r_i_docking_score>  (377) 
-3.63563

>  <r_i_glide_ligand_efficiency>  (377) 
-0.201979

>  <r_i_glide_ligand_efficiency_sa>  (377) 
-0.529336

>  <r_i_glide_ligand_efficiency_ln>  (377) 
-0.93452

>  <r_i_glide_gscore>  (377) 
-3.63563

>  <r_i_glide_lipo>  (377) 
-0.212076

>  <r_i_glide_hbond>  (377) 
0

>  <r_i_glide_metal>  (377) 
-0

>  <r_i_glide_rewards>  (377) 
-1.79605

>  <r_i_glide_evdw>  (377) 
-21.5888

>  <r_i_glide_ecoul>  (377) 
-3.76721

>  <r_i_glide_erotb>  (377) 
0.279513

>  <r_i_glide_esite>  (377) 
-0.262491

>  <r_i_glide_emodel>  (377) 
-30.4863

>  <r_i_glide_energy>  (377) 
-25.356

>  <r_i_glide_einternal>  (377) 
0.461476

>  <r_i_glide_intrahb_reward>  (377) 
-0

>  <i_i_glide_confnum>  (377) 
1

>  <i_i_glide_posenum>  (377) 
26

>  <r_i_glide_eff_state_penalty>  (377) 
0

>  <ligand_id>  (377) 
104

>  <original_smiles>  (377) 
CC1OC(n2cc(C#N)nn2)C2OC(C)(C)OC12

>  <smiles>  (377) 
[H]c1c(C#N)nnn1C1([H])OC([H])(C([H])([H])[H])C2([H])OC(C([H])([H])[H])(C([H])([H])[H])OC12[H]

$$$$
104:0:1
     RDKit          3D

 32 34  0  0  1  0  0  0  0  0999 V2000
    7.1024   -4.0789    0.7067 C   0  0  0  0  0  0  0  0  0  0  0  0
    6.6491   -2.7835   -0.0358 C   0  0  2  0  0  0  0  0  0  0  0  0
    5.9266   -1.8925    0.8252 O   0  0  0  0  0  0  0  0  0  0  0  0
    4.6248   -2.3789    0.8481 C   0  0  1  0  0  0  0  0  0  0  0  0
    3.6726   -1.3686    1.3858 N   0  0  0  0  0  0  0  0  0  0  0  0
    2.5818   -1.5755    2.2041 C   0  0  0  0  0  0  0  0  0  0  0  0
    2.0383   -0.3467    2.3421 C   0  0  0  0  0  0  0  0  0  0  0  0
    0.8537    0.0174    3.0222 C   0  0  0  0  0  0  0  0  0  0  0  0
   -0.1030    0.2995    3.6036 N   0  0  0  0  0  0  0  0  0  0  0  0
    2.8460    0.5712    1.6728 N   0  0  0  0  0  0  0  0  0  0  0  0
    3.8250   -0.0551    1.1047 N   0  0  0  0  0  0  0  0  0  0  0  0
    4.2755   -2.8758   -0.5761 C   0  0  1  0  0  0  0  0  0  0  0  0
    3.6579   -1.8954   -1.3869 O   0  0  0  0  0  0  0  0  0  0  0  0
    4.3546   -1.9888   -2.5799 C   0  0  0  0  0  0  0  0  0  0  0  0
    3.8010   -3.1786   -3.4202 C   0  0  0  0  0  0  0  0  0  0  0  0
    4.1646   -0.6897   -3.3734 C   0  0  0  0  0  0  0  0  0  0  0  0
    5.7090   -2.2002   -2.2847 O   0  0  0  0  0  0  0  0  0  0  0  0
    5.6672   -3.1040   -1.1886 C   0  0  1  0  0  0  0  0  0  0  0  0
    7.6225   -4.7645    0.0363 H   0  0  0  0  0  0  0  0  0  0  0  0
    6.2637   -4.6460    1.1390 H   0  0  0  0  0  0  0  0  0  0  0  0
    7.7936   -3.8546    1.5278 H   0  0  0  0  0  0  0  0  0  0  0  0
    7.5213   -2.2348   -0.3932 H   0  0  0  0  0  0  0  0  0  0  0  0
    4.5789   -3.1917    1.5798 H   0  0  0  0  0  0  0  0  0  0  0  0
    2.2837   -2.5415    2.5843 H   0  0  0  0  0  0  0  0  0  0  0  0
    3.7008   -3.8047   -0.5294 H   0  0  0  0  0  0  0  0  0  0  0  0
    3.8595   -4.1485   -2.9102 H   0  0  0  0  0  0  0  0  0  0  0  0
    4.3791   -3.2488   -4.3360 H   0  0  0  0  0  0  0  0  0  0  0  0
    2.7602   -2.9775   -3.6644 H   0  0  0  0  0  0  0  0  0  0  0  0
    4.5581    0.1840   -2.8382 H   0  0  0  0  0  0  0  0  0  0  0  0
    3.1007   -0.5595   -3.5601 H   0  0  0  0  0  0  0  0  0  0  0  0
    4.6582   -0.8083   -4.3338 H   0  0  0  0  0  0  0  0  0  0  0  0
    5.7855   -4.1130   -1.5828 H   0  0  0  0  0  0  0  0  0  0  0  0
  1  2  1  0
  1 19  1  0
  1 20  1  0
  1 21  1  0
  2 18  1  0
  2  3  1  0
  2 22  1  6
  3  4  1  0
  4  5  1  0
  4 12  1  0
  4 23  1  1
  5 11  1  0
  5  6  1  0
  6  7  2  0
  6 24  1  0
  7  8  1  0
  7 10  1  0
  8  9  3  0
 10 11  2  0
 12 18  1  0
 12 13  1  0
 12 25  1  1
 13 14  1  0
 14 15  1  0
 14 16  1  0
 14 17  1  0
 15 26  1  0
 15 27  1  0
 15 28  1  0
 16 29  1  0
 16 30  1  0
 16 31  1  0
 17 18  1  0
 18 32  1  6
M  END
>  <i_m_ct_stereo_status>  (378) 
1

>  <s_m_source_file>  (378) 
/var/tmp/pbs.5076255.sched01/tmpnhftudgm/135squ2m_dv.sdf

>  <i_m_source_file_index>  (378) 
22

>  <i_lp_mmshare_version>  (378) 
48012

>  <i_f3d_flags>  (378) 
0

>  <s_epik_input>  (378) 
TzFDKFtDSDNdKShbQ0gzXSlPW0NASF0oW0NASF0xMilbQ0BIXShbQ0gzXSlPW0NASF0ybjNbY0hdYyhDI04pbm4z

>  <s_epik_cmdline>  (378) 
J2VwaWtfcHl0aG9uJywgJy1waHQnLCAnMi4wJywgJy1waCcsICc3LjAnLCAnLXRuJywgJzgnLCAnLW1hJywgJzIwMCcsICctaW1hZScsICc8aW5maWxlLm1hZT4nLCAnLW9tYWUnLCAnPG91dGZpbGUubWFlPic=

>  <r_lp_tautomer_probability>  (378) 
1

>  <r_epik_Ionization_Penalty>  (378) 
3.28896e-15

>  <r_epik_Ionization_Penalty_Charging>  (378) 
0

>  <r_epik_Ionization_Penalty_Neutral>  (378) 
3.28896e-15

>  <r_epik_State_Penalty>  (378) 
-0

>  <r_epik_Charging_Adjusted_Penalty>  (378) 
0

>  <i_epik_Tot_Q>  (378) 
0

>  <i_epik_Tot_abs_Q>  (378) 
0

>  <s_epik_Chemistry_Notes>  (378) 
This compound contains an acetal/aminal-like group ( X-CH(R)-Y where X, Y are N, S, or O) that may be acid/base labile, releasing an aldehyde.

>  <s_lp_Force_Field>  (378) 
OPLS3e

>  <r_lp_Energy>  (378) 
-5.396

>  <b_lp_Chiralities_Consistent>  (378) 
1

>  <s_lp_Variant>  (378) 
104:0-1

>  <s_i_glide_gridfile>  (378) 
pfpi4k_grid

>  <i_i_glide_lignum>  (378) 
22

>  <i_i_glide_rotatable_bonds>  (378) 
2

>  <r_i_docking_score>  (378) 
-3.50371

>  <r_i_glide_ligand_efficiency>  (378) 
-0.194651

>  <r_i_glide_ligand_efficiency_sa>  (378) 
-0.510129

>  <r_i_glide_ligand_efficiency_ln>  (378) 
-0.900612

>  <r_i_glide_gscore>  (378) 
-3.50371

>  <r_i_glide_lipo>  (378) 
-0.601197

>  <r_i_glide_hbond>  (378) 
0

>  <r_i_glide_metal>  (378) 
-0

>  <r_i_glide_rewards>  (378) 
-1.75135

>  <r_i_glide_evdw>  (378) 
-26.5802

>  <r_i_glide_ecoul>  (378) 
-0.383547

>  <r_i_glide_erotb>  (378) 
0.279513

>  <r_i_glide_esite>  (378) 
-0.0441385

>  <r_i_glide_emodel>  (378) 
-31.5073

>  <r_i_glide_energy>  (378) 
-26.9638

>  <r_i_glide_einternal>  (378) 
0.859632

>  <r_i_glide_intrahb_reward>  (378) 
-0

>  <i_i_glide_confnum>  (378) 
2

>  <i_i_glide_posenum>  (378) 
27

>  <r_i_glide_eff_state_penalty>  (378) 
0

>  <ligand_id>  (378) 
104

>  <original_smiles>  (378) 
CC1OC(n2cc(C#N)nn2)C2OC(C)(C)OC12

>  <smiles>  (378) 
[H]c1c(C#N)nnn1C1([H])OC([H])(C([H])([H])[H])C2([H])OC(C([H])([H])[H])(C([H])([H])[H])OC12[H]

$$$$
104:0:2
     RDKit          3D

 32 34  0  0  1  0  0  0  0  0999 V2000
    7.6719   -3.9308    0.4398 C   0  0  0  0  0  0  0  0  0  0  0  0
    7.0695   -2.6490   -0.2078 C   0  0  2  0  0  0  0  0  0  0  0  0
    6.4458   -1.8032    0.7674 O   0  0  0  0  0  0  0  0  0  0  0  0
    5.1755   -2.3397    0.9929 C   0  0  1  0  0  0  0  0  0  0  0  0
    4.2643   -1.3415    1.6237 N   0  0  0  0  0  0  0  0  0  0  0  0
    2.8982   -1.2849    1.5324 C   0  0  0  0  0  0  0  0  0  0  0  0
    2.5462   -0.2453    2.3343 C   0  0  0  0  0  0  0  0  0  0  0  0
    1.2496    0.2885    2.5279 C   0  0  0  0  0  0  0  0  0  0  0  0
    0.1811    0.6963    2.6712 N   0  0  0  0  0  0  0  0  0  0  0  0
    3.6978    0.2061    2.9750 N   0  0  0  0  0  0  0  0  0  0  0  0
    4.7293   -0.4612    2.5467 N   0  0  0  0  0  0  0  0  0  0  0  0
    4.6618   -2.8424   -0.3763 C   0  0  1  0  0  0  0  0  0  0  0  0
    3.8766   -1.8871   -1.0768 O   0  0  0  0  0  0  0  0  0  0  0  0
    4.3746   -1.9157   -2.3659 C   0  0  0  0  0  0  0  0  0  0  0  0
    3.7505   -3.1012   -3.1381 C   0  0  0  0  0  0  0  0  0  0  0  0
    4.0058   -0.6151   -3.0950 C   0  0  0  0  0  0  0  0  0  0  0  0
    5.7615   -2.0673   -2.2729 O   0  0  0  0  0  0  0  0  0  0  0  0
    5.9372   -2.9860   -1.1984 C   0  0  1  0  0  0  0  0  0  0  0  0
    8.1076   -4.5821   -0.3217 H   0  0  0  0  0  0  0  0  0  0  0  0
    6.9252   -4.5322    0.9717 H   0  0  0  0  0  0  0  0  0  0  0  0
    8.4677   -3.6993    1.1553 H   0  0  0  0  0  0  0  0  0  0  0  0
    7.8673   -2.0805   -0.6767 H   0  0  0  0  0  0  0  0  0  0  0  0
    5.2445   -3.1285    1.7441 H   0  0  0  0  0  0  0  0  0  0  0  0
    2.3119   -1.9464    0.9184 H   0  0  0  0  0  0  0  0  0  0  0  0
    4.1428   -3.7939   -0.2568 H   0  0  0  0  0  0  0  0  0  0  0  0
    3.9231   -4.0701   -2.6575 H   0  0  0  0  0  0  0  0  0  0  0  0
    4.1729   -3.1313   -4.1408 H   0  0  0  0  0  0  0  0  0  0  0  0
    2.6742   -2.9447   -3.2221 H   0  0  0  0  0  0  0  0  0  0  0  0
    4.4273    0.2789   -2.6248 H   0  0  0  0  0  0  0  0  0  0  0  0
    2.9184   -0.5216   -3.1233 H   0  0  0  0  0  0  0  0  0  0  0  0
    4.3485   -0.6815   -4.1264 H   0  0  0  0  0  0  0  0  0  0  0  0
    6.0340   -3.9831   -1.6198 H   0  0  0  0  0  0  0  0  0  0  0  0
  1  2  1  0
  1 19  1  0
  1 20  1  0
  1 21  1  0
  2 18  1  0
  2  3  1  0
  2 22  1  6
  3  4  1  0
  4  5  1  0
  4 12  1  0
  4 23  1  1
  5 11  1  0
  5  6  1  0
  6  7  2  0
  6 24  1  0
  7  8  1  0
  7 10  1  0
  8  9  3  0
 10 11  2  0
 12 18  1  0
 12 13  1  0
 12 25  1  1
 13 14  1  0
 14 15  1  0
 14 16  1  0
 14 17  1  0
 15 26  1  0
 15 27  1  0
 15 28  1  0
 16 29  1  0
 16 30  1  0
 16 31  1  0
 17 18  1  0
 18 32  1  6
M  END
>  <i_m_ct_stereo_status>  (379) 
1

>  <s_m_source_file>  (379) 
/var/tmp/pbs.5076255.sched01/tmpnhftudgm/135squ2m_dv.sdf

>  <i_m_source_file_index>  (379) 
22

>  <i_lp_mmshare_version>  (379) 
48012

>  <i_f3d_flags>  (379) 
0

>  <s_epik_input>  (379) 
TzFDKFtDSDNdKShbQ0gzXSlPW0NASF0oW0NASF0xMilbQ0BIXShbQ0gzXSlPW0NASF0ybjNbY0hdYyhDI04pbm4z

>  <s_epik_cmdline>  (379) 
J2VwaWtfcHl0aG9uJywgJy1waHQnLCAnMi4wJywgJy1waCcsICc3LjAnLCAnLXRuJywgJzgnLCAnLW1hJywgJzIwMCcsICctaW1hZScsICc8aW5maWxlLm1hZT4nLCAnLW9tYWUnLCAnPG91dGZpbGUubWFlPic=

>  <r_lp_tautomer_probability>  (379) 
1

>  <r_epik_Ionization_Penalty>  (379) 
3.28896e-15

>  <r_epik_Ionization_Penalty_Charging>  (379) 
0

>  <r_epik_Ionization_Penalty_Neutral>  (379) 
3.28896e-15

>  <r_epik_State_Penalty>  (379) 
-0

>  <r_epik_Charging_Adjusted_Penalty>  (379) 
0

>  <i_epik_Tot_Q>  (379) 
0

>  <i_epik_Tot_abs_Q>  (379) 
0

>  <s_epik_Chemistry_Notes>  (379) 
This compound contains an acetal/aminal-like group ( X-CH(R)-Y where X, Y are N, S, or O) that may be acid/base labile, releasing an aldehyde.

>  <s_lp_Force_Field>  (379) 
OPLS3e

>  <r_lp_Energy>  (379) 
-5.396

>  <b_lp_Chiralities_Consistent>  (379) 
1

>  <s_lp_Variant>  (379) 
104:0-1

>  <s_i_glide_gridfile>  (379) 
pfpi4k_grid

>  <i_i_glide_lignum>  (379) 
22

>  <i_i_glide_rotatable_bonds>  (379) 
2

>  <r_i_docking_score>  (379) 
-3.40719

>  <r_i_glide_ligand_efficiency>  (379) 
-0.189288

>  <r_i_glide_ligand_efficiency_sa>  (379) 
-0.496076

>  <r_i_glide_ligand_efficiency_ln>  (379) 
-0.8758

>  <r_i_glide_gscore>  (379) 
-3.40719

>  <r_i_glide_lipo>  (379) 
-0.475741

>  <r_i_glide_hbond>  (379) 
0

>  <r_i_glide_metal>  (379) 
-0

>  <r_i_glide_rewards>  (379) 
-1.75747

>  <r_i_glide_evdw>  (379) 
-26.3074

>  <r_i_glide_ecoul>  (379) 
-0.665578

>  <r_i_glide_erotb>  (379) 
0.279513

>  <r_i_glide_esite>  (379) 
-0.038285

>  <r_i_glide_emodel>  (379) 
-30.4265

>  <r_i_glide_energy>  (379) 
-26.973

>  <r_i_glide_einternal>  (379) 
2.72338

>  <r_i_glide_intrahb_reward>  (379) 
-0

>  <i_i_glide_confnum>  (379) 
1

>  <i_i_glide_posenum>  (379) 
33

>  <r_i_glide_eff_state_penalty>  (379) 
0

>  <ligand_id>  (379) 
104

>  <original_smiles>  (379) 
CC1OC(n2cc(C#N)nn2)C2OC(C)(C)OC12

>  <smiles>  (379) 
[H]c1c(C#N)nnn1C1([H])OC([H])(C([H])([H])[H])C2([H])OC(C([H])([H])[H])(C([H])([H])[H])OC12[H]

$$$$
105:0:0
     RDKit          3D

 25 26  0  0  1  0  0  0  0  0999 V2000
   -0.4093   -1.9697    5.0321 C   0  0  0  0  0  0  0  0  0  0  0  0
   -1.0640   -1.1464    6.0009 O   0  0  0  0  0  0  0  0  0  0  0  0
   -1.3655    0.1518    5.6347 C   0  0  0  0  0  0  0  0  0  0  0  0
   -1.8232    0.9366    6.6498 N   0  0  0  0  0  0  0  0  0  0  0  0
   -2.1235    2.2248    6.3313 C   0  0  0  0  0  0  0  0  0  0  0  0
   -2.6118    3.1007    7.2862 O   0  0  0  0  0  0  0  0  0  0  0  0
   -2.7187    2.7358    8.6619 C   0  0  0  0  0  0  0  0  0  0  0  0
   -4.0314    3.3374    9.1825 C   0  0  0  0  0  0  0  0  0  0  0  0
   -1.5036    3.2761    9.4282 C   0  0  0  0  0  0  0  0  0  0  0  0
   -1.9792    2.6997    5.0053 C   0  0  0  0  0  0  0  0  0  0  0  0
   -2.1846    3.8390    4.3608 N   0  0  0  0  0  0  0  0  0  0  0  0
   -1.8273    3.5735    3.0554 N   0  0  0  0  0  0  0  0  0  0  0  0
   -1.4209    2.3539    2.8770 N   0  0  0  0  0  0  0  0  0  0  0  0
   -1.5071    1.7667    4.0885 N   0  0  0  0  0  0  0  0  0  0  0  0
   -1.1859    0.4994    4.3346 N   0  0  0  0  0  0  0  0  0  0  0  0
   -0.2340   -2.9676    5.4310 H   0  0  0  0  0  0  0  0  0  0  0  0
    0.5597   -1.5486    4.7624 H   0  0  0  0  0  0  0  0  0  0  0  0
   -0.9978   -2.0865    4.1223 H   0  0  0  0  0  0  0  0  0  0  0  0
   -2.7773    1.6633    8.8182 H   0  0  0  0  0  0  0  0  0  0  0  0
   -4.1852    3.0743   10.2300 H   0  0  0  0  0  0  0  0  0  0  0  0
   -4.8859    2.9572    8.6209 H   0  0  0  0  0  0  0  0  0  0  0  0
   -4.0399    4.4259    9.1033 H   0  0  0  0  0  0  0  0  0  0  0  0
   -1.5811    3.0281   10.4885 H   0  0  0  0  0  0  0  0  0  0  0  0
   -1.4264    4.3622    9.3506 H   0  0  0  0  0  0  0  0  0  0  0  0
   -0.5754    2.8458    9.0511 H   0  0  0  0  0  0  0  0  0  0  0  0
  1  2  1  0
  1 16  1  0
  1 17  1  0
  1 18  1  0
  2  3  1  0
  3 15  2  0
  3  4  1  0
  4  5  2  0
  5  6  1  0
  5 10  1  0
  6  7  1  0
  7  8  1  0
  7  9  1  0
  7 19  1  0
  8 20  1  0
  8 21  1  0
  8 22  1  0
  9 23  1  0
  9 24  1  0
  9 25  1  0
 10 14  1  0
 10 11  2  0
 11 12  1  0
 12 13  2  0
 13 14  1  0
 14 15  1  0
M  END
>  <i_m_ct_stereo_status>  (380) 
1

>  <s_m_source_file>  (380) 
/var/tmp/pbs.5076255.sched01/tmpnhftudgm/135squ2m_dv.sdf

>  <i_m_source_file_index>  (380) 
23

>  <i_lp_mmshare_version>  (380) 
48012

>  <i_f3d_flags>  (380) 
0

>  <s_epik_input>  (380) 
bjFubm4oYzEyKW5jKE9bQ0gzXSluYzJPW0NIXShbQ0gzXSlbQ0gzXQ==

>  <s_epik_cmdline>  (380) 
J2VwaWtfcHl0aG9uJywgJy1waHQnLCAnMi4wJywgJy1waCcsICc3LjAnLCAnLXRuJywgJzgnLCAnLW1hJywgJzIwMCcsICctaW1hZScsICc8aW5maWxlLm1hZT4nLCAnLW9tYWUnLCAnPG91dGZpbGUubWFlPic=

>  <r_lp_tautomer_probability>  (380) 
1

>  <r_epik_Ionization_Penalty>  (380) 
3.81661e-11

>  <r_epik_Ionization_Penalty_Charging>  (380) 
0

>  <r_epik_Ionization_Penalty_Neutral>  (380) 
3.81661e-11

>  <r_epik_State_Penalty>  (380) 
-0

>  <r_epik_Charging_Adjusted_Penalty>  (380) 
0

>  <i_epik_Tot_Q>  (380) 
0

>  <i_epik_Tot_abs_Q>  (380) 
0

>  <s_lp_Force_Field>  (380) 
OPLS3e

>  <r_lp_Energy>  (380) 
6.30219

>  <b_lp_Chiralities_Consistent>  (380) 
1

>  <s_lp_Variant>  (380) 
105:0-1

>  <s_i_glide_gridfile>  (380) 
pfpi4k_grid

>  <i_i_glide_lignum>  (380) 
23

>  <i_i_glide_rotatable_bonds>  (380) 
3

>  <r_i_docking_score>  (380) 
-3.60593

>  <r_i_glide_ligand_efficiency>  (380) 
-0.240396

>  <r_i_glide_ligand_efficiency_sa>  (380) 
-0.592867

>  <r_i_glide_ligand_efficiency_ln>  (380) 
-0.972461

>  <r_i_glide_gscore>  (380) 
-3.60593

>  <r_i_glide_lipo>  (380) 
-0.129927

>  <r_i_glide_hbond>  (380) 
-0.141061

>  <r_i_glide_metal>  (380) 
-0

>  <r_i_glide_rewards>  (380) 
-1.97595

>  <r_i_glide_evdw>  (380) 
-20.2285

>  <r_i_glide_ecoul>  (380) 
-3.05765

>  <r_i_glide_erotb>  (380) 
0.375764

>  <r_i_glide_esite>  (380) 
-0.264681

>  <r_i_glide_emodel>  (380) 
-27.2782

>  <r_i_glide_energy>  (380) 
-23.2862

>  <r_i_glide_einternal>  (380) 
2.71879

>  <r_i_glide_intrahb_reward>  (380) 
-0

>  <i_i_glide_confnum>  (380) 
1

>  <i_i_glide_posenum>  (380) 
35

>  <r_i_glide_eff_state_penalty>  (380) 
0

>  <ligand_id>  (380) 
105

>  <original_smiles>  (380) 
COc1nc(OC(C)C)c2nnnn2n1

>  <smiles>  (380) 
[H]C([H])([H])Oc1nc(OC([H])(C([H])([H])[H])C([H])([H])[H])c2nnnn2n1

$$$$
105:0:1
     RDKit          3D

 25 26  0  0  1  0  0  0  0  0999 V2000
   -0.1905    5.2510    3.3576 C   0  0  0  0  0  0  0  0  0  0  0  0
   -0.5953    5.0740    4.7122 O   0  0  0  0  0  0  0  0  0  0  0  0
   -0.9590    3.8004    5.1093 C   0  0  0  0  0  0  0  0  0  0  0  0
   -1.3936    3.7194    6.3957 N   0  0  0  0  0  0  0  0  0  0  0  0
   -1.7995    2.4979    6.8239 C   0  0  0  0  0  0  0  0  0  0  0  0
   -2.2962    2.3128    8.1041 O   0  0  0  0  0  0  0  0  0  0  0  0
   -2.1828    3.3282    9.0976 C   0  0  0  0  0  0  0  0  0  0  0  0
   -2.3794    2.6286   10.4560 C   0  0  0  0  0  0  0  0  0  0  0  0
   -3.2534    4.4129    8.8997 C   0  0  0  0  0  0  0  0  0  0  0  0
   -1.7332    1.3707    5.9765 C   0  0  0  0  0  0  0  0  0  0  0  0
   -2.0094    0.0776    6.0848 N   0  0  0  0  0  0  0  0  0  0  0  0
   -1.6788   -0.4532    4.8505 N   0  0  0  0  0  0  0  0  0  0  0  0
   -1.2228    0.4391    4.0190 N   0  0  0  0  0  0  0  0  0  0  0  0
   -1.2545    1.6126    4.6938 N   0  0  0  0  0  0  0  0  0  0  0  0
   -0.8695    2.7899    4.2007 N   0  0  0  0  0  0  0  0  0  0  0  0
    0.0823    6.2870    3.1658 H   0  0  0  0  0  0  0  0  0  0  0  0
   -1.0101    4.9983    2.6838 H   0  0  0  0  0  0  0  0  0  0  0  0
    0.6796    4.6369    3.1212 H   0  0  0  0  0  0  0  0  0  0  0  0
   -1.1802    3.7621    9.0723 H   0  0  0  0  0  0  0  0  0  0  0  0
   -2.2933    3.3369   11.2803 H   0  0  0  0  0  0  0  0  0  0  0  0
   -1.6383    1.8468   10.6259 H   0  0  0  0  0  0  0  0  0  0  0  0
   -3.3635    2.1627   10.5384 H   0  0  0  0  0  0  0  0  0  0  0  0
   -3.1917    5.1637    9.6885 H   0  0  0  0  0  0  0  0  0  0  0  0
   -4.2605    3.9892    8.9027 H   0  0  0  0  0  0  0  0  0  0  0  0
   -3.1140    4.9356    7.9593 H   0  0  0  0  0  0  0  0  0  0  0  0
  1  2  1  0
  1 16  1  0
  1 17  1  0
  1 18  1  0
  2  3  1  0
  3 15  2  0
  3  4  1  0
  4  5  2  0
  5  6  1  0
  5 10  1  0
  6  7  1  0
  7  8  1  0
  7  9  1  0
  7 19  1  0
  8 20  1  0
  8 21  1  0
  8 22  1  0
  9 23  1  0
  9 24  1  0
  9 25  1  0
 10 14  1  0
 10 11  2  0
 11 12  1  0
 12 13  2  0
 13 14  1  0
 14 15  1  0
M  END
>  <i_m_ct_stereo_status>  (381) 
1

>  <s_m_source_file>  (381) 
/var/tmp/pbs.5076255.sched01/tmpnhftudgm/135squ2m_dv.sdf

>  <i_m_source_file_index>  (381) 
23

>  <i_lp_mmshare_version>  (381) 
48012

>  <i_f3d_flags>  (381) 
0

>  <s_epik_input>  (381) 
bjFubm4oYzEyKW5jKE9bQ0gzXSluYzJPW0NIXShbQ0gzXSlbQ0gzXQ==

>  <s_epik_cmdline>  (381) 
J2VwaWtfcHl0aG9uJywgJy1waHQnLCAnMi4wJywgJy1waCcsICc3LjAnLCAnLXRuJywgJzgnLCAnLW1hJywgJzIwMCcsICctaW1hZScsICc8aW5maWxlLm1hZT4nLCAnLW9tYWUnLCAnPG91dGZpbGUubWFlPic=

>  <r_lp_tautomer_probability>  (381) 
1

>  <r_epik_Ionization_Penalty>  (381) 
3.81661e-11

>  <r_epik_Ionization_Penalty_Charging>  (381) 
0

>  <r_epik_Ionization_Penalty_Neutral>  (381) 
3.81661e-11

>  <r_epik_State_Penalty>  (381) 
-0

>  <r_epik_Charging_Adjusted_Penalty>  (381) 
0

>  <i_epik_Tot_Q>  (381) 
0

>  <i_epik_Tot_abs_Q>  (381) 
0

>  <s_lp_Force_Field>  (381) 
OPLS3e

>  <r_lp_Energy>  (381) 
6.30219

>  <b_lp_Chiralities_Consistent>  (381) 
1

>  <s_lp_Variant>  (381) 
105:0-1

>  <s_i_glide_gridfile>  (381) 
pfpi4k_grid

>  <i_i_glide_lignum>  (381) 
23

>  <i_i_glide_rotatable_bonds>  (381) 
3

>  <r_i_docking_score>  (381) 
-3.28882

>  <r_i_glide_ligand_efficiency>  (381) 
-0.219255

>  <r_i_glide_ligand_efficiency_sa>  (381) 
-0.540729

>  <r_i_glide_ligand_efficiency_ln>  (381) 
-0.886941

>  <r_i_glide_gscore>  (381) 
-3.28882

>  <r_i_glide_lipo>  (381) 
-0.0884994

>  <r_i_glide_hbond>  (381) 
-0.00964851

>  <r_i_glide_metal>  (381) 
-0

>  <r_i_glide_rewards>  (381) 
-1.97595

>  <r_i_glide_evdw>  (381) 
-17.5202

>  <r_i_glide_ecoul>  (381) 
-3.02315

>  <r_i_glide_erotb>  (381) 
0.375764

>  <r_i_glide_esite>  (381) 
-0.260999

>  <r_i_glide_emodel>  (381) 
-24.3402

>  <r_i_glide_energy>  (381) 
-20.5434

>  <r_i_glide_einternal>  (381) 
2.22424

>  <r_i_glide_intrahb_reward>  (381) 
-0

>  <i_i_glide_confnum>  (381) 
1

>  <i_i_glide_posenum>  (381) 
8

>  <r_i_glide_eff_state_penalty>  (381) 
0

>  <ligand_id>  (381) 
105

>  <original_smiles>  (381) 
COc1nc(OC(C)C)c2nnnn2n1

>  <smiles>  (381) 
[H]C([H])([H])Oc1nc(OC([H])(C([H])([H])[H])C([H])([H])[H])c2nnnn2n1

$$$$
105:0:2
     RDKit          3D

 25 26  0  0  1  0  0  0  0  0999 V2000
   -1.4854   -7.9939    3.6476 C   0  0  0  0  0  0  0  0  0  0  0  0
   -0.6346   -7.1659    2.8555 O   0  0  0  0  0  0  0  0  0  0  0  0
    0.6179   -7.6396    2.5171 C   0  0  0  0  0  0  0  0  0  0  0  0
    1.0034   -8.8548    2.9542 N   0  0  0  0  0  0  0  0  0  0  0  0
    2.2587   -9.2637    2.6503 C   0  0  0  0  0  0  0  0  0  0  0  0
    2.7457  -10.4578    3.1490 O   0  0  0  0  0  0  0  0  0  0  0  0
    1.9784  -11.2399    4.0647 C   0  0  0  0  0  0  0  0  0  0  0  0
    0.7750  -11.8748    3.3475 C   0  0  0  0  0  0  0  0  0  0  0  0
    1.6286  -10.4602    5.3547 C   0  0  0  0  0  0  0  0  0  0  0  0
    3.1275   -8.4536    1.8779 C   0  0  0  0  0  0  0  0  0  0  0  0
    4.3680   -8.5258    1.4135 N   0  0  0  0  0  0  0  0  0  0  0  0
    4.5712   -7.3192    0.7512 N   0  0  0  0  0  0  0  0  0  0  0  0
    3.5474   -6.5292    0.8226 N   0  0  0  0  0  0  0  0  0  0  0  0
    2.5932   -7.2124    1.5170 N   0  0  0  0  0  0  0  0  0  0  0  0
    1.3600   -6.7610    1.8036 N   0  0  0  0  0  0  0  0  0  0  0  0
   -2.4330   -7.4877    3.8035 H   0  0  0  0  0  0  0  0  0  0  0  0
   -1.0713   -8.1994    4.6324 H   0  0  0  0  0  0  0  0  0  0  0  0
   -1.7070   -8.9405    3.1611 H   0  0  0  0  0  0  0  0  0  0  0  0
    2.6287  -12.0714    4.3553 H   0  0  0  0  0  0  0  0  0  0  0  0
    0.2175  -12.5297    4.0181 H   0  0  0  0  0  0  0  0  0  0  0  0
    1.0969  -12.4785    2.4948 H   0  0  0  0  0  0  0  0  0  0  0  0
    0.0795  -11.1310    2.9634 H   0  0  0  0  0  0  0  0  0  0  0  0
    1.0950  -11.0832    6.0614 H   0  0  0  0  0  0  0  0  0  0  0  0
    0.9852   -9.6033    5.1784 H   0  0  0  0  0  0  0  0  0  0  0  0
    2.5402  -10.1188    5.8457 H   0  0  0  0  0  0  0  0  0  0  0  0
  1  2  1  0
  1 16  1  0
  1 17  1  0
  1 18  1  0
  2  3  1  0
  3 15  2  0
  3  4  1  0
  4  5  2  0
  5  6  1  0
  5 10  1  0
  6  7  1  0
  7  8  1  0
  7  9  1  0
  7 19  1  0
  8 20  1  0
  8 21  1  0
  8 22  1  0
  9 23  1  0
  9 24  1  0
  9 25  1  0
 10 14  1  0
 10 11  2  0
 11 12  1  0
 12 13  2  0
 13 14  1  0
 14 15  1  0
M  END
>  <i_m_ct_stereo_status>  (382) 
1

>  <s_m_source_file>  (382) 
/var/tmp/pbs.5076255.sched01/tmpnhftudgm/135squ2m_dv.sdf

>  <i_m_source_file_index>  (382) 
23

>  <i_lp_mmshare_version>  (382) 
48012

>  <i_f3d_flags>  (382) 
0

>  <s_epik_input>  (382) 
bjFubm4oYzEyKW5jKE9bQ0gzXSluYzJPW0NIXShbQ0gzXSlbQ0gzXQ==

>  <s_epik_cmdline>  (382) 
J2VwaWtfcHl0aG9uJywgJy1waHQnLCAnMi4wJywgJy1waCcsICc3LjAnLCAnLXRuJywgJzgnLCAnLW1hJywgJzIwMCcsICctaW1hZScsICc8aW5maWxlLm1hZT4nLCAnLW9tYWUnLCAnPG91dGZpbGUubWFlPic=

>  <r_lp_tautomer_probability>  (382) 
1

>  <r_epik_Ionization_Penalty>  (382) 
3.81661e-11

>  <r_epik_Ionization_Penalty_Charging>  (382) 
0

>  <r_epik_Ionization_Penalty_Neutral>  (382) 
3.81661e-11

>  <r_epik_State_Penalty>  (382) 
-0

>  <r_epik_Charging_Adjusted_Penalty>  (382) 
0

>  <i_epik_Tot_Q>  (382) 
0

>  <i_epik_Tot_abs_Q>  (382) 
0

>  <s_lp_Force_Field>  (382) 
OPLS3e

>  <r_lp_Energy>  (382) 
6.30219

>  <b_lp_Chiralities_Consistent>  (382) 
1

>  <s_lp_Variant>  (382) 
105:0-1

>  <s_i_glide_gridfile>  (382) 
pfpi4k_grid

>  <i_i_glide_lignum>  (382) 
23

>  <i_i_glide_rotatable_bonds>  (382) 
3

>  <r_i_docking_score>  (382) 
-2.97467

>  <r_i_glide_ligand_efficiency>  (382) 
-0.198311

>  <r_i_glide_ligand_efficiency_sa>  (382) 
-0.489077

>  <r_i_glide_ligand_efficiency_ln>  (382) 
-0.802218

>  <r_i_glide_gscore>  (382) 
-2.97467

>  <r_i_glide_lipo>  (382) 
-0.0273925

>  <r_i_glide_hbond>  (382) 
-0.0956186

>  <r_i_glide_metal>  (382) 
-0

>  <r_i_glide_rewards>  (382) 
-1.97595

>  <r_i_glide_evdw>  (382) 
-19.3141

>  <r_i_glide_ecoul>  (382) 
-1.39289

>  <r_i_glide_erotb>  (382) 
0.375764

>  <r_i_glide_esite>  (382) 
-0.0768247

>  <r_i_glide_emodel>  (382) 
-24.8178

>  <r_i_glide_energy>  (382) 
-20.707

>  <r_i_glide_einternal>  (382) 
0.348022

>  <r_i_glide_intrahb_reward>  (382) 
-0

>  <i_i_glide_confnum>  (382) 
1

>  <i_i_glide_posenum>  (382) 
10

>  <r_i_glide_eff_state_penalty>  (382) 
0

>  <ligand_id>  (382) 
105

>  <original_smiles>  (382) 
COc1nc(OC(C)C)c2nnnn2n1

>  <smiles>  (382) 
[H]C([H])([H])Oc1nc(OC([H])(C([H])([H])[H])C([H])([H])[H])c2nnnn2n1

$$$$
106:0:0
     RDKit          3D

 63 68  0  0  1  0  0  0  0  0999 V2000
    4.6255   -0.6133    4.4640 C   0  0  0  0  0  0  0  0  0  0  0  0
    4.1352   -1.9872    4.0444 C   0  0  0  0  0  0  0  0  0  0  0  0
    2.9335   -2.5167    4.3077 C   0  0  0  0  0  0  0  0  0  0  0  0
    2.8702   -3.8519    3.7553 C   0  0  0  0  0  0  0  0  0  0  0  0
    1.9681   -4.8122    4.0633 C   0  0  0  0  0  0  0  0  0  0  0  0
    0.7711   -4.5710    4.9771 C   0  0  0  0  0  0  0  0  0  0  0  0
    2.1601   -6.2757    3.6076 C   0  0  1  0  0  0  0  0  0  0  0  0
    0.8957   -6.8725    2.9696 C   0  0  0  0  0  0  0  0  0  0  0  0
    0.2080   -6.2549    2.1563 O   0  0  0  0  0  0  0  0  0  0  0  0
    3.4819   -6.5969    2.8174 C   0  0  1  0  0  0  0  0  0  0  0  0
    3.9158   -7.8545    3.3170 O   0  0  0  0  0  0  0  0  0  0  0  0
    3.3401   -6.7994    1.2731 C   0  0  0  0  0  0  0  0  0  0  0  0
    4.6851   -7.0286    0.5447 C   0  0  0  0  0  0  0  0  0  0  0  0
    5.7952   -6.0365    0.9363 C   0  0  0  0  0  0  0  0  0  0  0  0
    5.9270   -5.9031    2.4558 C   0  0  0  0  0  0  0  0  0  0  0  0
    4.5888   -5.5498    3.1383 C   0  0  1  0  0  0  0  0  0  0  0  0
    4.0775   -4.0993    2.8855 C   0  0  1  0  0  0  0  0  0  0  0  0
    3.6895   -3.9460    1.5113 O   0  0  0  0  0  0  0  0  0  0  0  0
    3.5017   -2.6344    0.9803 C   0  0  2  0  0  0  0  0  0  0  0  0
    2.8135   -2.7801   -0.4028 C   0  0  0  0  0  0  0  0  0  0  0  0
    3.7164   -3.5941   -1.3174 C   0  0  2  0  0  0  0  0  0  0  0  0
    5.0127   -2.8956   -1.3764 C   0  0  0  0  0  0  0  0  0  0  0  0
    5.5759   -2.1140   -0.4452 C   0  0  0  0  0  0  0  0  0  0  0  0
    4.8968   -1.9371    0.9168 C   0  0  2  0  0  0  0  0  0  0  0  0
    5.8089   -2.3727    2.0826 C   0  0  0  0  0  0  0  0  0  0  0  0
    5.0469   -2.9518    3.2957 C   0  0  1  0  0  0  0  0  0  0  0  0
    5.1401   -3.1502   -2.8445 C   0  0  0  0  0  0  0  0  0  0  0  0
    3.6793   -3.4376   -2.7890 N   0  0  2  0  0  0  0  0  0  0  0  0
    2.7873   -2.4133   -3.3946 C   0  0  0  0  0  0  0  0  0  0  0  0
    5.5343   -0.6949    5.0617 H   0  0  0  0  0  0  0  0  0  0  0  0
    3.8714   -0.0903    5.0543 H   0  0  0  0  0  0  0  0  0  0  0  0
    4.8466   -0.0091    3.5846 H   0  0  0  0  0  0  0  0  0  0  0  0
    2.1461   -2.0071    4.8388 H   0  0  0  0  0  0  0  0  0  0  0  0
    0.6893   -5.3607    5.7245 H   0  0  0  0  0  0  0  0  0  0  0  0
   -0.1512   -4.5660    4.3977 H   0  0  0  0  0  0  0  0  0  0  0  0
    0.8199   -3.6226    5.5114 H   0  0  0  0  0  0  0  0  0  0  0  0
    2.2506   -6.8026    4.5574 H   0  0  0  0  0  0  0  0  0  0  0  0
    0.6650   -7.8899    3.2771 H   0  0  0  0  0  0  0  0  0  0  0  0
    3.3126   -8.5315    3.0448 H   0  0  0  0  0  0  0  0  0  0  0  0
    2.7016   -7.6546    1.0580 H   0  0  0  0  0  0  0  0  0  0  0  0
    2.8214   -5.9599    0.8180 H   0  0  0  0  0  0  0  0  0  0  0  0
    5.0261   -8.0422    0.7543 H   0  0  0  0  0  0  0  0  0  0  0  0
    4.5302   -6.9790   -0.5335 H   0  0  0  0  0  0  0  0  0  0  0  0
    6.7466   -6.3690    0.5214 H   0  0  0  0  0  0  0  0  0  0  0  0
    5.6101   -5.0607    0.4918 H   0  0  0  0  0  0  0  0  0  0  0  0
    6.2861   -6.8527    2.8531 H   0  0  0  0  0  0  0  0  0  0  0  0
    6.6983   -5.1805    2.7162 H   0  0  0  0  0  0  0  0  0  0  0  0
    4.7833   -5.6183    4.2106 H   0  0  0  0  0  0  0  0  0  0  0  0
    2.8401   -2.0624    1.6260 H   0  0  0  0  0  0  0  0  0  0  0  0
    1.8291   -3.2361   -0.3035 H   0  0  0  0  0  0  0  0  0  0  0  0
    2.6531   -1.7754   -0.7932 H   0  0  0  0  0  0  0  0  0  0  0  0
    3.7792   -4.6511   -1.0629 H   0  0  0  0  0  0  0  0  0  0  0  0
    6.4681   -1.5412   -0.6462 H   0  0  0  0  0  0  0  0  0  0  0  0
    4.7264   -0.8642    1.0028 H   0  0  0  0  0  0  0  0  0  0  0  0
    6.4892   -3.1433    1.7160 H   0  0  0  0  0  0  0  0  0  0  0  0
    6.4439   -1.5413    2.3835 H   0  0  0  0  0  0  0  0  0  0  0  0
    5.7642   -3.3058    4.0340 H   0  0  0  0  0  0  0  0  0  0  0  0
    5.3954   -2.3175   -3.5005 H   0  0  0  0  0  0  0  0  0  0  0  0
    5.6795   -4.0542   -3.1331 H   0  0  0  0  0  0  0  0  0  0  0  0
    2.9988   -1.3967   -3.0525 H   0  0  0  0  0  0  0  0  0  0  0  0
    1.7423   -2.6553   -3.1902 H   0  0  0  0  0  0  0  0  0  0  0  0
    2.9150   -2.4308   -4.4796 H   0  0  0  0  0  0  0  0  0  0  0  0
    3.4744   -4.3605   -3.1626 H   0  0  0  0  0  0  0  0  0  0  0  0
  1  2  1  0
  1 30  1  0
  1 31  1  0
  1 32  1  0
  2 26  1  0
  2  3  2  0
  3  4  1  0
  3 33  1  0
  4 17  1  0
  4  5  2  0
  5  6  1  0
  5  7  1  0
  6 34  1  0
  6 35  1  0
  6 36  1  0
  7  8  1  0
  7 10  1  0
  7 37  1  1
  8  9  2  0
  8 38  1  0
 10 16  1  0
 10 11  1  1
 10 12  1  0
 11 39  1  0
 12 13  1  0
 12 40  1  0
 12 41  1  0
 13 14  1  0
 13 42  1  0
 13 43  1  0
 14 15  1  0
 14 44  1  0
 14 45  1  0
 15 16  1  0
 15 46  1  0
 15 47  1  0
 16 17  1  0
 16 48  1  1
 17 26  1  0
 17 18  1  6
 18 19  1  0
 19 24  1  0
 19 20  1  0
 19 49  1  1
 20 21  1  0
 20 50  1  0
 20 51  1  0
 21 28  1  0
 21 22  1  0
 21 52  1  6
 22 23  2  0
 22 27  1  0
 23 24  1  0
 23 53  1  0
 24 25  1  0
 24 54  1  1
 25 26  1  0
 25 55  1  0
 25 56  1  0
 26 57  1  1
 27 28  1  0
 27 58  1  0
 27 59  1  0
 28 29  1  0
 28 63  1  6
 29 60  1  0
 29 61  1  0
 29 62  1  0
M  CHG  1  28   1
M  END
>  <i_m_ct_stereo_status>  (383) 
1

>  <s_m_source_file>  (383) 
/var/tmp/pbs.5076255.sched01/tmpnhftudgm/135squ2m_dv.sdf

>  <i_m_source_file_index>  (383) 
24

>  <i_lp_mmshare_version>  (383) 
48012

>  <i_f3d_flags>  (383) 
0

>  <s_epik_input>  (383) 
W0NIM11OMVtDSDJdQyg9W0NIXTIpW0NASF0xW0NIMl1bQ0BASF0oTzMpW0NASF0yW0NIMl1bQ0BIXTRDKFtDSDNdKT1bQ0hdQyhbQ0BAXTM0NSk9QyhbQ0gzXSlbQ0BASF0oW0NIXT1PKVtDQF02KFtPSF0pW0NASF01W0NIMl1bQ0gyXVtDSDJdW0NIMl02

>  <s_epik_cmdline>  (383) 
J2VwaWtfcHl0aG9uJywgJy1waHQnLCAnMi4wJywgJy1waCcsICc3LjAnLCAnLXRuJywgJzgnLCAnLW1hJywgJzIwMCcsICctaW1hZScsICc8aW5maWxlLm1hZT4nLCAnLW9tYWUnLCAnPG91dGZpbGUubWFlPic=

>  <r_epik_Ionization_Penalty>  (383) 
0.0799728

>  <r_epik_Ionization_Penalty_Charging>  (383) 
0.0799721

>  <r_epik_Ionization_Penalty_Neutral>  (383) 
7.62607e-07

>  <r_epik_State_Penalty>  (383) 
0.0707975

>  <r_epik_Charging_Adjusted_Penalty>  (383) 
0.15077

>  <i_epik_Tot_Q>  (383) 
1

>  <i_epik_Tot_abs_Q>  (383) 
1

>  <s_lp_Force_Field>  (383) 
OPLS3e

>  <r_lp_Energy>  (383) 
48.2647

>  <b_lp_Chiralities_Consistent>  (383) 
1

>  <s_lp_Variant>  (383) 
106:0-1

>  <s_i_glide_gridfile>  (383) 
pfpi4k_grid

>  <i_i_glide_lignum>  (383) 
24

>  <i_i_glide_rotatable_bonds>  (383) 
2

>  <r_i_docking_score>  (383) 
-4.10258

>  <r_i_glide_ligand_efficiency>  (383) 
-0.141468

>  <r_i_glide_ligand_efficiency_sa>  (383) 
-0.434636

>  <r_i_glide_ligand_efficiency_ln>  (383) 
-0.939388

>  <r_i_glide_gscore>  (383) 
-4.10258

>  <r_i_glide_lipo>  (383) 
-0.828714

>  <r_i_glide_hbond>  (383) 
-0.225632

>  <r_i_glide_metal>  (383) 
-0

>  <r_i_glide_rewards>  (383) 
-0.705393

>  <r_i_glide_evdw>  (383) 
-22.6435

>  <r_i_glide_ecoul>  (383) 
-7.66529

>  <r_i_glide_erotb>  (383) 
0

>  <r_i_glide_esite>  (383) 
-0.0608778

>  <r_i_glide_emodel>  (383) 
-38.6214

>  <r_i_glide_energy>  (383) 
-30.3087

>  <r_i_glide_einternal>  (383) 
0.118512

>  <r_i_glide_intrahb_reward>  (383) 
-0

>  <i_i_glide_confnum>  (383) 
1

>  <i_i_glide_posenum>  (383) 
36

>  <r_i_glide_eff_state_penalty>  (383) 
0

>  <ligand_id>  (383) 
106

>  <original_smiles>  (383) 
CC1=CC2=C(C)C(C=O)C3(O)CCCCC3C23OC2CC4C(=CC2CC13)CN4C

>  <smiles>  (383) 
[H]OC12C([H])(C([H])=O)C(C([H])([H])[H])=C3C([H])=C(C([H])([H])[H])C4([H])C([H])([H])C5([H])C([H])=C6C([H])([H])[N+]([H])(C([H])([H])[H])C6([H])C([H])([H])C5([H])OC34C1([H])C([H])([H])C([H])([H])C([H])([H])C2([H])[H]

$$$$
106:0:1
     RDKit          3D

 63 68  0  0  1  0  0  0  0  0999 V2000
    4.5762   -0.5405    4.4084 C   0  0  0  0  0  0  0  0  0  0  0  0
    4.1046   -1.9236    3.9993 C   0  0  0  0  0  0  0  0  0  0  0  0
    2.9094   -2.4669    4.2646 C   0  0  0  0  0  0  0  0  0  0  0  0
    2.8635   -3.8066    3.7232 C   0  0  0  0  0  0  0  0  0  0  0  0
    1.9715   -4.7754    4.0356 C   0  0  0  0  0  0  0  0  0  0  0  0
    0.7711   -4.5426    4.9475 C   0  0  0  0  0  0  0  0  0  0  0  0
    2.1816   -6.2395    3.5936 C   0  0  1  0  0  0  0  0  0  0  0  0
    0.9322   -6.8667    2.9574 C   0  0  0  0  0  0  0  0  0  0  0  0
    0.2126   -6.2537    2.1664 O   0  0  0  0  0  0  0  0  0  0  0  0
    3.5087   -6.5471    2.8096 C   0  0  1  0  0  0  0  0  0  0  0  0
    3.9262   -7.8128    3.2964 O   0  0  0  0  0  0  0  0  0  0  0  0
    3.3755   -6.7648    1.2672 C   0  0  0  0  0  0  0  0  0  0  0  0
    4.7252   -6.9855    0.5438 C   0  0  0  0  0  0  0  0  0  0  0  0
    5.8222   -5.9772    0.9282 C   0  0  0  0  0  0  0  0  0  0  0  0
    5.9496   -5.8306    2.4475 C   0  0  0  0  0  0  0  0  0  0  0  0
    4.6061   -5.4879    3.1264 C   0  0  1  0  0  0  0  0  0  0  0  0
    4.0771   -4.0461    2.8587 C   0  0  1  0  0  0  0  0  0  0  0  0
    3.6902   -3.9088    1.4826 O   0  0  0  0  0  0  0  0  0  0  0  0
    3.4857   -2.6046    0.9398 C   0  0  2  0  0  0  0  0  0  0  0  0
    2.8015   -2.7718   -0.4432 C   0  0  0  0  0  0  0  0  0  0  0  0
    3.7158   -3.5810   -1.3501 C   0  0  2  0  0  0  0  0  0  0  0  0
    5.0035   -2.8660   -1.4123 C   0  0  0  0  0  0  0  0  0  0  0  0
    5.5547   -2.0702   -0.4865 C   0  0  0  0  0  0  0  0  0  0  0  0
    4.8726   -1.8902    0.8737 C   0  0  2  0  0  0  0  0  0  0  0  0
    5.7886   -2.3045    2.0450 C   0  0  0  0  0  0  0  0  0  0  0  0
    5.0307   -2.8827    3.2610 C   0  0  1  0  0  0  0  0  0  0  0  0
    5.1355   -3.1319   -2.8782 C   0  0  0  0  0  0  0  0  0  0  0  0
    3.6790   -3.4370   -2.8232 N   0  0  2  0  0  0  0  0  0  0  0  0
    2.7759   -2.4277   -3.4390 C   0  0  0  0  0  0  0  0  0  0  0  0
    5.4849   -0.6063    5.0082 H   0  0  0  0  0  0  0  0  0  0  0  0
    3.8140   -0.0226    4.9931 H   0  0  0  0  0  0  0  0  0  0  0  0
    4.7910    0.0589    3.5242 H   0  0  0  0  0  0  0  0  0  0  0  0
    2.1142   -1.9630    4.7900 H   0  0  0  0  0  0  0  0  0  0  0  0
    0.6981   -5.3278    5.7006 H   0  0  0  0  0  0  0  0  0  0  0  0
   -0.1496   -4.5546    4.3663 H   0  0  0  0  0  0  0  0  0  0  0  0
    0.8071   -3.5897    5.4741 H   0  0  0  0  0  0  0  0  0  0  0  0
    2.2724   -6.7567    4.5483 H   0  0  0  0  0  0  0  0  0  0  0  0
    0.7417   -7.8987    3.2436 H   0  0  0  0  0  0  0  0  0  0  0  0
    4.1132   -7.7453    4.2209 H   0  0  0  0  0  0  0  0  0  0  0  0
    2.7526   -7.6345    1.0645 H   0  0  0  0  0  0  0  0  0  0  0  0
    2.8449   -5.9385    0.8028 H   0  0  0  0  0  0  0  0  0  0  0  0
    5.0764   -7.9939    0.7632 H   0  0  0  0  0  0  0  0  0  0  0  0
    4.5706   -6.9484   -0.5351 H   0  0  0  0  0  0  0  0  0  0  0  0
    6.7776   -6.3016    0.5158 H   0  0  0  0  0  0  0  0  0  0  0  0
    5.6249   -5.0078    0.4748 H   0  0  0  0  0  0  0  0  0  0  0  0
    6.3195   -6.7733    2.8510 H   0  0  0  0  0  0  0  0  0  0  0  0
    6.7123   -5.0959    2.7010 H   0  0  0  0  0  0  0  0  0  0  0  0
    4.8025   -5.5385    4.1993 H   0  0  0  0  0  0  0  0  0  0  0  0
    2.8151   -2.0358    1.5791 H   0  0  0  0  0  0  0  0  0  0  0  0
    1.8228   -3.2394   -0.3404 H   0  0  0  0  0  0  0  0  0  0  0  0
    2.6277   -1.7732   -0.8433 H   0  0  0  0  0  0  0  0  0  0  0  0
    3.7916   -4.6347   -1.0875 H   0  0  0  0  0  0  0  0  0  0  0  0
    6.4400   -1.4867   -0.6912 H   0  0  0  0  0  0  0  0  0  0  0  0
    4.6877   -0.8193    0.9506 H   0  0  0  0  0  0  0  0  0  0  0  0
    6.4786   -3.0693    1.6859 H   0  0  0  0  0  0  0  0  0  0  0  0
    6.4151   -1.4650    2.3408 H   0  0  0  0  0  0  0  0  0  0  0  0
    5.7506   -3.2219    4.0037 H   0  0  0  0  0  0  0  0  0  0  0  0
    5.3799   -2.3003   -3.5374 H   0  0  0  0  0  0  0  0  0  0  0  0
    5.6883   -4.0298   -3.1590 H   0  0  0  0  0  0  0  0  0  0  0  0
    2.9757   -1.4056   -3.1056 H   0  0  0  0  0  0  0  0  0  0  0  0
    1.7319   -2.6756   -3.2345 H   0  0  0  0  0  0  0  0  0  0  0  0
    2.9069   -2.4542   -4.5238 H   0  0  0  0  0  0  0  0  0  0  0  0
    3.4859   -4.3640   -3.1907 H   0  0  0  0  0  0  0  0  0  0  0  0
  1  2  1  0
  1 30  1  0
  1 31  1  0
  1 32  1  0
  2 26  1  0
  2  3  2  0
  3  4  1  0
  3 33  1  0
  4 17  1  0
  4  5  2  0
  5  6  1  0
  5  7  1  0
  6 34  1  0
  6 35  1  0
  6 36  1  0
  7  8  1  0
  7 10  1  0
  7 37  1  1
  8  9  2  0
  8 38  1  0
 10 16  1  0
 10 11  1  1
 10 12  1  0
 11 39  1  0
 12 13  1  0
 12 40  1  0
 12 41  1  0
 13 14  1  0
 13 42  1  0
 13 43  1  0
 14 15  1  0
 14 44  1  0
 14 45  1  0
 15 16  1  0
 15 46  1  0
 15 47  1  0
 16 17  1  0
 16 48  1  1
 17 26  1  0
 17 18  1  6
 18 19  1  0
 19 24  1  0
 19 20  1  0
 19 49  1  1
 20 21  1  0
 20 50  1  0
 20 51  1  0
 21 28  1  0
 21 22  1  0
 21 52  1  6
 22 23  2  0
 22 27  1  0
 23 24  1  0
 23 53  1  0
 24 25  1  0
 24 54  1  1
 25 26  1  0
 25 55  1  0
 25 56  1  0
 26 57  1  1
 27 28  1  0
 27 58  1  0
 27 59  1  0
 28 29  1  0
 28 63  1  6
 29 60  1  0
 29 61  1  0
 29 62  1  0
M  CHG  1  28   1
M  END
>  <i_m_ct_stereo_status>  (384) 
1

>  <s_m_source_file>  (384) 
/var/tmp/pbs.5076255.sched01/tmpnhftudgm/135squ2m_dv.sdf

>  <i_m_source_file_index>  (384) 
24

>  <i_lp_mmshare_version>  (384) 
48012

>  <i_f3d_flags>  (384) 
0

>  <s_epik_input>  (384) 
W0NIM11OMVtDSDJdQyg9W0NIXTIpW0NASF0xW0NIMl1bQ0BASF0oTzMpW0NASF0yW0NIMl1bQ0BIXTRDKFtDSDNdKT1bQ0hdQyhbQ0BAXTM0NSk9QyhbQ0gzXSlbQ0BASF0oW0NIXT1PKVtDQF02KFtPSF0pW0NASF01W0NIMl1bQ0gyXVtDSDJdW0NIMl02

>  <s_epik_cmdline>  (384) 
J2VwaWtfcHl0aG9uJywgJy1waHQnLCAnMi4wJywgJy1waCcsICc3LjAnLCAnLXRuJywgJzgnLCAnLW1hJywgJzIwMCcsICctaW1hZScsICc8aW5maWxlLm1hZT4nLCAnLW9tYWUnLCAnPG91dGZpbGUubWFlPic=

>  <r_epik_Ionization_Penalty>  (384) 
0.0799728

>  <r_epik_Ionization_Penalty_Charging>  (384) 
0.0799721

>  <r_epik_Ionization_Penalty_Neutral>  (384) 
7.62607e-07

>  <r_epik_State_Penalty>  (384) 
0.0707975

>  <r_epik_Charging_Adjusted_Penalty>  (384) 
0.15077

>  <i_epik_Tot_Q>  (384) 
1

>  <i_epik_Tot_abs_Q>  (384) 
1

>  <s_lp_Force_Field>  (384) 
OPLS3e

>  <r_lp_Energy>  (384) 
48.2647

>  <b_lp_Chiralities_Consistent>  (384) 
1

>  <s_lp_Variant>  (384) 
106:0-1

>  <s_i_glide_gridfile>  (384) 
pfpi4k_grid

>  <i_i_glide_lignum>  (384) 
24

>  <i_i_glide_rotatable_bonds>  (384) 
2

>  <r_i_docking_score>  (384) 
-4.06434

>  <r_i_glide_ligand_efficiency>  (384) 
-0.14015

>  <r_i_glide_ligand_efficiency_sa>  (384) 
-0.430584

>  <r_i_glide_ligand_efficiency_ln>  (384) 
-0.930632

>  <r_i_glide_gscore>  (384) 
-4.06434

>  <r_i_glide_lipo>  (384) 
-0.84686

>  <r_i_glide_hbond>  (384) 
-0.223093

>  <r_i_glide_metal>  (384) 
-0

>  <r_i_glide_rewards>  (384) 
-0.705393

>  <r_i_glide_evdw>  (384) 
-22.8194

>  <r_i_glide_ecoul>  (384) 
-7.27764

>  <r_i_glide_erotb>  (384) 
0

>  <r_i_glide_esite>  (384) 
-0.0563786

>  <r_i_glide_emodel>  (384) 
-38.3458

>  <r_i_glide_energy>  (384) 
-30.0971

>  <r_i_glide_einternal>  (384) 
0.108896

>  <r_i_glide_intrahb_reward>  (384) 
-0

>  <i_i_glide_confnum>  (384) 
1

>  <i_i_glide_posenum>  (384) 
1

>  <r_i_glide_eff_state_penalty>  (384) 
0

>  <ligand_id>  (384) 
106

>  <original_smiles>  (384) 
CC1=CC2=C(C)C(C=O)C3(O)CCCCC3C23OC2CC4C(=CC2CC13)CN4C

>  <smiles>  (384) 
[H]OC12C([H])(C([H])=O)C(C([H])([H])[H])=C3C([H])=C(C([H])([H])[H])C4([H])C([H])([H])C5([H])C([H])=C6C([H])([H])[N+]([H])(C([H])([H])[H])C6([H])C([H])([H])C5([H])OC34C1([H])C([H])([H])C([H])([H])C([H])([H])C2([H])[H]

$$$$
106:0:2
     RDKit          3D

 63 68  0  0  1  0  0  0  0  0999 V2000
    4.0058   -1.3947    5.2246 C   0  0  0  0  0  0  0  0  0  0  0  0
    3.6066   -2.7192    4.6205 C   0  0  0  0  0  0  0  0  0  0  0  0
    2.4053   -3.3046    4.7003 C   0  0  0  0  0  0  0  0  0  0  0  0
    2.4365   -4.5705    4.0121 C   0  0  0  0  0  0  0  0  0  0  0  0
    1.5480   -5.5773    4.1284 C   0  0  0  0  0  0  0  0  0  0  0  0
    0.2716   -5.4617    4.9560 C   0  0  0  0  0  0  0  0  0  0  0  0
    1.8127   -6.9732    3.5312 C   0  0  1  0  0  0  0  0  0  0  0  0
    0.6388   -7.5300    2.6908 C   0  0  0  0  0  0  0  0  0  0  0  0
   -0.2141   -6.8062    2.1719 O   0  0  0  0  0  0  0  0  0  0  0  0
    3.2187   -7.1832    2.8599 C   0  0  1  0  0  0  0  0  0  0  0  0
    3.6109   -8.4925    3.2318 O   0  0  0  0  0  0  0  0  0  0  0  0
    3.2438   -7.2247    1.2996 C   0  0  0  0  0  0  0  0  0  0  0  0
    4.6571   -7.3486    0.6910 C   0  0  0  0  0  0  0  0  0  0  0  0
    5.6944   -6.3817    1.2902 C   0  0  0  0  0  0  0  0  0  0  0  0
    5.6718   -6.4079    2.8224 C   0  0  0  0  0  0  0  0  0  0  0  0
    4.2625   -6.1569    3.4006 C   0  0  1  0  0  0  0  0  0  0  0  0
    3.7363   -4.6966    3.2441 C   0  0  1  0  0  0  0  0  0  0  0  0
    3.4792   -4.4108    1.8578 O   0  0  0  0  0  0  0  0  0  0  0  0
    3.3028   -3.0548    1.4488 C   0  0  2  0  0  0  0  0  0  0  0  0
    2.7711   -3.0537   -0.0041 C   0  0  0  0  0  0  0  0  0  0  0  0
    3.7754   -3.7527   -0.8962 C   0  0  2  0  0  0  0  0  0  0  0  0
    5.0594   -3.0231   -0.7541 C   0  0  0  0  0  0  0  0  0  0  0  0
    5.4883   -2.3395    0.3060 C   0  0  0  0  0  0  0  0  0  0  0  0
    4.6779   -2.3230    1.5983 C   0  0  2  0  0  0  0  0  0  0  0  0
    5.4723   -2.8629    2.8017 C   0  0  0  0  0  0  0  0  0  0  0  0
    4.6178   -3.5850    3.8658 C   0  0  1  0  0  0  0  0  0  0  0  0
    5.3316   -3.1178   -2.2206 C   0  0  0  0  0  0  0  0  0  0  0  0
    3.8823   -3.4574   -2.3487 N   0  0  2  0  0  0  0  0  0  0  0  0
    3.0130   -2.3687   -2.9245 C   0  0  0  0  0  0  0  0  0  0  0  0
    4.8526   -1.5182    5.9009 H   0  0  0  0  0  0  0  0  0  0  0  0
    3.1795   -0.9523    5.7869 H   0  0  0  0  0  0  0  0  0  0  0  0
    4.2942   -0.6948    4.4408 H   0  0  0  0  0  0  0  0  0  0  0  0
    1.5479   -2.8683    5.1983 H   0  0  0  0  0  0  0  0  0  0  0  0
    0.1322   -6.3340    5.5957 H   0  0  0  0  0  0  0  0  0  0  0  0
   -0.5753   -5.4245    4.2774 H   0  0  0  0  0  0  0  0  0  0  0  0
    0.2212   -4.5697    5.5768 H   0  0  0  0  0  0  0  0  0  0  0  0
    1.8185   -7.6014    4.4209 H   0  0  0  0  0  0  0  0  0  0  0  0
    0.6467   -8.6169    2.5884 H   0  0  0  0  0  0  0  0  0  0  0  0
    3.6806   -8.5427    4.1807 H   0  0  0  0  0  0  0  0  0  0  0  0
    2.6655   -8.0769    0.9415 H   0  0  0  0  0  0  0  0  0  0  0  0
    2.7426   -6.3563    0.8802 H   0  0  0  0  0  0  0  0  0  0  0  0
    5.0090   -8.3718    0.8252 H   0  0  0  0  0  0  0  0  0  0  0  0
    4.5982   -7.1885   -0.3853 H   0  0  0  0  0  0  0  0  0  0  0  0
    6.6906   -6.6529    0.9407 H   0  0  0  0  0  0  0  0  0  0  0  0
    5.5252   -5.3686    0.9331 H   0  0  0  0  0  0  0  0  0  0  0  0
    6.0186   -7.3857    3.1504 H   0  0  0  0  0  0  0  0  0  0  0  0
    6.3920   -5.7003    3.2317 H   0  0  0  0  0  0  0  0  0  0  0  0
    4.3554   -6.3288    4.4752 H   0  0  0  0  0  0  0  0  0  0  0  0
    2.5675   -2.5682    2.0810 H   0  0  0  0  0  0  0  0  0  0  0  0
    1.8172   -3.5555   -0.0604 H   0  0  0  0  0  0  0  0  0  0  0  0
    2.6174   -2.0115   -0.2892 H   0  0  0  0  0  0  0  0  0  0  0  0
    3.8468   -4.8296   -0.7394 H   0  0  0  0  0  0  0  0  0  0  0  0
    6.3845   -1.7174    0.2579 H   0  0  0  0  0  0  0  0  0  0  0  0
    4.4644   -1.2724    1.7816 H   0  0  0  0  0  0  0  0  0  0  0  0
    6.2124   -3.5757    2.4311 H   0  0  0  0  0  0  0  0  0  0  0  0
    6.0351   -2.0468    3.2443 H   0  0  0  0  0  0  0  0  0  0  0  0
    5.2722   -3.9946    4.6348 H   0  0  0  0  0  0  0  0  0  0  0  0
    5.6214   -2.2222   -2.7672 H   0  0  0  0  0  0  0  0  0  0  0  0
    5.9170   -3.9749   -2.5496 H   0  0  0  0  0  0  0  0  0  0  0  0
    3.1593   -1.3965   -2.4620 H   0  0  0  0  0  0  0  0  0  0  0  0
    1.9668   -2.6556   -2.8496 H   0  0  0  0  0  0  0  0  0  0  0  0
    3.2442   -2.2777   -3.9826 H   0  0  0  0  0  0  0  0  0  0  0  0
    3.7451   -4.3069   -2.8213 H   0  0  0  0  0  0  0  0  0  0  0  0
  1  2  1  0
  1 30  1  0
  1 31  1  0
  1 32  1  0
  2 26  1  0
  2  3  2  0
  3  4  1  0
  3 33  1  0
  4 17  1  0
  4  5  2  0
  5  6  1  0
  5  7  1  0
  6 34  1  0
  6 35  1  0
  6 36  1  0
  7  8  1  0
  7 10  1  0
  7 37  1  1
  8  9  2  0
  8 38  1  0
 10 16  1  0
 10 11  1  1
 10 12  1  0
 11 39  1  0
 12 13  1  0
 12 40  1  0
 12 41  1  0
 13 14  1  0
 13 42  1  0
 13 43  1  0
 14 15  1  0
 14 44  1  0
 14 45  1  0
 15 16  1  0
 15 46  1  0
 15 47  1  0
 16 17  1  0
 16 48  1  1
 17 26  1  0
 17 18  1  6
 18 19  1  0
 19 24  1  0
 19 20  1  0
 19 49  1  1
 20 21  1  0
 20 50  1  0
 20 51  1  0
 21 28  1  0
 21 22  1  0
 21 52  1  6
 22 23  2  0
 22 27  1  0
 23 24  1  0
 23 53  1  0
 24 25  1  0
 24 54  1  1
 25 26  1  0
 25 55  1  0
 25 56  1  0
 26 57  1  1
 27 28  1  0
 27 58  1  0
 27 59  1  0
 28 29  1  0
 28 63  1  6
 29 60  1  0
 29 61  1  0
 29 62  1  0
M  CHG  1  28   1
M  END
>  <i_m_ct_stereo_status>  (385) 
1

>  <s_m_source_file>  (385) 
/var/tmp/pbs.5076255.sched01/tmpnhftudgm/135squ2m_dv.sdf

>  <i_m_source_file_index>  (385) 
24

>  <i_lp_mmshare_version>  (385) 
48012

>  <i_f3d_flags>  (385) 
0

>  <s_epik_input>  (385) 
W0NIM11OMVtDSDJdQyg9W0NIXTIpW0NASF0xW0NIMl1bQ0BASF0oTzMpW0NASF0yW0NIMl1bQ0BIXTRDKFtDSDNdKT1bQ0hdQyhbQ0BAXTM0NSk9QyhbQ0gzXSlbQ0BASF0oW0NIXT1PKVtDQF02KFtPSF0pW0NASF01W0NIMl1bQ0gyXVtDSDJdW0NIMl02

>  <s_epik_cmdline>  (385) 
J2VwaWtfcHl0aG9uJywgJy1waHQnLCAnMi4wJywgJy1waCcsICc3LjAnLCAnLXRuJywgJzgnLCAnLW1hJywgJzIwMCcsICctaW1hZScsICc8aW5maWxlLm1hZT4nLCAnLW9tYWUnLCAnPG91dGZpbGUubWFlPic=

>  <r_epik_Ionization_Penalty>  (385) 
0.0799728

>  <r_epik_Ionization_Penalty_Charging>  (385) 
0.0799721

>  <r_epik_Ionization_Penalty_Neutral>  (385) 
7.62607e-07

>  <r_epik_State_Penalty>  (385) 
0.0707975

>  <r_epik_Charging_Adjusted_Penalty>  (385) 
0.15077

>  <i_epik_Tot_Q>  (385) 
1

>  <i_epik_Tot_abs_Q>  (385) 
1

>  <s_lp_Force_Field>  (385) 
OPLS3e

>  <r_lp_Energy>  (385) 
48.2647

>  <b_lp_Chiralities_Consistent>  (385) 
1

>  <s_lp_Variant>  (385) 
106:0-1

>  <s_i_glide_gridfile>  (385) 
pfpi4k_grid

>  <i_i_glide_lignum>  (385) 
24

>  <i_i_glide_rotatable_bonds>  (385) 
2

>  <r_i_docking_score>  (385) 
-3.63154

>  <r_i_glide_ligand_efficiency>  (385) 
-0.125226

>  <r_i_glide_ligand_efficiency_sa>  (385) 
-0.384733

>  <r_i_glide_ligand_efficiency_ln>  (385) 
-0.831531

>  <r_i_glide_gscore>  (385) 
-3.63154

>  <r_i_glide_lipo>  (385) 
-0.544557

>  <r_i_glide_hbond>  (385) 
-0.149356

>  <r_i_glide_metal>  (385) 
-0

>  <r_i_glide_rewards>  (385) 
-0.705393

>  <r_i_glide_evdw>  (385) 
-21.8716

>  <r_i_glide_ecoul>  (385) 
-7.10797

>  <r_i_glide_erotb>  (385) 
0

>  <r_i_glide_esite>  (385) 
-0.0724642

>  <r_i_glide_emodel>  (385) 
-36.2092

>  <r_i_glide_energy>  (385) 
-28.9795

>  <r_i_glide_einternal>  (385) 
0.0347613

>  <r_i_glide_intrahb_reward>  (385) 
-0

>  <i_i_glide_confnum>  (385) 
1

>  <i_i_glide_posenum>  (385) 
18

>  <r_i_glide_eff_state_penalty>  (385) 
0

>  <ligand_id>  (385) 
106

>  <original_smiles>  (385) 
CC1=CC2=C(C)C(C=O)C3(O)CCCCC3C23OC2CC4C(=CC2CC13)CN4C

>  <smiles>  (385) 
[H]OC12C([H])(C([H])=O)C(C([H])([H])[H])=C3C([H])=C(C([H])([H])[H])C4([H])C([H])([H])C5([H])C([H])=C6C([H])([H])[N+]([H])(C([H])([H])[H])C6([H])C([H])([H])C5([H])OC34C1([H])C([H])([H])C([H])([H])C([H])([H])C2([H])[H]

$$$$
106:1:0
     RDKit          3D

 62 67  0  0  1  0  0  0  0  0999 V2000
    0.2483   -4.7923    8.0920 C   0  0  0  0  0  0  0  0  0  0  0  0
    0.4359   -5.4850    6.7591 C   0  0  0  0  0  0  0  0  0  0  0  0
   -0.5274   -5.8567    5.9165 C   0  0  0  0  0  0  0  0  0  0  0  0
    0.0680   -6.5143    4.7826 C   0  0  0  0  0  0  0  0  0  0  0  0
   -0.5401   -7.2806    3.8719 C   0  0  0  0  0  0  0  0  0  0  0  0
   -2.0374   -7.4710    3.7199 C   0  0  0  0  0  0  0  0  0  0  0  0
    0.2894   -8.1299    2.9060 C   0  0  1  0  0  0  0  0  0  0  0  0
    0.6132   -7.3697    1.6097 C   0  0  0  0  0  0  0  0  0  0  0  0
    0.1637   -6.2555    1.3502 O   0  0  0  0  0  0  0  0  0  0  0  0
    1.5448   -8.6777    3.6562 C   0  0  1  0  0  0  0  0  0  0  0  0
    1.0217   -9.4010    4.7564 O   0  0  0  0  0  0  0  0  0  0  0  0
    2.3815   -9.7690    2.9260 C   0  0  0  0  0  0  0  0  0  0  0  0
    3.4908   -9.2492    2.0048 C   0  0  0  0  0  0  0  0  0  0  0  0
    4.3789   -8.2445    2.7417 C   0  0  0  0  0  0  0  0  0  0  0  0
    3.5518   -7.0863    3.3147 C   0  0  0  0  0  0  0  0  0  0  0  0
    2.4161   -7.5366    4.2762 C   0  0  1  0  0  0  0  0  0  0  0  0
    1.5770   -6.3016    4.7905 C   0  0  1  0  0  0  0  0  0  0  0  0
    1.8272   -5.1938    3.9041 O   0  0  0  0  0  0  0  0  0  0  0  0
    1.6895   -3.8582    4.3907 C   0  0  2  0  0  0  0  0  0  0  0  0
    1.8279   -2.9083    3.1832 C   0  0  0  0  0  0  0  0  0  0  0  0
    3.1701   -3.1435    2.5125 C   0  0  2  0  0  0  0  0  0  0  0  0
    4.2182   -3.0310    3.5690 C   0  0  0  0  0  0  0  0  0  0  0  0
    4.1091   -3.1799    4.8937 C   0  0  0  0  0  0  0  0  0  0  0  0
    2.7820   -3.6272    5.4843 C   0  0  2  0  0  0  0  0  0  0  0  0
    2.9637   -4.8664    6.3836 C   0  0  0  0  0  0  0  0  0  0  0  0
    1.8291   -5.9007    6.2659 C   0  0  1  0  0  0  0  0  0  0  0  0
    5.1731   -2.4551    2.5733 C   0  0  0  0  0  0  0  0  0  0  0  0
    3.9098   -1.9957    1.9713 N   0  0  0  0  0  0  0  0  0  0  0  0
    3.8958   -1.9055    0.5122 C   0  0  0  0  0  0  0  0  0  0  0  0
    0.6864   -5.3787    8.9041 H   0  0  0  0  0  0  0  0  0  0  0  0
   -0.8139   -4.6457    8.3139 H   0  0  0  0  0  0  0  0  0  0  0  0
    0.7327   -3.8137    8.0825 H   0  0  0  0  0  0  0  0  0  0  0  0
   -1.5833   -5.6842    6.0821 H   0  0  0  0  0  0  0  0  0  0  0  0
   -2.3046   -8.5276    3.7687 H   0  0  0  0  0  0  0  0  0  0  0  0
   -2.3364   -7.1002    2.7406 H   0  0  0  0  0  0  0  0  0  0  0  0
   -2.5833   -6.9230    4.4819 H   0  0  0  0  0  0  0  0  0  0  0  0
   -0.3084   -8.9851    2.5945 H   0  0  0  0  0  0  0  0  0  0  0  0
    1.2240   -7.9124    0.8890 H   0  0  0  0  0  0  0  0  0  0  0  0
    0.4778  -10.1080    4.4340 H   0  0  0  0  0  0  0  0  0  0  0  0
    2.8761  -10.3790    3.6838 H   0  0  0  0  0  0  0  0  0  0  0  0
    1.7333  -10.4721    2.4065 H   0  0  0  0  0  0  0  0  0  0  0  0
    4.0943  -10.0873    1.6624 H   0  0  0  0  0  0  0  0  0  0  0  0
    3.0895   -8.7978    1.1035 H   0  0  0  0  0  0  0  0  0  0  0  0
    4.9271   -8.7366    3.5477 H   0  0  0  0  0  0  0  0  0  0  0  0
    5.1214   -7.8454    2.0473 H   0  0  0  0  0  0  0  0  0  0  0  0
    4.2190   -6.3965    3.8369 H   0  0  0  0  0  0  0  0  0  0  0  0
    3.1435   -6.5310    2.4691 H   0  0  0  0  0  0  0  0  0  0  0  0
    2.9314   -7.9701    5.1391 H   0  0  0  0  0  0  0  0  0  0  0  0
    0.7055   -3.7113    4.8182 H   0  0  0  0  0  0  0  0  0  0  0  0
    1.0150   -3.0768    2.4931 H   0  0  0  0  0  0  0  0  0  0  0  0
    1.7285   -1.8755    3.5211 H   0  0  0  0  0  0  0  0  0  0  0  0
    3.2809   -4.0058    1.8573 H   0  0  0  0  0  0  0  0  0  0  0  0
    4.9186   -2.9208    5.5821 H   0  0  0  0  0  0  0  0  0  0  0  0
    2.4532   -2.8007    6.1163 H   0  0  0  0  0  0  0  0  0  0  0  0
    3.8838   -5.3808    6.0867 H   0  0  0  0  0  0  0  0  0  0  0  0
    3.1105   -4.5651    7.4219 H   0  0  0  0  0  0  0  0  0  0  0  0
    2.0822   -6.7715    6.8708 H   0  0  0  0  0  0  0  0  0  0  0  0
    5.7974   -1.5795    2.8116 H   0  0  0  0  0  0  0  0  0  0  0  0
    5.6635   -3.1639    1.8933 H   0  0  0  0  0  0  0  0  0  0  0  0
    4.5440   -1.0934    0.1722 H   0  0  0  0  0  0  0  0  0  0  0  0
    2.8882   -1.6649    0.1664 H   0  0  0  0  0  0  0  0  0  0  0  0
    4.2101   -2.8261    0.0093 H   0  0  0  0  0  0  0  0  0  0  0  0
  1  2  1  0
  1 30  1  0
  1 31  1  0
  1 32  1  0
  2 26  1  0
  2  3  2  0
  3  4  1  0
  3 33  1  0
  4 17  1  0
  4  5  2  0
  5  6  1  0
  5  7  1  0
  6 34  1  0
  6 35  1  0
  6 36  1  0
  7  8  1  0
  7 10  1  0
  7 37  1  6
  8  9  2  0
  8 38  1  0
 10 16  1  0
 10 11  1  1
 10 12  1  0
 11 39  1  0
 12 13  1  0
 12 40  1  0
 12 41  1  0
 13 14  1  0
 13 42  1  0
 13 43  1  0
 14 15  1  0
 14 44  1  0
 14 45  1  0
 15 16  1  0
 15 46  1  0
 15 47  1  0
 16 17  1  0
 16 48  1  1
 17 26  1  0
 17 18  1  6
 18 19  1  0
 19 24  1  0
 19 20  1  0
 19 49  1  1
 20 21  1  0
 20 50  1  0
 20 51  1  0
 21 28  1  0
 21 22  1  0
 21 52  1  6
 22 23  2  0
 22 27  1  0
 23 24  1  0
 23 53  1  0
 24 25  1  0
 24 54  1  1
 25 26  1  0
 25 55  1  0
 25 56  1  0
 26 57  1  1
 27 28  1  0
 27 58  1  0
 27 59  1  0
 28 29  1  0
 29 60  1  0
 29 61  1  0
 29 62  1  0
M  END
>  <i_m_ct_stereo_status>  (386) 
1

>  <s_m_source_file>  (386) 
/var/tmp/pbs.5076255.sched01/tmpnhftudgm/135squ2m_dv.sdf

>  <i_m_source_file_index>  (386) 
25

>  <i_lp_mmshare_version>  (386) 
48012

>  <i_f3d_flags>  (386) 
0

>  <s_epik_input>  (386) 
W0NIM11OMVtDSDJdQyg9W0NIXTIpW0NASF0xW0NIMl1bQ0BASF0oTzMpW0NASF0yW0NIMl1bQ0BIXTRDKFtDSDNdKT1bQ0hdQyhbQ0BAXTM0NSk9QyhbQ0gzXSlbQ0BASF0oW0NIXT1PKVtDQF02KFtPSF0pW0NASF01W0NIMl1bQ0gyXVtDSDJdW0NIMl02

>  <s_epik_cmdline>  (386) 
J2VwaWtfcHl0aG9uJywgJy1waHQnLCAnMi4wJywgJy1waCcsICc3LjAnLCAnLXRuJywgJzgnLCAnLW1hJywgJzIwMCcsICctaW1hZScsICc8aW5maWxlLm1hZT4nLCAnLW9tYWUnLCAnPG91dGZpbGUubWFlPic=

>  <r_epik_Ionization_Penalty>  (386) 
1.22608

>  <r_epik_Ionization_Penalty_Charging>  (386) 
0

>  <r_epik_Ionization_Penalty_Neutral>  (386) 
1.22608

>  <r_epik_State_Penalty>  (386) 
1.29378

>  <r_epik_Charging_Adjusted_Penalty>  (386) 
1.29378

>  <i_epik_Tot_Q>  (386) 
0

>  <i_epik_Tot_abs_Q>  (386) 
0

>  <s_lp_Force_Field>  (386) 
OPLS3e

>  <r_lp_Energy>  (386) 
53.0877

>  <b_lp_Chiralities_Consistent>  (386) 
1

>  <s_lp_Variant>  (386) 
106:0-2

>  <s_i_glide_gridfile>  (386) 
pfpi4k_grid

>  <i_i_glide_lignum>  (386) 
25

>  <i_i_glide_rotatable_bonds>  (386) 
2

>  <r_i_docking_score>  (386) 
-2.90327

>  <r_i_glide_ligand_efficiency>  (386) 
-0.100113

>  <r_i_glide_ligand_efficiency_sa>  (386) 
-0.307578

>  <r_i_glide_ligand_efficiency_ln>  (386) 
-0.664776

>  <r_i_glide_gscore>  (386) 
-2.90327

>  <r_i_glide_lipo>  (386) 
-0.0870987

>  <r_i_glide_hbond>  (386) 
-0.234979

>  <r_i_glide_metal>  (386) 
-0

>  <r_i_glide_rewards>  (386) 
-0.712265

>  <r_i_glide_evdw>  (386) 
-20.288

>  <r_i_glide_ecoul>  (386) 
-5.25309

>  <r_i_glide_erotb>  (386) 
0

>  <r_i_glide_esite>  (386) 
-0.0665655

>  <r_i_glide_emodel>  (386) 
-30.1855

>  <r_i_glide_energy>  (386) 
-25.5411

>  <r_i_glide_einternal>  (386) 
0.0963695

>  <r_i_glide_intrahb_reward>  (386) 
-0

>  <i_i_glide_confnum>  (386) 
1

>  <i_i_glide_posenum>  (386) 
35

>  <r_i_glide_eff_state_penalty>  (386) 
0

>  <ligand_id>  (386) 
106

>  <original_smiles>  (386) 
CC1=CC2=C(C)C(C=O)C3(O)CCCCC3C23OC2CC4C(=CC2CC13)CN4C

>  <smiles>  (386) 
[H]OC12C([H])(C([H])=O)C(C([H])([H])[H])=C3C([H])=C(C([H])([H])[H])C4([H])C([H])([H])C5([H])C([H])=C6C([H])([H])N(C([H])([H])[H])C6([H])C([H])([H])C5([H])OC34C1([H])C([H])([H])C([H])([H])C([H])([H])C2([H])[H]

$$$$
106:1:1
     RDKit          3D

 62 67  0  0  1  0  0  0  0  0999 V2000
    1.1061   -9.3798    7.9097 C   0  0  0  0  0  0  0  0  0  0  0  0
    1.3014   -8.9482    6.4688 C   0  0  0  0  0  0  0  0  0  0  0  0
    0.5111   -9.2527    5.4303 C   0  0  0  0  0  0  0  0  0  0  0  0
    1.0610   -8.6673    4.2314 C   0  0  0  0  0  0  0  0  0  0  0  0
    0.7290   -8.9458    2.9507 C   0  0  0  0  0  0  0  0  0  0  0  0
   -0.4152   -9.8378    2.5141 C   0  0  0  0  0  0  0  0  0  0  0  0
    1.6233   -8.4284    1.8223 C   0  0  1  0  0  0  0  0  0  0  0  0
    1.1328   -7.0578    1.3123 C   0  0  0  0  0  0  0  0  0  0  0  0
    0.0493   -6.5574    1.6339 O   0  0  0  0  0  0  0  0  0  0  0  0
    3.1197   -8.4987    2.2828 C   0  0  1  0  0  0  0  0  0  0  0  0
    3.3710   -9.8594    2.6181 O   0  0  0  0  0  0  0  0  0  0  0  0
    4.1990   -8.2748    1.1790 C   0  0  0  0  0  0  0  0  0  0  0  0
    4.5887   -6.8102    0.9209 C   0  0  0  0  0  0  0  0  0  0  0  0
    4.9583   -6.1123    2.2342 C   0  0  0  0  0  0  0  0  0  0  0  0
    3.8165   -6.2035    3.2542 C   0  0  0  0  0  0  0  0  0  0  0  0
    3.3725   -7.6590    3.5809 C   0  0  1  0  0  0  0  0  0  0  0  0
    2.1634   -7.6948    4.5980 C   0  0  1  0  0  0  0  0  0  0  0  0
    1.5556   -6.3862    4.5947 O   0  0  0  0  0  0  0  0  0  0  0  0
    0.8637   -5.9296    5.7585 C   0  0  2  0  0  0  0  0  0  0  0  0
    0.1733   -4.5999    5.3750 C   0  0  0  0  0  0  0  0  0  0  0  0
    1.2186   -3.5914    4.9198 C   0  0  2  0  0  0  0  0  0  0  0  0
    2.2634   -3.5228    5.9816 C   0  0  0  0  0  0  0  0  0  0  0  0
    2.5849   -4.4240    6.9169 C   0  0  0  0  0  0  0  0  0  0  0  0
    1.8922   -5.7853    6.9228 C   0  0  2  0  0  0  0  0  0  0  0  0
    2.9215   -6.9336    6.9163 C   0  0  0  0  0  0  0  0  0  0  0  0
    2.5238   -8.1370    6.0428 C   0  0  1  0  0  0  0  0  0  0  0  0
    2.4752   -2.0731    5.6669 C   0  0  0  0  0  0  0  0  0  0  0  0
    1.0519   -2.1773    5.2750 N   0  0  0  0  0  0  0  0  0  0  0  0
    0.6400   -1.3114    4.1755 C   0  0  0  0  0  0  0  0  0  0  0  0
    1.9720   -9.9452    8.2591 H   0  0  0  0  0  0  0  0  0  0  0  0
    0.2260  -10.0192    8.0062 H   0  0  0  0  0  0  0  0  0  0  0  0
    0.9744   -8.5104    8.5545 H   0  0  0  0  0  0  0  0  0  0  0  0
   -0.3879   -9.8416    5.5009 H   0  0  0  0  0  0  0  0  0  0  0  0
   -0.0624  -10.6626    1.8939 H   0  0  0  0  0  0  0  0  0  0  0  0
   -1.1168   -9.2465    1.9269 H   0  0  0  0  0  0  0  0  0  0  0  0
   -0.9709  -10.2533    3.3514 H   0  0  0  0  0  0  0  0  0  0  0  0
    1.5323   -9.1169    0.9890 H   0  0  0  0  0  0  0  0  0  0  0  0
    1.8037   -6.5749    0.6036 H   0  0  0  0  0  0  0  0  0  0  0  0
    3.3761  -10.3880    1.8282 H   0  0  0  0  0  0  0  0  0  0  0  0
    5.1190   -8.7766    1.4846 H   0  0  0  0  0  0  0  0  0  0  0  0
    3.9136   -8.7718    0.2509 H   0  0  0  0  0  0  0  0  0  0  0  0
    5.4406   -6.7699    0.2415 H   0  0  0  0  0  0  0  0  0  0  0  0
    3.7981   -6.2600    0.4125 H   0  0  0  0  0  0  0  0  0  0  0  0
    5.8620   -6.5503    2.6606 H   0  0  0  0  0  0  0  0  0  0  0  0
    5.1752   -5.0627    2.0359 H   0  0  0  0  0  0  0  0  0  0  0  0
    4.1156   -5.7050    4.1776 H   0  0  0  0  0  0  0  0  0  0  0  0
    2.9805   -5.6274    2.8599 H   0  0  0  0  0  0  0  0  0  0  0  0
    4.2321   -8.1133    4.0752 H   0  0  0  0  0  0  0  0  0  0  0  0
    0.0847   -6.6383    6.0277 H   0  0  0  0  0  0  0  0  0  0  0  0
   -0.5641   -4.7723    4.5954 H   0  0  0  0  0  0  0  0  0  0  0  0
   -0.3771   -4.2255    6.2409 H   0  0  0  0  0  0  0  0  0  0  0  0
    1.5950   -3.7021    3.9023 H   0  0  0  0  0  0  0  0  0  0  0  0
    3.2691   -4.1967    7.7224 H   0  0  0  0  0  0  0  0  0  0  0  0
    1.3350   -5.8348    7.8578 H   0  0  0  0  0  0  0  0  0  0  0  0
    3.8634   -6.5517    6.5099 H   0  0  0  0  0  0  0  0  0  0  0  0
    3.1488   -7.2474    7.9352 H   0  0  0  0  0  0  0  0  0  0  0  0
    3.3446   -8.8503    6.0318 H   0  0  0  0  0  0  0  0  0  0  0  0
    2.5916   -1.3404    6.4648 H   0  0  0  0  0  0  0  0  0  0  0  0
    3.0906   -1.8515    4.7902 H   0  0  0  0  0  0  0  0  0  0  0  0
    0.6584   -0.2680    4.4920 H   0  0  0  0  0  0  0  0  0  0  0  0
   -0.3859   -1.5491    3.8996 H   0  0  0  0  0  0  0  0  0  0  0  0
    1.2638   -1.4120    3.2860 H   0  0  0  0  0  0  0  0  0  0  0  0
  1  2  1  0
  1 30  1  0
  1 31  1  0
  1 32  1  0
  2 26  1  0
  2  3  2  0
  3  4  1  0
  3 33  1  0
  4 17  1  0
  4  5  2  0
  5  6  1  0
  5  7  1  0
  6 34  1  0
  6 35  1  0
  6 36  1  0
  7  8  1  0
  7 10  1  0
  7 37  1  6
  8  9  2  0
  8 38  1  0
 10 16  1  0
 10 11  1  1
 10 12  1  0
 11 39  1  0
 12 13  1  0
 12 40  1  0
 12 41  1  0
 13 14  1  0
 13 42  1  0
 13 43  1  0
 14 15  1  0
 14 44  1  0
 14 45  1  0
 15 16  1  0
 15 46  1  0
 15 47  1  0
 16 17  1  0
 16 48  1  1
 17 26  1  0
 17 18  1  1
 18 19  1  0
 19 24  1  0
 19 20  1  0
 19 49  1  1
 20 21  1  0
 20 50  1  0
 20 51  1  0
 21 28  1  0
 21 22  1  0
 21 52  1  6
 22 23  2  0
 22 27  1  0
 23 24  1  0
 23 53  1  0
 24 25  1  0
 24 54  1  1
 25 26  1  0
 25 55  1  0
 25 56  1  0
 26 57  1  6
 27 28  1  0
 27 58  1  0
 27 59  1  0
 28 29  1  0
 29 60  1  0
 29 61  1  0
 29 62  1  0
M  END
>  <i_m_ct_stereo_status>  (387) 
1

>  <s_m_source_file>  (387) 
/var/tmp/pbs.5076255.sched01/tmpnhftudgm/135squ2m_dv.sdf

>  <i_m_source_file_index>  (387) 
25

>  <i_lp_mmshare_version>  (387) 
48012

>  <i_f3d_flags>  (387) 
0

>  <s_epik_input>  (387) 
W0NIM11OMVtDSDJdQyg9W0NIXTIpW0NASF0xW0NIMl1bQ0BASF0oTzMpW0NASF0yW0NIMl1bQ0BIXTRDKFtDSDNdKT1bQ0hdQyhbQ0BAXTM0NSk9QyhbQ0gzXSlbQ0BASF0oW0NIXT1PKVtDQF02KFtPSF0pW0NASF01W0NIMl1bQ0gyXVtDSDJdW0NIMl02

>  <s_epik_cmdline>  (387) 
J2VwaWtfcHl0aG9uJywgJy1waHQnLCAnMi4wJywgJy1waCcsICc3LjAnLCAnLXRuJywgJzgnLCAnLW1hJywgJzIwMCcsICctaW1hZScsICc8aW5maWxlLm1hZT4nLCAnLW9tYWUnLCAnPG91dGZpbGUubWFlPic=

>  <r_epik_Ionization_Penalty>  (387) 
1.22608

>  <r_epik_Ionization_Penalty_Charging>  (387) 
0

>  <r_epik_Ionization_Penalty_Neutral>  (387) 
1.22608

>  <r_epik_State_Penalty>  (387) 
1.29378

>  <r_epik_Charging_Adjusted_Penalty>  (387) 
1.29378

>  <i_epik_Tot_Q>  (387) 
0

>  <i_epik_Tot_abs_Q>  (387) 
0

>  <s_lp_Force_Field>  (387) 
OPLS3e

>  <r_lp_Energy>  (387) 
53.0877

>  <b_lp_Chiralities_Consistent>  (387) 
1

>  <s_lp_Variant>  (387) 
106:0-2

>  <s_i_glide_gridfile>  (387) 
pfpi4k_grid

>  <i_i_glide_lignum>  (387) 
25

>  <i_i_glide_rotatable_bonds>  (387) 
2

>  <r_i_docking_score>  (387) 
-2.90048

>  <r_i_glide_ligand_efficiency>  (387) 
-0.100016

>  <r_i_glide_ligand_efficiency_sa>  (387) 
-0.307282

>  <r_i_glide_ligand_efficiency_ln>  (387) 
-0.664136

>  <r_i_glide_gscore>  (387) 
-2.90048

>  <r_i_glide_lipo>  (387) 
-0.184398

>  <r_i_glide_hbond>  (387) 
-0.244414

>  <r_i_glide_metal>  (387) 
-0

>  <r_i_glide_rewards>  (387) 
-0.712265

>  <r_i_glide_evdw>  (387) 
-20.3622

>  <r_i_glide_ecoul>  (387) 
-4.54163

>  <r_i_glide_erotb>  (387) 
0

>  <r_i_glide_esite>  (387) 
-0.060046

>  <r_i_glide_emodel>  (387) 
-29.4744

>  <r_i_glide_energy>  (387) 
-24.9038

>  <r_i_glide_einternal>  (387) 
0.28627

>  <r_i_glide_intrahb_reward>  (387) 
-0

>  <i_i_glide_confnum>  (387) 
1

>  <i_i_glide_posenum>  (387) 
20

>  <r_i_glide_eff_state_penalty>  (387) 
0

>  <ligand_id>  (387) 
106

>  <original_smiles>  (387) 
CC1=CC2=C(C)C(C=O)C3(O)CCCCC3C23OC2CC4C(=CC2CC13)CN4C

>  <smiles>  (387) 
[H]OC12C([H])(C([H])=O)C(C([H])([H])[H])=C3C([H])=C(C([H])([H])[H])C4([H])C([H])([H])C5([H])C([H])=C6C([H])([H])N(C([H])([H])[H])C6([H])C([H])([H])C5([H])OC34C1([H])C([H])([H])C([H])([H])C([H])([H])C2([H])[H]

$$$$
106:1:2
     RDKit          3D

 62 67  0  0  1  0  0  0  0  0999 V2000
    0.4914   -4.8064    8.0777 C   0  0  0  0  0  0  0  0  0  0  0  0
    0.6747   -5.4713    6.7290 C   0  0  0  0  0  0  0  0  0  0  0  0
   -0.3005   -5.8604    5.8920 C   0  0  0  0  0  0  0  0  0  0  0  0
    0.2976   -6.4828    4.7410 C   0  0  0  0  0  0  0  0  0  0  0  0
   -0.3159   -7.2449    3.8041 C   0  0  0  0  0  0  0  0  0  0  0  0
   -1.8132   -7.4695    3.7021 C   0  0  0  0  0  0  0  0  0  0  0  0
    0.5358   -8.0540    2.8281 C   0  0  1  0  0  0  0  0  0  0  0  0
    0.7942   -7.2641    1.5398 C   0  0  0  0  0  0  0  0  0  0  0  0
    0.1509   -6.2575    1.2421 O   0  0  0  0  0  0  0  0  0  0  0  0
    1.8156   -8.5693    3.5581 C   0  0  1  0  0  0  0  0  0  0  0  0
    1.3069   -9.3306    4.6509 O   0  0  0  0  0  0  0  0  0  0  0  0
    2.6620   -9.6276    2.7831 C   0  0  0  0  0  0  0  0  0  0  0  0
    3.7436   -9.0671    1.8400 C   0  0  0  0  0  0  0  0  0  0  0  0
    4.6156   -8.0449    2.5772 C   0  0  0  0  0  0  0  0  0  0  0  0
    3.7687   -6.9165    3.1854 C   0  0  0  0  0  0  0  0  0  0  0  0
    2.6691   -7.4084    4.1699 C   0  0  1  0  0  0  0  0  0  0  0  0
    1.7920   -6.2187    4.7207 C   0  0  1  0  0  0  0  0  0  0  0  0
    1.9881   -5.0883    3.8500 O   0  0  0  0  0  0  0  0  0  0  0  0
    1.8332   -3.7659    4.3642 C   0  0  2  0  0  0  0  0  0  0  0  0
    1.9218   -2.7940    3.1636 C   0  0  0  0  0  0  0  0  0  0  0  0
    3.2684   -2.9755    2.4725 C   0  0  2  0  0  0  0  0  0  0  0  0
    4.3247   -2.8457    3.5096 C   0  0  0  0  0  0  0  0  0  0  0  0
    4.2431   -3.0291    4.8325 C   0  0  0  0  0  0  0  0  0  0  0  0
    2.9341   -3.5262    5.4450 C   0  0  2  0  0  0  0  0  0  0  0  0
    3.1724   -4.7764    6.3120 C   0  0  0  0  0  0  0  0  0  0  0  0
    2.0607   -5.8359    6.2036 C   0  0  1  0  0  0  0  0  0  0  0  0
    5.2370   -2.2275    2.4934 C   0  0  0  0  0  0  0  0  0  0  0  0
    3.9466   -1.7942    1.9246 N   0  0  0  0  0  0  0  0  0  0  0  0
    3.9019   -1.6780    0.4717 C   0  0  0  0  0  0  0  0  0  0  0  0
    0.9637   -5.3949    8.8670 H   0  0  0  0  0  0  0  0  0  0  0  0
   -0.5654   -4.6951    8.3211 H   0  0  0  0  0  0  0  0  0  0  0  0
    0.9487   -3.8162    8.0676 H   0  0  0  0  0  0  0  0  0  0  0  0
   -1.3525   -5.7248    6.0777 H   0  0  0  0  0  0  0  0  0  0  0  0
   -2.0454   -8.5361    3.7296 H   0  0  0  0  0  0  0  0  0  0  0  0
   -2.1578   -7.0830    2.7447 H   0  0  0  0  0  0  0  0  0  0  0  0
   -2.3737   -6.9657    4.4871 H   0  0  0  0  0  0  0  0  0  0  0  0
   -0.0444   -8.9234    2.5293 H   0  0  0  0  0  0  0  0  0  0  0  0
    1.5436   -7.6816    0.8788 H   0  0  0  0  0  0  0  0  0  0  0  0
    1.9943   -9.8728    5.0072 H   0  0  0  0  0  0  0  0  0  0  0  0
    3.1963  -10.2484    3.5073 H   0  0  0  0  0  0  0  0  0  0  0  0
    2.0189  -10.3301    2.2480 H   0  0  0  0  0  0  0  0  0  0  0  0
    4.3739   -9.8797    1.4737 H   0  0  0  0  0  0  0  0  0  0  0  0
    3.3197   -8.6162    0.9450 H   0  0  0  0  0  0  0  0  0  0  0  0
    5.1929   -8.5275    3.3681 H   0  0  0  0  0  0  0  0  0  0  0  0
    5.3307   -7.6084    1.8768 H   0  0  0  0  0  0  0  0  0  0  0  0
    4.4211   -6.2146    3.7082 H   0  0  0  0  0  0  0  0  0  0  0  0
    3.3206   -6.3597    2.3614 H   0  0  0  0  0  0  0  0  0  0  0  0
    3.2165   -7.8416    5.0099 H   0  0  0  0  0  0  0  0  0  0  0  0
    0.8473   -3.6549    4.8078 H   0  0  0  0  0  0  0  0  0  0  0  0
    1.0923   -2.9686    2.4838 H   0  0  0  0  0  0  0  0  0  0  0  0
    1.7942   -1.7707    3.5246 H   0  0  0  0  0  0  0  0  0  0  0  0
    3.3651   -3.8292    1.7989 H   0  0  0  0  0  0  0  0  0  0  0  0
    5.0484   -2.7622    5.4999 H   0  0  0  0  0  0  0  0  0  0  0  0
    2.5886   -2.7188    6.0949 H   0  0  0  0  0  0  0  0  0  0  0  0
    4.0993   -5.2544    5.9852 H   0  0  0  0  0  0  0  0  0  0  0  0
    3.3366   -4.4893    7.3491 H   0  0  0  0  0  0  0  0  0  0  0  0
    2.3579   -6.7128    6.7778 H   0  0  0  0  0  0  0  0  0  0  0  0
    5.8372   -1.3584    2.7410 H   0  0  0  0  0  0  0  0  0  0  0  0
    5.7327   -2.9140    1.8067 H   0  0  0  0  0  0  0  0  0  0  0  0
    4.5151   -0.8408    0.1389 H   0  0  0  0  0  0  0  0  0  0  0  0
    2.8808   -1.4648    0.1569 H   0  0  0  0  0  0  0  0  0  0  0  0
    4.2312   -2.5800   -0.0488 H   0  0  0  0  0  0  0  0  0  0  0  0
  1  2  1  0
  1 30  1  0
  1 31  1  0
  1 32  1  0
  2 26  1  0
  2  3  2  0
  3  4  1  0
  3 33  1  0
  4 17  1  0
  4  5  2  0
  5  6  1  0
  5  7  1  0
  6 34  1  0
  6 35  1  0
  6 36  1  0
  7  8  1  0
  7 10  1  0
  7 37  1  6
  8  9  2  0
  8 38  1  0
 10 16  1  0
 10 11  1  1
 10 12  1  0
 11 39  1  0
 12 13  1  0
 12 40  1  0
 12 41  1  0
 13 14  1  0
 13 42  1  0
 13 43  1  0
 14 15  1  0
 14 44  1  0
 14 45  1  0
 15 16  1  0
 15 46  1  0
 15 47  1  0
 16 17  1  0
 16 48  1  1
 17 26  1  0
 17 18  1  6
 18 19  1  0
 19 24  1  0
 19 20  1  0
 19 49  1  1
 20 21  1  0
 20 50  1  0
 20 51  1  0
 21 28  1  0
 21 22  1  0
 21 52  1  6
 22 23  2  0
 22 27  1  0
 23 24  1  0
 23 53  1  0
 24 25  1  0
 24 54  1  1
 25 26  1  0
 25 55  1  0
 25 56  1  0
 26 57  1  1
 27 28  1  0
 27 58  1  0
 27 59  1  0
 28 29  1  0
 29 60  1  0
 29 61  1  0
 29 62  1  0
M  END
>  <i_m_ct_stereo_status>  (388) 
1

>  <s_m_source_file>  (388) 
/var/tmp/pbs.5076255.sched01/tmpnhftudgm/135squ2m_dv.sdf

>  <i_m_source_file_index>  (388) 
25

>  <i_lp_mmshare_version>  (388) 
48012

>  <i_f3d_flags>  (388) 
0

>  <s_epik_input>  (388) 
W0NIM11OMVtDSDJdQyg9W0NIXTIpW0NASF0xW0NIMl1bQ0BASF0oTzMpW0NASF0yW0NIMl1bQ0BIXTRDKFtDSDNdKT1bQ0hdQyhbQ0BAXTM0NSk9QyhbQ0gzXSlbQ0BASF0oW0NIXT1PKVtDQF02KFtPSF0pW0NASF01W0NIMl1bQ0gyXVtDSDJdW0NIMl02

>  <s_epik_cmdline>  (388) 
J2VwaWtfcHl0aG9uJywgJy1waHQnLCAnMi4wJywgJy1waCcsICc3LjAnLCAnLXRuJywgJzgnLCAnLW1hJywgJzIwMCcsICctaW1hZScsICc8aW5maWxlLm1hZT4nLCAnLW9tYWUnLCAnPG91dGZpbGUubWFlPic=

>  <r_epik_Ionization_Penalty>  (388) 
1.22608

>  <r_epik_Ionization_Penalty_Charging>  (388) 
0

>  <r_epik_Ionization_Penalty_Neutral>  (388) 
1.22608

>  <r_epik_State_Penalty>  (388) 
1.29378

>  <r_epik_Charging_Adjusted_Penalty>  (388) 
1.29378

>  <i_epik_Tot_Q>  (388) 
0

>  <i_epik_Tot_abs_Q>  (388) 
0

>  <s_lp_Force_Field>  (388) 
OPLS3e

>  <r_lp_Energy>  (388) 
53.0877

>  <b_lp_Chiralities_Consistent>  (388) 
1

>  <s_lp_Variant>  (388) 
106:0-2

>  <s_i_glide_gridfile>  (388) 
pfpi4k_grid

>  <i_i_glide_lignum>  (388) 
25

>  <i_i_glide_rotatable_bonds>  (388) 
2

>  <r_i_docking_score>  (388) 
-2.84682

>  <r_i_glide_ligand_efficiency>  (388) 
-0.0981662

>  <r_i_glide_ligand_efficiency_sa>  (388) 
-0.301598

>  <r_i_glide_ligand_efficiency_ln>  (388) 
-0.651849

>  <r_i_glide_gscore>  (388) 
-2.84682

>  <r_i_glide_lipo>  (388) 
-0.0895568

>  <r_i_glide_hbond>  (388) 
-0.219348

>  <r_i_glide_metal>  (388) 
-0

>  <r_i_glide_rewards>  (388) 
-0.712265

>  <r_i_glide_evdw>  (388) 
-20.4178

>  <r_i_glide_ecoul>  (388) 
-4.93241

>  <r_i_glide_erotb>  (388) 
0

>  <r_i_glide_esite>  (388) 
-0.0648953

>  <r_i_glide_emodel>  (388) 
-29.743

>  <r_i_glide_energy>  (388) 
-25.3502

>  <r_i_glide_einternal>  (388) 
0.30591

>  <r_i_glide_intrahb_reward>  (388) 
-0

>  <i_i_glide_confnum>  (388) 
2

>  <i_i_glide_posenum>  (388) 
26

>  <r_i_glide_eff_state_penalty>  (388) 
0

>  <ligand_id>  (388) 
106

>  <original_smiles>  (388) 
CC1=CC2=C(C)C(C=O)C3(O)CCCCC3C23OC2CC4C(=CC2CC13)CN4C

>  <smiles>  (388) 
[H]OC12C([H])(C([H])=O)C(C([H])([H])[H])=C3C([H])=C(C([H])([H])[H])C4([H])C([H])([H])C5([H])C([H])=C6C([H])([H])N(C([H])([H])[H])C6([H])C([H])([H])C5([H])OC34C1([H])C([H])([H])C([H])([H])C([H])([H])C2([H])[H]

$$$$
107:0:0
     RDKit          3D

 62 67  0  0  1  0  0  0  0  0999 V2000
    1.6687    1.8126    7.3704 O   0  0  0  0  0  0  0  0  0  0  0  0
    0.6097    2.1162    6.8157 C   0  0  0  0  0  0  0  0  0  0  0  0
   -0.6862    2.3666    7.4810 C   0  0  0  0  0  0  0  0  0  0  0  0
   -1.0150    2.3505    8.8483 C   0  0  0  0  0  0  0  0  0  0  0  0
   -2.3657    2.6504    9.1702 C   0  0  0  0  0  0  0  0  0  0  0  0
   -3.3044    2.9455    8.1681 C   0  0  0  0  0  0  0  0  0  0  0  0
   -2.9410    2.9462    6.7957 C   0  0  0  0  0  0  0  0  0  0  0  0
   -1.5997    2.6487    6.5068 C   0  0  0  0  0  0  0  0  0  0  0  0
   -0.9107    2.5874    5.1995 C   0  0  0  0  0  0  0  0  0  0  0  0
   -1.4220    2.7789    4.0971 O   0  0  0  0  0  0  0  0  0  0  0  0
    0.3789    2.2749    5.4864 N   0  0  0  0  0  0  0  0  0  0  0  0
    1.4236    2.1078    4.4817 C   0  0  0  0  0  0  0  0  0  0  0  0
    1.5517    0.6359    4.0487 C   0  0  0  0  0  0  0  0  0  0  0  0
    2.8116    0.4169    3.3124 N   0  0  1  0  0  0  0  0  0  0  0  0
    4.0184    0.4828    4.1534 C   0  0  0  0  0  0  0  0  0  0  0  0
    5.0913   -0.2297    3.3364 C   0  0  0  0  0  0  0  0  0  0  0  0
    4.3494   -0.9988    2.3021 N   0  0  2  0  0  0  0  0  0  0  0  0
    4.6438   -0.5538    0.9135 C   0  0  0  0  0  0  0  0  0  0  0  0
    4.7571   -1.7213   -0.0816 C   0  0  2  0  0  0  0  0  0  0  0  0
    6.0250   -2.5730    0.1909 C   0  0  0  0  0  0  0  0  0  0  0  0
    6.1620   -3.6660   -0.8867 C   0  0  1  0  0  0  0  0  0  0  0  0
    4.9293   -4.5877   -0.8242 C   0  0  0  0  0  0  0  0  0  0  0  0
    3.6556   -3.7577   -1.1059 C   0  0  2  0  0  0  0  0  0  0  0  0
    3.7405   -3.1054   -2.5008 C   0  0  0  0  0  0  0  0  0  0  0  0
    4.9804   -2.1965   -2.5621 C   0  0  2  0  0  0  0  0  0  0  0  0
    6.2484   -3.0371   -2.2962 C   0  0  0  0  0  0  0  0  0  0  0  0
    4.8783   -1.1002   -1.4972 C   0  0  0  0  0  0  0  0  0  0  0  0
    3.5105   -2.6520   -0.0626 C   0  0  0  0  0  0  0  0  0  0  0  0
    2.9117   -0.8808    2.6305 C   0  0  0  0  0  0  0  0  0  0  0  0
   -0.2849    2.1302    9.6053 H   0  0  0  0  0  0  0  0  0  0  0  0
   -2.6665    2.6511   10.2094 H   0  0  0  0  0  0  0  0  0  0  0  0
   -4.3256    3.1698    8.4387 H   0  0  0  0  0  0  0  0  0  0  0  0
   -3.6414    3.1652    6.0107 H   0  0  0  0  0  0  0  0  0  0  0  0
    1.2316    2.7299    3.6042 H   0  0  0  0  0  0  0  0  0  0  0  0
    2.3586    2.4864    4.8962 H   0  0  0  0  0  0  0  0  0  0  0  0
    1.5052   -0.0434    4.9042 H   0  0  0  0  0  0  0  0  0  0  0  0
    0.7046    0.3751    3.4086 H   0  0  0  0  0  0  0  0  0  0  0  0
    4.3076    1.5044    4.4032 H   0  0  0  0  0  0  0  0  0  0  0  0
    3.8485   -0.0515    5.0890 H   0  0  0  0  0  0  0  0  0  0  0  0
    5.7550    0.5136    2.9066 H   0  0  0  0  0  0  0  0  0  0  0  0
    5.7118   -0.8675    3.9703 H   0  0  0  0  0  0  0  0  0  0  0  0
    3.8720    0.1417    0.5844 H   0  0  0  0  0  0  0  0  0  0  0  0
    5.5744    0.0099    0.8537 H   0  0  0  0  0  0  0  0  0  0  0  0
    6.9114   -1.9424    0.2074 H   0  0  0  0  0  0  0  0  0  0  0  0
    5.9684   -3.0360    1.1763 H   0  0  0  0  0  0  0  0  0  0  0  0
    7.0648   -4.2413   -0.6861 H   0  0  0  0  0  0  0  0  0  0  0  0
    5.0156   -5.3953   -1.5503 H   0  0  0  0  0  0  0  0  0  0  0  0
    4.8641   -5.0686    0.1519 H   0  0  0  0  0  0  0  0  0  0  0  0
    2.7829   -4.4096   -1.0707 H   0  0  0  0  0  0  0  0  0  0  0  0
    3.7879   -3.8609   -3.2860 H   0  0  0  0  0  0  0  0  0  0  0  0
    2.8389   -2.5251   -2.6959 H   0  0  0  0  0  0  0  0  0  0  0  0
    5.0170   -1.7351   -3.5484 H   0  0  0  0  0  0  0  0  0  0  0  0
    7.1502   -2.4290   -2.3767 H   0  0  0  0  0  0  0  0  0  0  0  0
    6.3343   -3.8185   -3.0496 H   0  0  0  0  0  0  0  0  0  0  0  0
    4.0252   -0.4536   -1.7109 H   0  0  0  0  0  0  0  0  0  0  0  0
    5.7521   -0.4555   -1.5355 H   0  0  0  0  0  0  0  0  0  0  0  0
    3.3548   -3.1028    0.9209 H   0  0  0  0  0  0  0  0  0  0  0  0
    2.6141   -2.0675   -0.2709 H   0  0  0  0  0  0  0  0  0  0  0  0
    2.6146   -1.6802    3.3162 H   0  0  0  0  0  0  0  0  0  0  0  0
    2.2294   -0.9514    1.7748 H   0  0  0  0  0  0  0  0  0  0  0  0
    4.6120   -1.9693    2.3878 H   0  0  0  0  0  0  0  0  0  0  0  0
    2.8849    1.1263    2.5937 H   0  0  0  0  0  0  0  0  0  0  0  0
  1  2  2  0
  2 11  1  0
  2  3  1  0
  3  8  2  0
  3  4  1  0
  4  5  2  0
  4 30  1  0
  5  6  1  0
  5 31  1  0
  6  7  2  0
  6 32  1  0
  7  8  1  0
  7 33  1  0
  8  9  1  0
  9 10  2  0
  9 11  1  0
 11 12  1  0
 12 13  1  0
 12 34  1  0
 12 35  1  0
 13 14  1  0
 13 36  1  0
 13 37  1  0
 14 29  1  0
 14 15  1  0
 14 62  1  6
 15 16  1  0
 15 38  1  0
 15 39  1  0
 16 17  1  0
 16 40  1  0
 16 41  1  0
 17 18  1  0
 17 29  1  0
 17 61  1  6
 19 18  1  1
 18 42  1  0
 18 43  1  0
 19 27  1  0
 19 28  1  0
 19 20  1  0
 20 21  1  0
 20 44  1  0
 20 45  1  0
 21 26  1  0
 21 22  1  0
 21 46  1  1
 22 23  1  0
 22 47  1  0
 22 48  1  0
 23 24  1  0
 23 28  1  0
 23 49  1  6
 24 25  1  0
 24 50  1  0
 24 51  1  0
 25 26  1  0
 25 27  1  0
 25 52  1  6
 26 53  1  0
 26 54  1  0
 27 55  1  0
 27 56  1  0
 28 57  1  0
 28 58  1  0
 29 59  1  0
 29 60  1  0
M  CHG  2  14   1  17   1
M  END
>  <i_m_ct_stereo_status>  (389) 
1

>  <s_m_source_file>  (389) 
/var/tmp/pbs.5076255.sched01/tmpnhftudgm/135squ2m_dv.sdf

>  <i_m_source_file_index>  (389) 
26

>  <i_lp_mmshare_version>  (389) 
48012

>  <i_f3d_flags>  (389) 
0

>  <s_epik_input>  (389) 
W2NIXTFbY0hdW2NIXVtjSF1jKGMxMilDKD1PKU4oQzI9TylbQ0gyXVtDSDJdTjNbQ0gyXVtDSDJdTihbQ0gyXTMpW0NIMl1DNDVbQ0gyXVtDQEhdNltDSDJdW0NAQEhdKFtDSDJdNSlbQ0gyXVtDQEhdKFtDSDJdNilbQ0gyXTQ=

>  <s_epik_cmdline>  (389) 
J2VwaWtfcHl0aG9uJywgJy1waHQnLCAnMi4wJywgJy1waCcsICc3LjAnLCAnLXRuJywgJzgnLCAnLW1hJywgJzIwMCcsICctaW1hZScsICc8aW5maWxlLm1hZT4nLCAnLW9tYWUnLCAnPG91dGZpbGUubWFlPic=

>  <r_epik_Ionization_Penalty>  (389) 
0.246233

>  <r_epik_Ionization_Penalty_Charging>  (389) 
0.246233

>  <r_epik_Ionization_Penalty_Neutral>  (389) 
2.63117e-15

>  <r_epik_State_Penalty>  (389) 
0.228974

>  <r_epik_Charging_Adjusted_Penalty>  (389) 
0.475208

>  <i_epik_Tot_Q>  (389) 
2

>  <i_epik_Tot_abs_Q>  (389) 
2

>  <s_epik_Chemistry_Notes>  (389) 
This compound contains an acetal/aminal-like group ( X-CH(R)-Y where X, Y are N, S, or O) that may be acid/base labile, releasing an aldehyde.

>  <s_lp_Force_Field>  (389) 
OPLS3e

>  <r_lp_Energy>  (389) 
19.2932

>  <b_lp_Chiralities_Consistent>  (389) 
1

>  <s_lp_Variant>  (389) 
107:0-1

>  <s_i_glide_gridfile>  (389) 
pfpi4k_grid

>  <i_i_glide_lignum>  (389) 
26

>  <i_i_glide_rotatable_bonds>  (389) 
5

>  <r_i_docking_score>  (389) 
-3.03538

>  <r_i_glide_ligand_efficiency>  (389) 
-0.104668

>  <r_i_glide_ligand_efficiency_sa>  (389) 
-0.321574

>  <r_i_glide_ligand_efficiency_ln>  (389) 
-0.695025

>  <r_i_glide_gscore>  (389) 
-3.03538

>  <r_i_glide_lipo>  (389) 
-0.896685

>  <r_i_glide_hbond>  (389) 
0

>  <r_i_glide_metal>  (389) 
-0

>  <r_i_glide_rewards>  (389) 
-0.712243

>  <r_i_glide_evdw>  (389) 
-27.0446

>  <r_i_glide_ecoul>  (389) 
-4.54486

>  <r_i_glide_erotb>  (389) 
0.624988

>  <r_i_glide_esite>  (389) 
-0.0174819

>  <r_i_glide_emodel>  (389) 
-39.5103

>  <r_i_glide_energy>  (389) 
-31.5895

>  <r_i_glide_einternal>  (389) 
3.52013

>  <r_i_glide_intrahb_reward>  (389) 
-0

>  <i_i_glide_confnum>  (389) 
1

>  <i_i_glide_posenum>  (389) 
13

>  <r_i_glide_eff_state_penalty>  (389) 
0

>  <ligand_id>  (389) 
107

>  <original_smiles>  (389) 
O=C1c2ccccc2C(=O)N1CCN1CCN(CC23CC4CC(CC(C4)C2)C3)C1

>  <smiles>  (389) 
[H]c1c([H])c([H])c2c(c1[H])C(=O)N(C([H])([H])C([H])([H])[N+]1([H])C([H])([H])C([H])([H])[N+]([H])(C([H])([H])C34C([H])([H])C5([H])C([H])([H])C([H])(C([H])([H])C([H])(C5([H])[H])C3([H])[H])C4([H])[H])C1([H])[H])C2=O

$$$$
107:0:1
     RDKit          3D

 62 67  0  0  1  0  0  0  0  0999 V2000
   -1.7663    2.3323    2.9283 O   0  0  0  0  0  0  0  0  0  0  0  0
   -1.3076    1.7619    3.9118 C   0  0  0  0  0  0  0  0  0  0  0  0
   -1.6451    2.0553    5.3222 C   0  0  0  0  0  0  0  0  0  0  0  0
   -2.5289    3.0145    5.8373 C   0  0  0  0  0  0  0  0  0  0  0  0
   -2.6456    3.0608    7.2525 C   0  0  0  0  0  0  0  0  0  0  0  0
   -1.9039    2.1908    8.0801 C   0  0  0  0  0  0  0  0  0  0  0  0
   -1.0087    1.2315    7.5262 C   0  0  0  0  0  0  0  0  0  0  0  0
   -0.9283    1.2078    6.1209 C   0  0  0  0  0  0  0  0  0  0  0  0
   -0.1184    0.3518    5.2286 C   0  0  0  0  0  0  0  0  0  0  0  0
    0.6523   -0.5413    5.5900 O   0  0  0  0  0  0  0  0  0  0  0  0
   -0.4069    0.7546    3.9634 N   0  0  0  0  0  0  0  0  0  0  0  0
    0.1910    0.1325    2.7938 C   0  0  0  0  0  0  0  0  0  0  0  0
    1.6254    0.6609    2.5477 C   0  0  0  0  0  0  0  0  0  0  0  0
    2.4351   -0.3008    1.7846 N   0  0  1  0  0  0  0  0  0  0  0  0
    3.7559    0.1554    1.3247 C   0  0  0  0  0  0  0  0  0  0  0  0
    4.5233   -1.1433    1.0314 C   0  0  0  0  0  0  0  0  0  0  0  0
    3.7926   -2.2166    1.7654 N   0  0  2  0  0  0  0  0  0  0  0  0
    3.2429   -3.2857    0.8881 C   0  0  0  0  0  0  0  0  0  0  0  0
    2.9488   -4.6275    1.6085 C   0  0  2  0  0  0  0  0  0  0  0  0
    4.2524   -5.2976    2.0973 C   0  0  0  0  0  0  0  0  0  0  0  0
    3.9312   -6.6722    2.7239 C   0  0  1  0  0  0  0  0  0  0  0  0
    2.9970   -6.4842    3.9326 C   0  0  0  0  0  0  0  0  0  0  0  0
    1.6706   -5.8615    3.4640 C   0  0  2  0  0  0  0  0  0  0  0  0
    0.9754   -6.7252    2.4134 C   0  0  0  0  0  0  0  0  0  0  0  0
    1.9221   -6.9198    1.2207 C   0  0  2  0  0  0  0  0  0  0  0  0
    3.2273   -7.5835    1.6938 C   0  0  0  0  0  0  0  0  0  0  0  0
    2.2825   -5.5574    0.5683 C   0  0  0  0  0  0  0  0  0  0  0  0
    1.9854   -4.4822    2.8239 C   0  0  0  0  0  0  0  0  0  0  0  0
    2.7429   -1.5230    2.5481 C   0  0  0  0  0  0  0  0  0  0  0  0
   -3.0698    3.6623    5.1809 H   0  0  0  0  0  0  0  0  0  0  0  0
   -3.3119    3.7795    7.6958 H   0  0  0  0  0  0  0  0  0  0  0  0
   -2.0102    2.2586    9.1500 H   0  0  0  0  0  0  0  0  0  0  0  0
   -0.4278    0.5724    8.1403 H   0  0  0  0  0  0  0  0  0  0  0  0
    0.1177   -0.9338    2.9732 H   0  0  0  0  0  0  0  0  0  0  0  0
   -0.3977    0.2860    1.8885 H   0  0  0  0  0  0  0  0  0  0  0  0
    1.5603    1.6030    1.9994 H   0  0  0  0  0  0  0  0  0  0  0  0
    2.1303    0.9022    3.4854 H   0  0  0  0  0  0  0  0  0  0  0  0
    3.6919    0.8502    0.5018 H   0  0  0  0  0  0  0  0  0  0  0  0
    4.2375    0.6752    2.1633 H   0  0  0  0  0  0  0  0  0  0  0  0
    4.5190   -1.3150   -0.0466 H   0  0  0  0  0  0  0  0  0  0  0  0
    5.5599   -1.0740    1.3501 H   0  0  0  0  0  0  0  0  0  0  0  0
    2.3327   -2.9147    0.4128 H   0  0  0  0  0  0  0  0  0  0  0  0
    3.9181   -3.5056    0.0660 H   0  0  0  0  0  0  0  0  0  0  0  0
    4.9532   -5.4134    1.2712 H   0  0  0  0  0  0  0  0  0  0  0  0
    4.7505   -4.6664    2.8338 H   0  0  0  0  0  0  0  0  0  0  0  0
    4.8632   -7.1357    3.0491 H   0  0  0  0  0  0  0  0  0  0  0  0
    2.8069   -7.4404    4.4204 H   0  0  0  0  0  0  0  0  0  0  0  0
    3.4732   -5.8485    4.6794 H   0  0  0  0  0  0  0  0  0  0  0  0
    1.0111   -5.7037    4.3171 H   0  0  0  0  0  0  0  0  0  0  0  0
    0.6925   -7.6880    2.8442 H   0  0  0  0  0  0  0  0  0  0  0  0
    0.0508   -6.2583    2.0838 H   0  0  0  0  0  0  0  0  0  0  0  0
    1.4105   -7.5527    0.5009 H   0  0  0  0  0  0  0  0  0  0  0  0
    3.8890   -7.7775    0.8460 H   0  0  0  0  0  0  0  0  0  0  0  0
    3.0035   -8.5502    2.1437 H   0  0  0  0  0  0  0  0  0  0  0  0
    1.4125   -5.0934    0.1207 H   0  0  0  0  0  0  0  0  0  0  0  0
    2.9648   -5.7085   -0.2710 H   0  0  0  0  0  0  0  0  0  0  0  0
    2.4234   -3.9015    3.6307 H   0  0  0  0  0  0  0  0  0  0  0  0
    1.0490   -4.0157    2.5180 H   0  0  0  0  0  0  0  0  0  0  0  0
    3.1343   -1.2722    3.5446 H   0  0  0  0  0  0  0  0  0  0  0  0
    1.8166   -2.0401    2.6774 H   0  0  0  0  0  0  0  0  0  0  0  0
    4.4346   -2.6459    2.4169 H   0  0  0  0  0  0  0  0  0  0  0  0
    1.9165   -0.6065    0.9587 H   0  0  0  0  0  0  0  0  0  0  0  0
  1  2  2  0
  2 11  1  0
  2  3  1  0
  3  8  2  0
  3  4  1  0
  4  5  2  0
  4 30  1  0
  5  6  1  0
  5 31  1  0
  6  7  2  0
  6 32  1  0
  7  8  1  0
  7 33  1  0
  8  9  1  0
  9 10  2  0
  9 11  1  0
 11 12  1  0
 12 13  1  0
 12 34  1  0
 12 35  1  0
 13 14  1  0
 13 36  1  0
 13 37  1  0
 14 29  1  0
 14 15  1  0
 14 62  1  6
 15 16  1  0
 15 38  1  0
 15 39  1  0
 16 17  1  0
 16 40  1  0
 16 41  1  0
 17 18  1  0
 17 29  1  0
 17 61  1  1
 19 18  1  6
 18 42  1  0
 18 43  1  0
 19 27  1  0
 19 28  1  0
 19 20  1  0
 20 21  1  0
 20 44  1  0
 20 45  1  0
 21 26  1  0
 21 22  1  0
 21 46  1  1
 22 23  1  0
 22 47  1  0
 22 48  1  0
 23 24  1  0
 23 28  1  0
 23 49  1  1
 24 25  1  0
 24 50  1  0
 24 51  1  0
 25 26  1  0
 25 27  1  0
 25 52  1  6
 26 53  1  0
 26 54  1  0
 27 55  1  0
 27 56  1  0
 28 57  1  0
 28 58  1  0
 29 59  1  0
 29 60  1  0
M  CHG  2  14   1  17   1
M  END
>  <i_m_ct_stereo_status>  (390) 
1

>  <s_m_source_file>  (390) 
/var/tmp/pbs.5076255.sched01/tmpnhftudgm/135squ2m_dv.sdf

>  <i_m_source_file_index>  (390) 
26

>  <i_lp_mmshare_version>  (390) 
48012

>  <i_f3d_flags>  (390) 
0

>  <s_epik_input>  (390) 
W2NIXTFbY0hdW2NIXVtjSF1jKGMxMilDKD1PKU4oQzI9TylbQ0gyXVtDSDJdTjNbQ0gyXVtDSDJdTihbQ0gyXTMpW0NIMl1DNDVbQ0gyXVtDQEhdNltDSDJdW0NAQEhdKFtDSDJdNSlbQ0gyXVtDQEhdKFtDSDJdNilbQ0gyXTQ=

>  <s_epik_cmdline>  (390) 
J2VwaWtfcHl0aG9uJywgJy1waHQnLCAnMi4wJywgJy1waCcsICc3LjAnLCAnLXRuJywgJzgnLCAnLW1hJywgJzIwMCcsICctaW1hZScsICc8aW5maWxlLm1hZT4nLCAnLW9tYWUnLCAnPG91dGZpbGUubWFlPic=

>  <r_epik_Ionization_Penalty>  (390) 
0.246233

>  <r_epik_Ionization_Penalty_Charging>  (390) 
0.246233

>  <r_epik_Ionization_Penalty_Neutral>  (390) 
2.63117e-15

>  <r_epik_State_Penalty>  (390) 
0.228974

>  <r_epik_Charging_Adjusted_Penalty>  (390) 
0.475208

>  <i_epik_Tot_Q>  (390) 
2

>  <i_epik_Tot_abs_Q>  (390) 
2

>  <s_epik_Chemistry_Notes>  (390) 
This compound contains an acetal/aminal-like group ( X-CH(R)-Y where X, Y are N, S, or O) that may be acid/base labile, releasing an aldehyde.

>  <s_lp_Force_Field>  (390) 
OPLS3e

>  <r_lp_Energy>  (390) 
19.2932

>  <b_lp_Chiralities_Consistent>  (390) 
1

>  <s_lp_Variant>  (390) 
107:0-1

>  <s_i_glide_gridfile>  (390) 
pfpi4k_grid

>  <i_i_glide_lignum>  (390) 
26

>  <i_i_glide_rotatable_bonds>  (390) 
5

>  <r_i_docking_score>  (390) 
-2.87549

>  <r_i_glide_ligand_efficiency>  (390) 
-0.0991547

>  <r_i_glide_ligand_efficiency_sa>  (390) 
-0.304635

>  <r_i_glide_ligand_efficiency_ln>  (390) 
-0.658413

>  <r_i_glide_gscore>  (390) 
-2.87549

>  <r_i_glide_lipo>  (390) 
-0.304516

>  <r_i_glide_hbond>  (390) 
-0.144107

>  <r_i_glide_metal>  (390) 
-0

>  <r_i_glide_rewards>  (390) 
-0.712243

>  <r_i_glide_evdw>  (390) 
-24.42

>  <r_i_glide_ecoul>  (390) 
-6.61954

>  <r_i_glide_erotb>  (390) 
0.624988

>  <r_i_glide_esite>  (390) 
-0.125678

>  <r_i_glide_emodel>  (390) 
-38.3372

>  <r_i_glide_energy>  (390) 
-31.0395

>  <r_i_glide_einternal>  (390) 
3.00259

>  <r_i_glide_intrahb_reward>  (390) 
-0

>  <i_i_glide_confnum>  (390) 
5

>  <i_i_glide_posenum>  (390) 
3

>  <r_i_glide_eff_state_penalty>  (390) 
0

>  <ligand_id>  (390) 
107

>  <original_smiles>  (390) 
O=C1c2ccccc2C(=O)N1CCN1CCN(CC23CC4CC(CC(C4)C2)C3)C1

>  <smiles>  (390) 
[H]c1c([H])c([H])c2c(c1[H])C(=O)N(C([H])([H])C([H])([H])[N+]1([H])C([H])([H])C([H])([H])[N+]([H])(C([H])([H])C34C([H])([H])C5([H])C([H])([H])C([H])(C([H])([H])C([H])(C5([H])[H])C3([H])[H])C4([H])[H])C1([H])[H])C2=O

$$$$
107:0:2
     RDKit          3D

 62 67  0  0  1  0  0  0  0  0999 V2000
    1.3258   -5.2575    4.1568 O   0  0  0  0  0  0  0  0  0  0  0  0
    2.0898   -5.8880    3.4232 C   0  0  0  0  0  0  0  0  0  0  0  0
    2.0487   -7.3464    3.1828 C   0  0  0  0  0  0  0  0  0  0  0  0
    1.1965   -8.3156    3.7026 C   0  0  0  0  0  0  0  0  0  0  0  0
    1.4156   -9.6494    3.2880 C   0  0  0  0  0  0  0  0  0  0  0  0
    2.4683   -9.9601    2.3903 C   0  0  0  0  0  0  0  0  0  0  0  0
    3.3089   -8.9484    1.8771 C   0  0  0  0  0  0  0  0  0  0  0  0
    3.0625   -7.6462    2.3000 C   0  0  0  0  0  0  0  0  0  0  0  0
    3.7566   -6.3802    1.9611 C   0  0  0  0  0  0  0  0  0  0  0  0
    4.7137   -6.2577    1.1961 O   0  0  0  0  0  0  0  0  0  0  0  0
    3.1128   -5.4222    2.6650 N   0  0  0  0  0  0  0  0  0  0  0  0
    3.4910   -3.9996    2.6308 C   0  0  0  0  0  0  0  0  0  0  0  0
    2.3722   -3.1199    2.0464 C   0  0  0  0  0  0  0  0  0  0  0  0
    2.6485   -1.7083    2.2947 N   0  0  1  0  0  0  0  0  0  0  0  0
    3.6304   -1.0735    1.4234 C   0  0  0  0  0  0  0  0  0  0  0  0
    3.3583    0.4208    1.6238 C   0  0  0  0  0  0  0  0  0  0  0  0
    1.9977    0.5214    2.2093 N   0  0  2  0  0  0  0  0  0  0  0  0
    2.0016    1.1564    3.5481 C   0  0  0  0  0  0  0  0  0  0  0  0
    0.6343    1.7641    3.9864 C   0  0  2  0  0  0  0  0  0  0  0  0
    0.2104    2.9114    3.0395 C   0  0  0  0  0  0  0  0  0  0  0  0
   -1.1034    3.5497    3.5380 C   0  0  1  0  0  0  0  0  0  0  0  0
   -2.2063    2.4767    3.5518 C   0  0  0  0  0  0  0  0  0  0  0  0
   -1.8092    1.3372    4.5117 C   0  0  2  0  0  0  0  0  0  0  0  0
   -1.5991    1.8755    5.9372 C   0  0  0  0  0  0  0  0  0  0  0  0
   -0.4972    2.9556    5.9176 C   0  0  2  0  0  0  0  0  0  0  0  0
   -0.9190    4.0959    4.9683 C   0  0  0  0  0  0  0  0  0  0  0  0
    0.8220    2.3494    5.4112 C   0  0  0  0  0  0  0  0  0  0  0  0
   -0.5117    0.7108    4.0350 C   0  0  0  0  0  0  0  0  0  0  0  0
    1.4567   -0.8583    2.2262 C   0  0  0  0  0  0  0  0  0  0  0  0
    0.4029   -8.0604    4.3926 H   0  0  0  0  0  0  0  0  0  0  0  0
    0.7830  -10.4296    3.6576 H   0  0  0  0  0  0  0  0  0  0  0  0
    2.6304  -10.9744    2.0849 H   0  0  0  0  0  0  0  0  0  0  0  0
    4.1100   -9.1737    1.1868 H   0  0  0  0  0  0  0  0  0  0  0  0
    3.7416   -3.6781    3.6427 H   0  0  0  0  0  0  0  0  0  0  0  0
    4.3920   -3.8366    2.0376 H   0  0  0  0  0  0  0  0  0  0  0  0
    2.2271   -3.3137    0.9744 H   0  0  0  0  0  0  0  0  0  0  0  0
    1.4191   -3.3643    2.5238 H   0  0  0  0  0  0  0  0  0  0  0  0
    4.6542   -1.3565    1.6753 H   0  0  0  0  0  0  0  0  0  0  0  0
    3.4327   -1.3526    0.3816 H   0  0  0  0  0  0  0  0  0  0  0  0
    4.1179    0.8369    2.2936 H   0  0  0  0  0  0  0  0  0  0  0  0
    3.4517    0.9438    0.6722 H   0  0  0  0  0  0  0  0  0  0  0  0
    2.3322    0.4354    4.2869 H   0  0  0  0  0  0  0  0  0  0  0  0
    2.7388    1.9628    3.5743 H   0  0  0  0  0  0  0  0  0  0  0  0
    0.9947    3.6617    2.9598 H   0  0  0  0  0  0  0  0  0  0  0  0
    0.0627    2.5205    2.0366 H   0  0  0  0  0  0  0  0  0  0  0  0
   -1.3764    4.3522    2.8585 H   0  0  0  0  0  0  0  0  0  0  0  0
   -3.1660    2.9196    3.8490 H   0  0  0  0  0  0  0  0  0  0  0  0
   -2.3601    2.0945    2.5431 H   0  0  0  0  0  0  0  0  0  0  0  0
   -2.5899    0.5846    4.5123 H   0  0  0  0  0  0  0  0  0  0  0  0
   -2.5414    2.2854    6.3387 H   0  0  0  0  0  0  0  0  0  0  0  0
   -1.3169    1.0651    6.6043 H   0  0  0  0  0  0  0  0  0  0  0  0
   -0.3494    3.3506    6.9173 H   0  0  0  0  0  0  0  0  0  0  0  0
   -0.1761    4.8958    4.9744 H   0  0  0  0  0  0  0  0  0  0  0  0
   -1.8567    4.5330    5.3102 H   0  0  0  0  0  0  0  0  0  0  0  0
    1.1776    1.5820    6.0978 H   0  0  0  0  0  0  0  0  0  0  0  0
    1.5999    3.1094    5.3894 H   0  0  0  0  0  0  0  0  0  0  0  0
   -0.6962    0.2866    3.0567 H   0  0  0  0  0  0  0  0  0  0  0  0
   -0.2298   -0.1083    4.6924 H   0  0  0  0  0  0  0  0  0  0  0  0
    0.8955   -1.0617    1.3072 H   0  0  0  0  0  0  0  0  0  0  0  0
    0.8228   -1.1360    3.0714 H   0  0  0  0  0  0  0  0  0  0  0  0
    1.4236    1.0756    1.5917 H   0  0  0  0  0  0  0  0  0  0  0  0
    2.9730   -1.6120    3.2492 H   0  0  0  0  0  0  0  0  0  0  0  0
  1  2  2  0
  2 11  1  0
  2  3  1  0
  3  8  2  0
  3  4  1  0
  4  5  2  0
  4 30  1  0
  5  6  1  0
  5 31  1  0
  6  7  2  0
  6 32  1  0
  7  8  1  0
  7 33  1  0
  8  9  1  0
  9 10  2  0
  9 11  1  0
 11 12  1  0
 12 13  1  0
 12 34  1  0
 12 35  1  0
 13 14  1  0
 13 36  1  0
 13 37  1  0
 14 29  1  0
 14 15  1  0
 14 62  1  1
 15 16  1  0
 15 38  1  0
 15 39  1  0
 16 17  1  0
 16 40  1  0
 16 41  1  0
 17 18  1  0
 17 29  1  0
 17 61  1  6
 19 18  1  6
 18 42  1  0
 18 43  1  0
 19 27  1  0
 19 28  1  0
 19 20  1  0
 20 21  1  0
 20 44  1  0
 20 45  1  0
 21 26  1  0
 21 22  1  0
 21 46  1  6
 22 23  1  0
 22 47  1  0
 22 48  1  0
 23 24  1  0
 23 28  1  0
 23 49  1  1
 24 25  1  0
 24 50  1  0
 24 51  1  0
 25 26  1  0
 25 27  1  0
 25 52  1  1
 26 53  1  0
 26 54  1  0
 27 55  1  0
 27 56  1  0
 28 57  1  0
 28 58  1  0
 29 59  1  0
 29 60  1  0
M  CHG  2  14   1  17   1
M  END
>  <i_m_ct_stereo_status>  (391) 
1

>  <s_m_source_file>  (391) 
/var/tmp/pbs.5076255.sched01/tmpnhftudgm/135squ2m_dv.sdf

>  <i_m_source_file_index>  (391) 
26

>  <i_lp_mmshare_version>  (391) 
48012

>  <i_f3d_flags>  (391) 
0

>  <s_epik_input>  (391) 
W2NIXTFbY0hdW2NIXVtjSF1jKGMxMilDKD1PKU4oQzI9TylbQ0gyXVtDSDJdTjNbQ0gyXVtDSDJdTihbQ0gyXTMpW0NIMl1DNDVbQ0gyXVtDQEhdNltDSDJdW0NAQEhdKFtDSDJdNSlbQ0gyXVtDQEhdKFtDSDJdNilbQ0gyXTQ=

>  <s_epik_cmdline>  (391) 
J2VwaWtfcHl0aG9uJywgJy1waHQnLCAnMi4wJywgJy1waCcsICc3LjAnLCAnLXRuJywgJzgnLCAnLW1hJywgJzIwMCcsICctaW1hZScsICc8aW5maWxlLm1hZT4nLCAnLW9tYWUnLCAnPG91dGZpbGUubWFlPic=

>  <r_epik_Ionization_Penalty>  (391) 
0.246233

>  <r_epik_Ionization_Penalty_Charging>  (391) 
0.246233

>  <r_epik_Ionization_Penalty_Neutral>  (391) 
2.63117e-15

>  <r_epik_State_Penalty>  (391) 
0.228974

>  <r_epik_Charging_Adjusted_Penalty>  (391) 
0.475208

>  <i_epik_Tot_Q>  (391) 
2

>  <i_epik_Tot_abs_Q>  (391) 
2

>  <s_epik_Chemistry_Notes>  (391) 
This compound contains an acetal/aminal-like group ( X-CH(R)-Y where X, Y are N, S, or O) that may be acid/base labile, releasing an aldehyde.

>  <s_lp_Force_Field>  (391) 
OPLS3e

>  <r_lp_Energy>  (391) 
19.2932

>  <b_lp_Chiralities_Consistent>  (391) 
1

>  <s_lp_Variant>  (391) 
107:0-1

>  <s_i_glide_gridfile>  (391) 
pfpi4k_grid

>  <i_i_glide_lignum>  (391) 
26

>  <i_i_glide_rotatable_bonds>  (391) 
5

>  <r_i_docking_score>  (391) 
-2.48522

>  <r_i_glide_ligand_efficiency>  (391) 
-0.0856972

>  <r_i_glide_ligand_efficiency_sa>  (391) 
-0.263289

>  <r_i_glide_ligand_efficiency_ln>  (391) 
-0.569052

>  <r_i_glide_gscore>  (391) 
-2.48522

>  <r_i_glide_lipo>  (391) 
-0.101108

>  <r_i_glide_hbond>  (391) 
0

>  <r_i_glide_metal>  (391) 
-0

>  <r_i_glide_rewards>  (391) 
-0.747749

>  <r_i_glide_evdw>  (391) 
-22.6297

>  <r_i_glide_ecoul>  (391) 
-6.88986

>  <r_i_glide_erotb>  (391) 
0.624988

>  <r_i_glide_esite>  (391) 
-0.0963823

>  <r_i_glide_emodel>  (391) 
-35.958

>  <r_i_glide_energy>  (391) 
-29.5196

>  <r_i_glide_einternal>  (391) 
2.36109

>  <r_i_glide_intrahb_reward>  (391) 
-0

>  <i_i_glide_confnum>  (391) 
2

>  <i_i_glide_posenum>  (391) 
12

>  <r_i_glide_eff_state_penalty>  (391) 
0

>  <ligand_id>  (391) 
107

>  <original_smiles>  (391) 
O=C1c2ccccc2C(=O)N1CCN1CCN(CC23CC4CC(CC(C4)C2)C3)C1

>  <smiles>  (391) 
[H]c1c([H])c([H])c2c(c1[H])C(=O)N(C([H])([H])C([H])([H])[N+]1([H])C([H])([H])C([H])([H])[N+]([H])(C([H])([H])C34C([H])([H])C5([H])C([H])([H])C([H])(C([H])([H])C([H])(C5([H])[H])C3([H])[H])C4([H])[H])C1([H])[H])C2=O

$$$$
107:1:0
     RDKit          3D

 61 66  0  0  1  0  0  0  0  0999 V2000
   -0.0048   -6.6624    1.7128 O   0  0  0  0  0  0  0  0  0  0  0  0
    1.0320   -7.3390    1.8247 C   0  0  0  0  0  0  0  0  0  0  0  0
    1.1504   -8.6598    2.4814 C   0  0  0  0  0  0  0  0  0  0  0  0
    0.1708   -9.4557    3.1056 C   0  0  0  0  0  0  0  0  0  0  0  0
    0.6167  -10.6900    3.6512 C   0  0  0  0  0  0  0  0  0  0  0  0
    1.9664  -11.0891    3.5614 C   0  0  0  0  0  0  0  0  0  0  0  0
    2.9319  -10.2669    2.9206 C   0  0  0  0  0  0  0  0  0  0  0  0
    2.4619   -9.0464    2.3970 C   0  0  0  0  0  0  0  0  0  0  0  0
    3.1957   -7.9802    1.6876 C   0  0  0  0  0  0  0  0  0  0  0  0
    4.4035   -7.9806    1.4244 O   0  0  0  0  0  0  0  0  0  0  0  0
    2.2778   -7.0247    1.3895 N   0  0  0  0  0  0  0  0  0  0  0  0
    2.5907   -5.7838    0.6748 C   0  0  0  0  0  0  0  0  0  0  0  0
    2.9569   -4.6572    1.6481 C   0  0  0  0  0  0  0  0  0  0  0  0
    2.6625   -3.3708    1.0394 N   0  0  0  0  0  0  0  0  0  0  0  0
    3.5980   -2.9424    0.0055 C   0  0  0  0  0  0  0  0  0  0  0  0
    3.5750   -1.4078    0.0950 C   0  0  0  0  0  0  0  0  0  0  0  0
    2.6750   -1.0879    1.2189 N   0  0  2  0  0  0  0  0  0  0  0  0
    3.0335    0.1397    1.9592 C   0  0  0  0  0  0  0  0  0  0  0  0
    1.8797    0.7478    2.8014 C   0  0  1  0  0  0  0  0  0  0  0  0
    1.1807   -0.2821    3.7316 C   0  0  0  0  0  0  0  0  0  0  0  0
    0.0958    0.3828    4.5938 C   0  0  2  0  0  0  0  0  0  0  0  0
   -0.9706    0.9615    3.6482 C   0  0  0  0  0  0  0  0  0  0  0  0
   -0.3148    2.0236    2.7454 C   0  0  1  0  0  0  0  0  0  0  0  0
    0.3091    3.1405    3.6058 C   0  0  0  0  0  0  0  0  0  0  0  0
    1.3824    2.5384    4.5333 C   0  0  1  0  0  0  0  0  0  0  0  0
    0.7335    1.4850    5.4570 C   0  0  0  0  0  0  0  0  0  0  0  0
    2.4830    1.8716    3.6797 C   0  0  0  0  0  0  0  0  0  0  0  0
    0.7896    1.3697    1.8966 C   0  0  0  0  0  0  0  0  0  0  0  0
    2.6918   -2.3224    2.0305 C   0  0  0  0  0  0  0  0  0  0  0  0
   -0.8602   -9.1527    3.1680 H   0  0  0  0  0  0  0  0  0  0  0  0
   -0.0981  -11.3330    4.1406 H   0  0  0  0  0  0  0  0  0  0  0  0
    2.2727  -12.0376    3.9798 H   0  0  0  0  0  0  0  0  0  0  0  0
    3.9633  -10.5630    2.8348 H   0  0  0  0  0  0  0  0  0  0  0  0
    3.4130   -5.9324   -0.0259 H   0  0  0  0  0  0  0  0  0  0  0  0
    1.7346   -5.5013    0.0579 H   0  0  0  0  0  0  0  0  0  0  0  0
    2.3634   -4.7443    2.5596 H   0  0  0  0  0  0  0  0  0  0  0  0
    4.0011   -4.7087    1.9572 H   0  0  0  0  0  0  0  0  0  0  0  0
    4.6002   -3.3140    0.2214 H   0  0  0  0  0  0  0  0  0  0  0  0
    3.2791   -3.3109   -0.9715 H   0  0  0  0  0  0  0  0  0  0  0  0
    4.5817   -1.0563    0.3262 H   0  0  0  0  0  0  0  0  0  0  0  0
    3.2607   -0.9273   -0.8357 H   0  0  0  0  0  0  0  0  0  0  0  0
    3.9053   -0.0584    2.5880 H   0  0  0  0  0  0  0  0  0  0  0  0
    3.3692    0.9020    1.2579 H   0  0  0  0  0  0  0  0  0  0  0  0
    0.6557   -1.0256    3.1510 H   0  0  0  0  0  0  0  0  0  0  0  0
    1.9104   -0.7833    4.3662 H   0  0  0  0  0  0  0  0  0  0  0  0
   -0.3527   -0.3765    5.2283 H   0  0  0  0  0  0  0  0  0  0  0  0
   -1.3893    0.1728    3.0221 H   0  0  0  0  0  0  0  0  0  0  0  0
   -1.8069    1.3839    4.2057 H   0  0  0  0  0  0  0  0  0  0  0  0
   -1.0700    2.4565    2.0872 H   0  0  0  0  0  0  0  0  0  0  0  0
    0.7531    3.8956    2.9584 H   0  0  0  0  0  0  0  0  0  0  0  0
   -0.4651    3.6469    4.1875 H   0  0  0  0  0  0  0  0  0  0  0  0
    1.8263    3.3282    5.1399 H   0  0  0  0  0  0  0  0  0  0  0  0
   -0.0174    1.9407    6.1007 H   0  0  0  0  0  0  0  0  0  0  0  0
    1.4909    1.0448    6.1080 H   0  0  0  0  0  0  0  0  0  0  0  0
    3.2459    1.4516    4.3329 H   0  0  0  0  0  0  0  0  0  0  0  0
    2.9949    2.6178    3.0649 H   0  0  0  0  0  0  0  0  0  0  0  0
    1.2454    2.1437    1.2771 H   0  0  0  0  0  0  0  0  0  0  0  0
    0.3605    0.6256    1.2212 H   0  0  0  0  0  0  0  0  0  0  0  0
    1.8785   -2.4806    2.7246 H   0  0  0  0  0  0  0  0  0  0  0  0
    3.6459   -2.3579    2.5788 H   0  0  0  0  0  0  0  0  0  0  0  0
    1.7648   -0.9956    0.7667 H   0  0  0  0  0  0  0  0  0  0  0  0
  1  2  2  0
  2 11  1  0
  2  3  1  0
  3  8  2  0
  3  4  1  0
  4  5  2  0
  4 30  1  0
  5  6  1  0
  5 31  1  0
  6  7  2  0
  6 32  1  0
  7  8  1  0
  7 33  1  0
  8  9  1  0
  9 10  2  0
  9 11  1  0
 11 12  1  0
 12 13  1  0
 12 34  1  0
 12 35  1  0
 13 14  1  0
 13 36  1  0
 13 37  1  0
 14 29  1  0
 14 15  1  0
 15 16  1  0
 15 38  1  0
 15 39  1  0
 16 17  1  0
 16 40  1  0
 16 41  1  0
 17 18  1  0
 17 29  1  0
 17 61  1  6
 19 18  1  6
 18 42  1  0
 18 43  1  0
 19 27  1  0
 19 28  1  0
 19 20  1  0
 20 21  1  0
 20 44  1  0
 20 45  1  0
 21 26  1  0
 21 22  1  0
 21 46  1  1
 22 23  1  0
 22 47  1  0
 22 48  1  0
 23 24  1  0
 23 28  1  0
 23 49  1  6
 24 25  1  0
 24 50  1  0
 24 51  1  0
 25 26  1  0
 25 27  1  0
 25 52  1  1
 26 53  1  0
 26 54  1  0
 27 55  1  0
 27 56  1  0
 28 57  1  0
 28 58  1  0
 29 59  1  0
 29 60  1  0
M  CHG  1  17   1
M  END
>  <i_m_ct_stereo_status>  (392) 
1

>  <s_m_source_file>  (392) 
/var/tmp/pbs.5076255.sched01/tmpnhftudgm/135squ2m_dv.sdf

>  <i_m_source_file_index>  (392) 
27

>  <i_lp_mmshare_version>  (392) 
48012

>  <i_f3d_flags>  (392) 
0

>  <s_epik_input>  (392) 
W2NIXTFbY0hdW2NIXVtjSF1jKGMxMilDKD1PKU4oQzI9TylbQ0gyXVtDSDJdTjNbQ0gyXVtDSDJdTihbQ0gyXTMpW0NIMl1DNDVbQ0gyXVtDQEhdNltDSDJdW0NAQEhdKFtDSDJdNSlbQ0gyXVtDQEhdKFtDSDJdNilbQ0gyXTQ=

>  <s_epik_cmdline>  (392) 
J2VwaWtfcHl0aG9uJywgJy1waHQnLCAnMi4wJywgJy1waCcsICc3LjAnLCAnLXRuJywgJzgnLCAnLW1hJywgJzIwMCcsICctaW1hZScsICc8aW5maWxlLm1hZT4nLCAnLW9tYWUnLCAnPG91dGZpbGUubWFlPic=

>  <r_epik_Ionization_Penalty>  (392) 
0.674624

>  <r_epik_Ionization_Penalty_Charging>  (392) 
0.000223435

>  <r_epik_Ionization_Penalty_Neutral>  (392) 
0.6744

>  <r_epik_State_Penalty>  (392) 
0.704435

>  <r_epik_Charging_Adjusted_Penalty>  (392) 
0.704658

>  <i_epik_Tot_Q>  (392) 
1

>  <i_epik_Tot_abs_Q>  (392) 
1

>  <s_epik_Chemistry_Notes>  (392) 
This compound contains an acetal/aminal-like group ( X-CH(R)-Y where X, Y are N, S, or O) that may be acid/base labile, releasing an aldehyde.

>  <s_lp_Force_Field>  (392) 
OPLS3e

>  <r_lp_Energy>  (392) 
9.03005

>  <b_lp_Chiralities_Consistent>  (392) 
1

>  <s_lp_Variant>  (392) 
107:0-2

>  <s_i_glide_gridfile>  (392) 
pfpi4k_grid

>  <i_i_glide_lignum>  (392) 
27

>  <i_i_glide_rotatable_bonds>  (392) 
5

>  <r_i_docking_score>  (392) 
-3.37026

>  <r_i_glide_ligand_efficiency>  (392) 
-0.116216

>  <r_i_glide_ligand_efficiency_sa>  (392) 
-0.357052

>  <r_i_glide_ligand_efficiency_ln>  (392) 
-0.771703

>  <r_i_glide_gscore>  (392) 
-3.37026

>  <r_i_glide_lipo>  (392) 
-0.112098

>  <r_i_glide_hbond>  (392) 
-0.377352

>  <r_i_glide_metal>  (392) 
-0

>  <r_i_glide_rewards>  (392) 
-0.719115

>  <r_i_glide_evdw>  (392) 
-30.3438

>  <r_i_glide_ecoul>  (392) 
-7.53334

>  <r_i_glide_erotb>  (392) 
0.627861

>  <r_i_glide_esite>  (392) 
-0.142361

>  <r_i_glide_emodel>  (392) 
-44.3795

>  <r_i_glide_energy>  (392) 
-37.8771

>  <r_i_glide_einternal>  (392) 
4.88684

>  <r_i_glide_intrahb_reward>  (392) 
-0

>  <i_i_glide_confnum>  (392) 
3

>  <i_i_glide_posenum>  (392) 
22

>  <r_i_glide_eff_state_penalty>  (392) 
0

>  <ligand_id>  (392) 
107

>  <original_smiles>  (392) 
O=C1c2ccccc2C(=O)N1CCN1CCN(CC23CC4CC(CC(C4)C2)C3)C1

>  <smiles>  (392) 
[H]c1c([H])c([H])c2c(c1[H])C(=O)N(C([H])([H])C([H])([H])N1C([H])([H])C([H])([H])[N+]([H])(C([H])([H])C34C([H])([H])C5([H])C([H])([H])C([H])(C([H])([H])C([H])(C5([H])[H])C3([H])[H])C4([H])[H])C1([H])[H])C2=O

$$$$
107:1:1
     RDKit          3D

 61 66  0  0  1  0  0  0  0  0999 V2000
    0.7010   -6.2880    1.5563 O   0  0  0  0  0  0  0  0  0  0  0  0
    1.6208   -7.1116    1.6787 C   0  0  0  0  0  0  0  0  0  0  0  0
    1.5082   -8.4477    2.3058 C   0  0  0  0  0  0  0  0  0  0  0  0
    0.3982   -9.0869    2.8808 C   0  0  0  0  0  0  0  0  0  0  0  0
    0.6181  -10.3914    3.4018 C   0  0  0  0  0  0  0  0  0  0  0  0
    1.8949  -11.0056    3.3286 C   0  0  0  0  0  0  0  0  0  0  0  0
    2.9951  -10.3320    2.7356 C   0  0  0  0  0  0  0  0  0  0  0  0
    2.7471   -9.0413    2.2355 C   0  0  0  0  0  0  0  0  0  0  0  0
    3.6601   -8.0919    1.5641 C   0  0  0  0  0  0  0  0  0  0  0  0
    4.8528   -8.2828    1.3253 O   0  0  0  0  0  0  0  0  0  0  0  0
    2.9129   -6.9916    1.2764 N   0  0  0  0  0  0  0  0  0  0  0  0
    3.4378   -5.8017    0.6081 C   0  0  0  0  0  0  0  0  0  0  0  0
    3.9776   -4.7752    1.6273 C   0  0  0  0  0  0  0  0  0  0  0  0
    3.1379   -3.5884    1.6438 N   0  0  0  0  0  0  0  0  0  0  0  0
    3.3195   -2.7252    0.4728 C   0  0  0  0  0  0  0  0  0  0  0  0
    3.0391   -1.3093    0.9837 C   0  0  0  0  0  0  0  0  0  0  0  0
    2.7823   -1.4573    2.4313 N   0  0  2  0  0  0  0  0  0  0  0  0
    3.1711   -0.3271    3.2917 C   0  0  0  0  0  0  0  0  0  0  0  0
    1.9828    0.5796    3.6940 C   0  0  1  0  0  0  0  0  0  0  0  0
    0.9340   -0.1763    4.5517 C   0  0  0  0  0  0  0  0  0  0  0  0
   -0.1900    0.7927    4.9868 C   0  0  2  0  0  0  0  0  0  0  0  0
   -0.8808    1.3607    3.7323 C   0  0  0  0  0  0  0  0  0  0  0  0
    0.1403    2.1486    2.9023 C   0  0  1  0  0  0  0  0  0  0  0  0
    0.7590    3.2880    3.7177 C   0  0  0  0  0  0  0  0  0  0  0  0
    1.4444    2.7097    4.9714 C   0  0  1  0  0  0  0  0  0  0  0  0
    0.4155    1.9425    5.8213 C   0  0  0  0  0  0  0  0  0  0  0  0
    2.5658    1.7332    4.5365 C   0  0  0  0  0  0  0  0  0  0  0  0
    1.2913    1.1736    2.4423 C   0  0  0  0  0  0  0  0  0  0  0  0
    3.4354   -2.7345    2.7775 C   0  0  0  0  0  0  0  0  0  0  0  0
   -0.5651   -8.6188    2.9292 H   0  0  0  0  0  0  0  0  0  0  0  0
   -0.1856  -10.9268    3.8661 H   0  0  0  0  0  0  0  0  0  0  0  0
    2.0278  -11.9968    3.7252 H   0  0  0  0  0  0  0  0  0  0  0  0
    3.9620  -10.7938    2.6613 H   0  0  0  0  0  0  0  0  0  0  0  0
    4.2422   -6.0825   -0.0741 H   0  0  0  0  0  0  0  0  0  0  0  0
    2.6724   -5.3719   -0.0382 H   0  0  0  0  0  0  0  0  0  0  0  0
    4.0189   -5.2122    2.6259 H   0  0  0  0  0  0  0  0  0  0  0  0
    5.0111   -4.5024    1.3890 H   0  0  0  0  0  0  0  0  0  0  0  0
    4.3440   -2.7797    0.1004 H   0  0  0  0  0  0  0  0  0  0  0  0
    2.6496   -3.0148   -0.3370 H   0  0  0  0  0  0  0  0  0  0  0  0
    3.9333   -0.7039    0.8061 H   0  0  0  0  0  0  0  0  0  0  0  0
    2.2155   -0.8139    0.4879 H   0  0  0  0  0  0  0  0  0  0  0  0
    3.6416   -0.6984    4.2021 H   0  0  0  0  0  0  0  0  0  0  0  0
    3.9404    0.2759    2.8078 H   0  0  0  0  0  0  0  0  0  0  0  0
    0.4966   -1.0087    3.9986 H   0  0  0  0  0  0  0  0  0  0  0  0
    1.4003   -0.6143    5.4345 H   0  0  0  0  0  0  0  0  0  0  0  0
   -0.9249    0.2583    5.5881 H   0  0  0  0  0  0  0  0  0  0  0  0
   -1.3082    0.5546    3.1346 H   0  0  0  0  0  0  0  0  0  0  0  0
   -1.7158    2.0077    4.0024 H   0  0  0  0  0  0  0  0  0  0  0  0
   -0.3437    2.5391    2.0134 H   0  0  0  0  0  0  0  0  0  0  0  0
    1.4759    3.8410    3.1103 H   0  0  0  0  0  0  0  0  0  0  0  0
   -0.0129    4.0054    3.9997 H   0  0  0  0  0  0  0  0  0  0  0  0
    1.8799    3.5179    5.5555 H   0  0  0  0  0  0  0  0  0  0  0  0
   -0.3608    2.6189    6.1737 H   0  0  0  0  0  0  0  0  0  0  0  0
    0.9003    1.5377    6.7147 H   0  0  0  0  0  0  0  0  0  0  0  0
    3.0591    1.3361    5.4264 H   0  0  0  0  0  0  0  0  0  0  0  0
    3.3349    2.2743    3.9875 H   0  0  0  0  0  0  0  0  0  0  0  0
    1.9930    1.7219    1.8236 H   0  0  0  0  0  0  0  0  0  0  0  0
    0.8450    0.4141    1.8150 H   0  0  0  0  0  0  0  0  0  0  0  0
    3.0846   -3.1410    3.7253 H   0  0  0  0  0  0  0  0  0  0  0  0
    4.5163   -2.5517    2.8449 H   0  0  0  0  0  0  0  0  0  0  0  0
    1.7887   -1.6353    2.5266 H   0  0  0  0  0  0  0  0  0  0  0  0
  1  2  2  0
  2 11  1  0
  2  3  1  0
  3  8  2  0
  3  4  1  0
  4  5  2  0
  4 30  1  0
  5  6  1  0
  5 31  1  0
  6  7  2  0
  6 32  1  0
  7  8  1  0
  7 33  1  0
  8  9  1  0
  9 10  2  0
  9 11  1  0
 11 12  1  0
 12 13  1  0
 12 34  1  0
 12 35  1  0
 13 14  1  0
 13 36  1  0
 13 37  1  0
 14 29  1  0
 14 15  1  0
 15 16  1  0
 15 38  1  0
 15 39  1  0
 16 17  1  0
 16 40  1  0
 16 41  1  0
 17 18  1  0
 17 29  1  0
 17 61  1  6
 19 18  1  6
 18 42  1  0
 18 43  1  0
 19 27  1  0
 19 28  1  0
 19 20  1  0
 20 21  1  0
 20 44  1  0
 20 45  1  0
 21 26  1  0
 21 22  1  0
 21 46  1  1
 22 23  1  0
 22 47  1  0
 22 48  1  0
 23 24  1  0
 23 28  1  0
 23 49  1  6
 24 25  1  0
 24 50  1  0
 24 51  1  0
 25 26  1  0
 25 27  1  0
 25 52  1  1
 26 53  1  0
 26 54  1  0
 27 55  1  0
 27 56  1  0
 28 57  1  0
 28 58  1  0
 29 59  1  0
 29 60  1  0
M  CHG  1  17   1
M  END
>  <i_m_ct_stereo_status>  (393) 
1

>  <s_m_source_file>  (393) 
/var/tmp/pbs.5076255.sched01/tmpnhftudgm/135squ2m_dv.sdf

>  <i_m_source_file_index>  (393) 
27

>  <i_lp_mmshare_version>  (393) 
48012

>  <i_f3d_flags>  (393) 
0

>  <s_epik_input>  (393) 
W2NIXTFbY0hdW2NIXVtjSF1jKGMxMilDKD1PKU4oQzI9TylbQ0gyXVtDSDJdTjNbQ0gyXVtDSDJdTihbQ0gyXTMpW0NIMl1DNDVbQ0gyXVtDQEhdNltDSDJdW0NAQEhdKFtDSDJdNSlbQ0gyXVtDQEhdKFtDSDJdNilbQ0gyXTQ=

>  <s_epik_cmdline>  (393) 
J2VwaWtfcHl0aG9uJywgJy1waHQnLCAnMi4wJywgJy1waCcsICc3LjAnLCAnLXRuJywgJzgnLCAnLW1hJywgJzIwMCcsICctaW1hZScsICc8aW5maWxlLm1hZT4nLCAnLW9tYWUnLCAnPG91dGZpbGUubWFlPic=

>  <r_epik_Ionization_Penalty>  (393) 
0.674624

>  <r_epik_Ionization_Penalty_Charging>  (393) 
0.000223435

>  <r_epik_Ionization_Penalty_Neutral>  (393) 
0.6744

>  <r_epik_State_Penalty>  (393) 
0.704435

>  <r_epik_Charging_Adjusted_Penalty>  (393) 
0.704658

>  <i_epik_Tot_Q>  (393) 
1

>  <i_epik_Tot_abs_Q>  (393) 
1

>  <s_epik_Chemistry_Notes>  (393) 
This compound contains an acetal/aminal-like group ( X-CH(R)-Y where X, Y are N, S, or O) that may be acid/base labile, releasing an aldehyde.

>  <s_lp_Force_Field>  (393) 
OPLS3e

>  <r_lp_Energy>  (393) 
9.03005

>  <b_lp_Chiralities_Consistent>  (393) 
1

>  <s_lp_Variant>  (393) 
107:0-2

>  <s_i_glide_gridfile>  (393) 
pfpi4k_grid

>  <i_i_glide_lignum>  (393) 
27

>  <i_i_glide_rotatable_bonds>  (393) 
5

>  <r_i_docking_score>  (393) 
-2.78476

>  <r_i_glide_ligand_efficiency>  (393) 
-0.096026

>  <r_i_glide_ligand_efficiency_sa>  (393) 
-0.295022

>  <r_i_glide_ligand_efficiency_ln>  (393) 
-0.637638

>  <r_i_glide_gscore>  (393) 
-2.78476

>  <r_i_glide_lipo>  (393) 
-0.136575

>  <r_i_glide_hbond>  (393) 
-0.16

>  <r_i_glide_metal>  (393) 
-0

>  <r_i_glide_rewards>  (393) 
-0.763631

>  <r_i_glide_evdw>  (393) 
-26.1624

>  <r_i_glide_ecoul>  (393) 
-6.62306

>  <r_i_glide_erotb>  (393) 
0.627861

>  <r_i_glide_esite>  (393) 
-0.050833

>  <r_i_glide_emodel>  (393) 
-36.0871

>  <r_i_glide_energy>  (393) 
-32.7854

>  <r_i_glide_einternal>  (393) 
8.70266

>  <r_i_glide_intrahb_reward>  (393) 
-0

>  <i_i_glide_confnum>  (393) 
3

>  <i_i_glide_posenum>  (393) 
1

>  <r_i_glide_eff_state_penalty>  (393) 
0

>  <ligand_id>  (393) 
107

>  <original_smiles>  (393) 
O=C1c2ccccc2C(=O)N1CCN1CCN(CC23CC4CC(CC(C4)C2)C3)C1

>  <smiles>  (393) 
[H]c1c([H])c([H])c2c(c1[H])C(=O)N(C([H])([H])C([H])([H])N1C([H])([H])C([H])([H])[N+]([H])(C([H])([H])C34C([H])([H])C5([H])C([H])([H])C([H])(C([H])([H])C([H])(C5([H])[H])C3([H])[H])C4([H])[H])C1([H])[H])C2=O

$$$$
107:1:2
     RDKit          3D

 61 66  0  0  1  0  0  0  0  0999 V2000
    1.0154   -6.0312    1.2793 O   0  0  0  0  0  0  0  0  0  0  0  0
    2.2424   -6.1791    1.2768 C   0  0  0  0  0  0  0  0  0  0  0  0
    2.9624   -7.4488    1.5256 C   0  0  0  0  0  0  0  0  0  0  0  0
    2.4666   -8.7297    1.8024 C   0  0  0  0  0  0  0  0  0  0  0  0
    3.4257   -9.7537    1.9835 C   0  0  0  0  0  0  0  0  0  0  0  0
    4.8135   -9.4842    1.8683 C   0  0  0  0  0  0  0  0  0  0  0  0
    5.2826   -8.1830    1.5773 C   0  0  0  0  0  0  0  0  0  0  0  0
    4.3080   -7.1877    1.4139 C   0  0  0  0  0  0  0  0  0  0  0  0
    4.4575   -5.7481    1.1062 C   0  0  0  0  0  0  0  0  0  0  0  0
    5.5284   -5.1575    0.9474 O   0  0  0  0  0  0  0  0  0  0  0  0
    3.1993   -5.2474    1.0504 N   0  0  0  0  0  0  0  0  0  0  0  0
    2.9085   -3.8382    0.7762 C   0  0  0  0  0  0  0  0  0  0  0  0
    2.6468   -3.0496    2.0699 C   0  0  0  0  0  0  0  0  0  0  0  0
    2.3892   -1.6540    1.7554 N   0  0  0  0  0  0  0  0  0  0  0  0
    3.5574   -0.9360    1.2567 C   0  0  0  0  0  0  0  0  0  0  0  0
    3.3530    0.5079    1.7250 C   0  0  0  0  0  0  0  0  0  0  0  0
    2.1092    0.4951    2.5085 N   0  0  2  0  0  0  0  0  0  0  0  0
    2.0773    1.4672    3.6242 C   0  0  0  0  0  0  0  0  0  0  0  0
    0.6505    1.9232    4.0240 C   0  0  1  0  0  0  0  0  0  0  0  0
   -0.3630    0.7557    4.1583 C   0  0  0  0  0  0  0  0  0  0  0  0
   -1.7385    1.2644    4.6034 C   0  0  2  0  0  0  0  0  0  0  0  0
   -2.2610    2.2534    3.5449 C   0  0  0  0  0  0  0  0  0  0  0  0
   -1.3001    3.4473    3.4379 C   0  0  1  0  0  0  0  0  0  0  0  0
   -1.1658    4.1463    4.8000 C   0  0  0  0  0  0  0  0  0  0  0  0
   -0.6298    3.1467    5.8432 C   0  0  1  0  0  0  0  0  0  0  0  0
   -1.6022    1.9566    5.9724 C   0  0  0  0  0  0  0  0  0  0  0  0
    0.7542    2.6296    5.3950 C   0  0  0  0  0  0  0  0  0  0  0  0
    0.0958    2.9350    2.9919 C   0  0  0  0  0  0  0  0  0  0  0  0
    1.9896   -0.9131    2.9313 C   0  0  0  0  0  0  0  0  0  0  0  0
    1.4091   -8.9305    1.8609 H   0  0  0  0  0  0  0  0  0  0  0  0
    3.0983  -10.7614    2.1787 H   0  0  0  0  0  0  0  0  0  0  0  0
    5.5156  -10.2931    1.9896 H   0  0  0  0  0  0  0  0  0  0  0  0
    6.3352   -7.9674    1.4834 H   0  0  0  0  0  0  0  0  0  0  0  0
    3.7366   -3.3923    0.2255 H   0  0  0  0  0  0  0  0  0  0  0  0
    2.0496   -3.7565    0.1108 H   0  0  0  0  0  0  0  0  0  0  0  0
    1.7723   -3.4573    2.5799 H   0  0  0  0  0  0  0  0  0  0  0  0
    3.4815   -3.1339    2.7685 H   0  0  0  0  0  0  0  0  0  0  0  0
    4.4763   -1.3358    1.6884 H   0  0  0  0  0  0  0  0  0  0  0  0
    3.6149   -1.0119    0.1701 H   0  0  0  0  0  0  0  0  0  0  0  0
    4.1898    0.7821    2.3709 H   0  0  0  0  0  0  0  0  0  0  0  0
    3.3067    1.2177    0.9025 H   0  0  0  0  0  0  0  0  0  0  0  0
    2.6018    1.0453    4.4805 H   0  0  0  0  0  0  0  0  0  0  0  0
    2.6526    2.3527    3.3533 H   0  0  0  0  0  0  0  0  0  0  0  0
   -0.5113    0.2580    3.1999 H   0  0  0  0  0  0  0  0  0  0  0  0
    0.0012    0.0124    4.8657 H   0  0  0  0  0  0  0  0  0  0  0  0
   -2.4192    0.4175    4.6781 H   0  0  0  0  0  0  0  0  0  0  0  0
   -2.3278    1.7697    2.5708 H   0  0  0  0  0  0  0  0  0  0  0  0
   -3.2705    2.5859    3.7906 H   0  0  0  0  0  0  0  0  0  0  0  0
   -1.6715    4.1490    2.6915 H   0  0  0  0  0  0  0  0  0  0  0  0
   -0.4943    4.9997    4.7160 H   0  0  0  0  0  0  0  0  0  0  0  0
   -2.1337    4.5339    5.1151 H   0  0  0  0  0  0  0  0  0  0  0  0
   -0.5302    3.6412    6.8082 H   0  0  0  0  0  0  0  0  0  0  0  0
   -2.5741    2.2887    6.3316 H   0  0  0  0  0  0  0  0  0  0  0  0
   -1.2198    1.2445    6.7078 H   0  0  0  0  0  0  0  0  0  0  0  0
    1.1383    1.9320    6.1395 H   0  0  0  0  0  0  0  0  0  0  0  0
    1.4708    3.4509    5.3544 H   0  0  0  0  0  0  0  0  0  0  0  0
    0.7709    3.7825    2.8784 H   0  0  0  0  0  0  0  0  0  0  0  0
    0.0161    2.4777    2.0095 H   0  0  0  0  0  0  0  0  0  0  0  0
    0.9996   -1.2274    3.2550 H   0  0  0  0  0  0  0  0  0  0  0  0
    2.6940   -1.0970    3.7498 H   0  0  0  0  0  0  0  0  0  0  0  0
    1.3607    0.6904    1.8546 H   0  0  0  0  0  0  0  0  0  0  0  0
  1  2  2  0
  2 11  1  0
  2  3  1  0
  3  8  2  0
  3  4  1  0
  4  5  2  0
  4 30  1  0
  5  6  1  0
  5 31  1  0
  6  7  2  0
  6 32  1  0
  7  8  1  0
  7 33  1  0
  8  9  1  0
  9 10  2  0
  9 11  1  0
 11 12  1  0
 12 13  1  0
 12 34  1  0
 12 35  1  0
 13 14  1  0
 13 36  1  0
 13 37  1  0
 14 29  1  0
 14 15  1  0
 15 16  1  0
 15 38  1  0
 15 39  1  0
 16 17  1  0
 16 40  1  0
 16 41  1  0
 17 18  1  0
 17 29  1  0
 17 61  1  6
 19 18  1  6
 18 42  1  0
 18 43  1  0
 19 27  1  0
 19 28  1  0
 19 20  1  0
 20 21  1  0
 20 44  1  0
 20 45  1  0
 21 26  1  0
 21 22  1  0
 21 46  1  1
 22 23  1  0
 22 47  1  0
 22 48  1  0
 23 24  1  0
 23 28  1  0
 23 49  1  6
 24 25  1  0
 24 50  1  0
 24 51  1  0
 25 26  1  0
 25 27  1  0
 25 52  1  1
 26 53  1  0
 26 54  1  0
 27 55  1  0
 27 56  1  0
 28 57  1  0
 28 58  1  0
 29 59  1  0
 29 60  1  0
M  CHG  1  17   1
M  END
>  <i_m_ct_stereo_status>  (394) 
1

>  <s_m_source_file>  (394) 
/var/tmp/pbs.5076255.sched01/tmpnhftudgm/135squ2m_dv.sdf

>  <i_m_source_file_index>  (394) 
27

>  <i_lp_mmshare_version>  (394) 
48012

>  <i_f3d_flags>  (394) 
0

>  <s_epik_input>  (394) 
W2NIXTFbY0hdW2NIXVtjSF1jKGMxMilDKD1PKU4oQzI9TylbQ0gyXVtDSDJdTjNbQ0gyXVtDSDJdTihbQ0gyXTMpW0NIMl1DNDVbQ0gyXVtDQEhdNltDSDJdW0NAQEhdKFtDSDJdNSlbQ0gyXVtDQEhdKFtDSDJdNilbQ0gyXTQ=

>  <s_epik_cmdline>  (394) 
J2VwaWtfcHl0aG9uJywgJy1waHQnLCAnMi4wJywgJy1waCcsICc3LjAnLCAnLXRuJywgJzgnLCAnLW1hJywgJzIwMCcsICctaW1hZScsICc8aW5maWxlLm1hZT4nLCAnLW9tYWUnLCAnPG91dGZpbGUubWFlPic=

>  <r_epik_Ionization_Penalty>  (394) 
0.674624

>  <r_epik_Ionization_Penalty_Charging>  (394) 
0.000223435

>  <r_epik_Ionization_Penalty_Neutral>  (394) 
0.6744

>  <r_epik_State_Penalty>  (394) 
0.704435

>  <r_epik_Charging_Adjusted_Penalty>  (394) 
0.704658

>  <i_epik_Tot_Q>  (394) 
1

>  <i_epik_Tot_abs_Q>  (394) 
1

>  <s_epik_Chemistry_Notes>  (394) 
This compound contains an acetal/aminal-like group ( X-CH(R)-Y where X, Y are N, S, or O) that may be acid/base labile, releasing an aldehyde.

>  <s_lp_Force_Field>  (394) 
OPLS3e

>  <r_lp_Energy>  (394) 
9.03005

>  <b_lp_Chiralities_Consistent>  (394) 
1

>  <s_lp_Variant>  (394) 
107:0-2

>  <s_i_glide_gridfile>  (394) 
pfpi4k_grid

>  <i_i_glide_lignum>  (394) 
27

>  <i_i_glide_rotatable_bonds>  (394) 
5

>  <r_i_docking_score>  (394) 
-2.75429

>  <r_i_glide_ligand_efficiency>  (394) 
-0.0949755

>  <r_i_glide_ligand_efficiency_sa>  (394) 
-0.291795

>  <r_i_glide_ligand_efficiency_ln>  (394) 
-0.630662

>  <r_i_glide_gscore>  (394) 
-2.75429

>  <r_i_glide_lipo>  (394) 
-0.281583

>  <r_i_glide_hbond>  (394) 
-0.16

>  <r_i_glide_metal>  (394) 
-0

>  <r_i_glide_rewards>  (394) 
-0.803723

>  <r_i_glide_evdw>  (394) 
-24.5819

>  <r_i_glide_ecoul>  (394) 
-5.65415

>  <r_i_glide_erotb>  (394) 
0.627861

>  <r_i_glide_esite>  (394) 
-0.0596288

>  <r_i_glide_emodel>  (394) 
-36.4985

>  <r_i_glide_energy>  (394) 
-30.236

>  <r_i_glide_einternal>  (394) 
2.36533

>  <r_i_glide_intrahb_reward>  (394) 
-0

>  <i_i_glide_confnum>  (394) 
4

>  <i_i_glide_posenum>  (394) 
2

>  <r_i_glide_eff_state_penalty>  (394) 
0

>  <ligand_id>  (394) 
107

>  <original_smiles>  (394) 
O=C1c2ccccc2C(=O)N1CCN1CCN(CC23CC4CC(CC(C4)C2)C3)C1

>  <smiles>  (394) 
[H]c1c([H])c([H])c2c(c1[H])C(=O)N(C([H])([H])C([H])([H])N1C([H])([H])C([H])([H])[N+]([H])(C([H])([H])C34C([H])([H])C5([H])C([H])([H])C([H])(C([H])([H])C([H])(C5([H])[H])C3([H])[H])C4([H])[H])C1([H])[H])C2=O

$$$$
107:2:0
     RDKit          3D

 61 66  0  0  1  0  0  0  0  0999 V2000
    2.6508   -4.9424    0.1452 O   0  0  0  0  0  0  0  0  0  0  0  0
    3.4831   -4.1471   -0.3124 C   0  0  0  0  0  0  0  0  0  0  0  0
    3.2928   -3.3235   -1.5258 C   0  0  0  0  0  0  0  0  0  0  0  0
    2.2186   -3.2634   -2.4082 C   0  0  0  0  0  0  0  0  0  0  0  0
    2.3270   -2.3768   -3.5000 C   0  0  0  0  0  0  0  0  0  0  0  0
    3.4748   -1.5604   -3.6500 C   0  0  0  0  0  0  0  0  0  0  0  0
    4.5451   -1.6430   -2.7346 C   0  0  0  0  0  0  0  0  0  0  0  0
    4.4228   -2.5631   -1.6894 C   0  0  0  0  0  0  0  0  0  0  0  0
    5.3621   -2.9193   -0.6039 C   0  0  0  0  0  0  0  0  0  0  0  0
    6.4874   -2.4385   -0.4504 O   0  0  0  0  0  0  0  0  0  0  0  0
    4.7337   -3.8684    0.1415 N   0  0  0  0  0  0  0  0  0  0  0  0
    5.3625   -4.5145    1.3106 C   0  0  0  0  0  0  0  0  0  0  0  0
    5.7179   -6.0047    1.0682 C   0  0  0  0  0  0  0  0  0  0  0  0
    4.5015   -6.8535    1.0016 N   0  0  1  0  0  0  0  0  0  0  0  0
    4.6734   -8.2309    0.5352 C   0  0  0  0  0  0  0  0  0  0  0  0
    3.5684   -9.0215    1.2688 C   0  0  0  0  0  0  0  0  0  0  0  0
    2.8421   -8.0233    2.0535 N   0  0  0  0  0  0  0  0  0  0  0  0
    2.2725   -8.5825    3.2861 C   0  0  0  0  0  0  0  0  0  0  0  0
    1.7823   -7.5537    4.3620 C   0  0  2  0  0  0  0  0  0  0  0  0
    2.9796   -6.9609    5.1915 C   0  0  0  0  0  0  0  0  0  0  0  0
    2.4741   -5.9981    6.2722 C   0  0  1  0  0  0  0  0  0  0  0  0
    1.6691   -4.8697    5.5985 C   0  0  0  0  0  0  0  0  0  0  0  0
    0.4401   -5.4566    4.8759 C   0  0  2  0  0  0  0  0  0  0  0  0
   -0.4319   -6.2377    5.8758 C   0  0  0  0  0  0  0  0  0  0  0  0
    0.4052   -7.3766    6.5044 C   0  0  2  0  0  0  0  0  0  0  0  0
    1.6108   -6.7798    7.2573 C   0  0  0  0  0  0  0  0  0  0  0  0
    0.8912   -8.3232    5.3764 C   0  0  0  0  0  0  0  0  0  0  0  0
    0.9043   -6.4118    3.7581 C   0  0  0  0  0  0  0  0  0  0  0  0
    3.8412   -7.0001    2.2870 C   0  0  0  0  0  0  0  0  0  0  0  0
    1.3408   -3.8750   -2.2588 H   0  0  0  0  0  0  0  0  0  0  0  0
    1.5041   -2.2862   -4.1925 H   0  0  0  0  0  0  0  0  0  0  0  0
    3.5187   -0.8484   -4.4574 H   0  0  0  0  0  0  0  0  0  0  0  0
    5.4107   -1.0102   -2.8105 H   0  0  0  0  0  0  0  0  0  0  0  0
    6.2785   -3.9975    1.6018 H   0  0  0  0  0  0  0  0  0  0  0  0
    4.7152   -4.3826    2.1768 H   0  0  0  0  0  0  0  0  0  0  0  0
    6.2850   -6.0987    0.1428 H   0  0  0  0  0  0  0  0  0  0  0  0
    6.3783   -6.3687    1.8598 H   0  0  0  0  0  0  0  0  0  0  0  0
    4.6059   -8.2736   -0.5512 H   0  0  0  0  0  0  0  0  0  0  0  0
    5.6526   -8.6033    0.8445 H   0  0  0  0  0  0  0  0  0  0  0  0
    2.8964   -9.5527    0.5903 H   0  0  0  0  0  0  0  0  0  0  0  0
    4.0421   -9.7608    1.9195 H   0  0  0  0  0  0  0  0  0  0  0  0
    1.4438   -9.2254    2.9838 H   0  0  0  0  0  0  0  0  0  0  0  0
    2.9890   -9.2445    3.7659 H   0  0  0  0  0  0  0  0  0  0  0  0
    3.5641   -7.7743    5.6274 H   0  0  0  0  0  0  0  0  0  0  0  0
    3.6815   -6.3592    4.6235 H   0  0  0  0  0  0  0  0  0  0  0  0
    3.3364   -5.5806    6.7834 H   0  0  0  0  0  0  0  0  0  0  0  0
    1.3644   -4.1291    6.3407 H   0  0  0  0  0  0  0  0  0  0  0  0
    2.2977   -4.3305    4.8888 H   0  0  0  0  0  0  0  0  0  0  0  0
   -0.1407   -4.6441    4.4403 H   0  0  0  0  0  0  0  0  0  0  0  0
   -0.8176   -5.5748    6.6480 H   0  0  0  0  0  0  0  0  0  0  0  0
   -1.2941   -6.6466    5.3406 H   0  0  0  0  0  0  0  0  0  0  0  0
   -0.1920   -7.9440    7.2153 H   0  0  0  0  0  0  0  0  0  0  0  0
    2.1992   -7.5769    7.7100 H   0  0  0  0  0  0  0  0  0  0  0  0
    1.2834   -6.1299    8.0740 H   0  0  0  0  0  0  0  0  0  0  0  0
    0.0263   -8.7622    4.8740 H   0  0  0  0  0  0  0  0  0  0  0  0
    1.4278   -9.1691    5.8130 H   0  0  0  0  0  0  0  0  0  0  0  0
    1.4315   -5.8183    3.0134 H   0  0  0  0  0  0  0  0  0  0  0  0
    0.0430   -6.8340    3.2349 H   0  0  0  0  0  0  0  0  0  0  0  0
    4.5785   -7.3375    3.0243 H   0  0  0  0  0  0  0  0  0  0  0  0
    3.4161   -6.0374    2.5682 H   0  0  0  0  0  0  0  0  0  0  0  0
    3.8064   -6.4123    0.4045 H   0  0  0  0  0  0  0  0  0  0  0  0
  1  2  2  0
  2 11  1  0
  2  3  1  0
  3  8  2  0
  3  4  1  0
  4  5  2  0
  4 30  1  0
  5  6  1  0
  5 31  1  0
  6  7  2  0
  6 32  1  0
  7  8  1  0
  7 33  1  0
  8  9  1  0
  9 10  2  0
  9 11  1  0
 11 12  1  0
 12 13  1  0
 12 34  1  0
 12 35  1  0
 13 14  1  0
 13 36  1  0
 13 37  1  0
 14 29  1  0
 14 15  1  0
 14 61  1  6
 15 16  1  0
 15 38  1  0
 15 39  1  0
 16 17  1  0
 16 40  1  0
 16 41  1  0
 17 18  1  0
 17 29  1  0
 19 18  1  6
 18 42  1  0
 18 43  1  0
 19 27  1  0
 19 28  1  0
 19 20  1  0
 20 21  1  0
 20 44  1  0
 20 45  1  0
 21 26  1  0
 21 22  1  0
 21 46  1  1
 22 23  1  0
 22 47  1  0
 22 48  1  0
 23 24  1  0
 23 28  1  0
 23 49  1  6
 24 25  1  0
 24 50  1  0
 24 51  1  0
 25 26  1  0
 25 27  1  0
 25 52  1  1
 26 53  1  0
 26 54  1  0
 27 55  1  0
 27 56  1  0
 28 57  1  0
 28 58  1  0
 29 59  1  0
 29 60  1  0
M  CHG  1  14   1
M  END
>  <i_m_ct_stereo_status>  (395) 
1

>  <s_m_source_file>  (395) 
/var/tmp/pbs.5076255.sched01/tmpnhftudgm/135squ2m_dv.sdf

>  <i_m_source_file_index>  (395) 
28

>  <i_lp_mmshare_version>  (395) 
48012

>  <i_f3d_flags>  (395) 
0

>  <s_epik_input>  (395) 
W2NIXTFbY0hdW2NIXVtjSF1jKGMxMilDKD1PKU4oQzI9TylbQ0gyXVtDSDJdTjNbQ0gyXVtDSDJdTihbQ0gyXTMpW0NIMl1DNDVbQ0gyXVtDQEhdNltDSDJdW0NAQEhdKFtDSDJdNSlbQ0gyXVtDQEhdKFtDSDJdNilbQ0gyXTQ=

>  <s_epik_cmdline>  (395) 
J2VwaWtfcHl0aG9uJywgJy1waHQnLCAnMi4wJywgJy1waCcsICc3LjAnLCAnLXRuJywgJzgnLCAnLW1hJywgJzIwMCcsICctaW1hZScsICc8aW5maWxlLm1hZT4nLCAnLW9tYWUnLCAnPG91dGZpbGUubWFlPic=

>  <r_epik_Ionization_Penalty>  (395) 
2.10061

>  <r_epik_Ionization_Penalty_Charging>  (395) 
0.00188383

>  <r_epik_Ionization_Penalty_Neutral>  (395) 
2.09872

>  <r_epik_State_Penalty>  (395) 
2.44991

>  <r_epik_Charging_Adjusted_Penalty>  (395) 
2.45179

>  <i_epik_Tot_Q>  (395) 
1

>  <i_epik_Tot_abs_Q>  (395) 
1

>  <s_epik_Chemistry_Notes>  (395) 
This compound contains an acetal/aminal-like group ( X-CH(R)-Y where X, Y are N, S, or O) that may be acid/base labile, releasing an aldehyde.

>  <s_lp_Force_Field>  (395) 
OPLS3e

>  <r_lp_Energy>  (395) 
8.99543

>  <b_lp_Chiralities_Consistent>  (395) 
1

>  <s_lp_Variant>  (395) 
107:0-3

>  <s_i_glide_gridfile>  (395) 
pfpi4k_grid

>  <i_i_glide_lignum>  (395) 
28

>  <i_i_glide_rotatable_bonds>  (395) 
5

>  <r_i_docking_score>  (395) 
-3.40784

>  <r_i_glide_ligand_efficiency>  (395) 
-0.117512

>  <r_i_glide_ligand_efficiency_sa>  (395) 
-0.361034

>  <r_i_glide_ligand_efficiency_ln>  (395) 
-0.78031

>  <r_i_glide_gscore>  (395) 
-3.40784

>  <r_i_glide_lipo>  (395) 
-0.886004

>  <r_i_glide_hbond>  (395) 
0

>  <r_i_glide_metal>  (395) 
-0

>  <r_i_glide_rewards>  (395) 
-1.29342

>  <r_i_glide_evdw>  (395) 
-26.8898

>  <r_i_glide_ecoul>  (395) 
-3.26382

>  <r_i_glide_erotb>  (395) 
0.627861

>  <r_i_glide_esite>  (395) 
-0.0222258

>  <r_i_glide_emodel>  (395) 
-36.6056

>  <r_i_glide_energy>  (395) 
-30.1536

>  <r_i_glide_einternal>  (395) 
11.1416

>  <r_i_glide_intrahb_reward>  (395) 
-0.5

>  <i_i_glide_confnum>  (395) 
3

>  <i_i_glide_posenum>  (395) 
13

>  <r_i_glide_eff_state_penalty>  (395) 
0

>  <ligand_id>  (395) 
107

>  <original_smiles>  (395) 
O=C1c2ccccc2C(=O)N1CCN1CCN(CC23CC4CC(CC(C4)C2)C3)C1

>  <smiles>  (395) 
[H]c1c([H])c([H])c2c(c1[H])C(=O)N(C([H])([H])C([H])([H])[N+]1([H])C([H])([H])N(C([H])([H])C34C([H])([H])C5([H])C([H])([H])C([H])(C([H])([H])C([H])(C5([H])[H])C3([H])[H])C4([H])[H])C([H])([H])C1([H])[H])C2=O

$$$$
107:2:1
     RDKit          3D

 61 66  0  0  1  0  0  0  0  0999 V2000
    1.1328   -3.1026    3.6266 O   0  0  0  0  0  0  0  0  0  0  0  0
    1.6653   -2.1764    2.9891 C   0  0  0  0  0  0  0  0  0  0  0  0
    1.2380   -0.7812    3.0336 C   0  0  0  0  0  0  0  0  0  0  0  0
    0.1710   -0.1823    3.7293 C   0  0  0  0  0  0  0  0  0  0  0  0
    0.0061    1.2007    3.5285 C   0  0  0  0  0  0  0  0  0  0  0  0
    0.8906    1.9296    2.6760 C   0  0  0  0  0  0  0  0  0  0  0  0
    1.9537    1.2855    2.0076 C   0  0  0  0  0  0  0  0  0  0  0  0
    2.0852   -0.0813    2.2165 C   0  0  0  0  0  0  0  0  0  0  0  0
    3.0683   -1.0165    1.6406 C   0  0  0  0  0  0  0  0  0  0  0  0
    3.9929   -0.7372    0.8831 O   0  0  0  0  0  0  0  0  0  0  0  0
    2.7335   -2.2249    2.1652 N   0  0  0  0  0  0  0  0  0  0  0  0
    3.4961   -3.4420    1.9336 C   0  0  0  0  0  0  0  0  0  0  0  0
    3.1168   -4.1095    0.5824 C   0  0  0  0  0  0  0  0  0  0  0  0
    3.6077   -5.5006    0.4814 N   0  0  1  0  0  0  0  0  0  0  0  0
    5.0404   -5.7260    0.3591 C   0  0  0  0  0  0  0  0  0  0  0  0
    5.2611   -7.0661    1.0995 C   0  0  0  0  0  0  0  0  0  0  0  0
    3.9378   -7.5809    1.4536 N   0  0  0  0  0  0  0  0  0  0  0  0
    3.9908   -8.3258    2.7221 C   0  0  0  0  0  0  0  0  0  0  0  0
    2.6324   -8.9217    3.2288 C   0  0  2  0  0  0  0  0  0  0  0  0
    1.6090   -7.8328    3.7231 C   0  0  0  0  0  0  0  0  0  0  0  0
    0.3116   -8.5037    4.2302 C   0  0  1  0  0  0  0  0  0  0  0  0
   -0.2975   -9.3239    3.0770 C   0  0  0  0  0  0  0  0  0  0  0  0
    0.6719  -10.4395    2.6630 C   0  0  2  0  0  0  0  0  0  0  0  0
    0.9954  -11.3273    3.8822 C   0  0  0  0  0  0  0  0  0  0  0  0
    1.6259  -10.4666    4.9940 C   0  0  2  0  0  0  0  0  0  0  0  0
    0.6329   -9.3720    5.4320 C   0  0  0  0  0  0  0  0  0  0  0  0
    2.9401   -9.8256    4.4446 C   0  0  0  0  0  0  0  0  0  0  0  0
    1.9853   -9.8016    2.1363 C   0  0  0  0  0  0  0  0  0  0  0  0
    3.1412   -6.3693    1.5566 C   0  0  0  0  0  0  0  0  0  0  0  0
   -0.4813   -0.7779    4.3577 H   0  0  0  0  0  0  0  0  0  0  0  0
   -0.7971    1.7164    4.0092 H   0  0  0  0  0  0  0  0  0  0  0  0
    0.7485    2.9766    2.5111 H   0  0  0  0  0  0  0  0  0  0  0  0
    2.6266    1.7749    1.3292 H   0  0  0  0  0  0  0  0  0  0  0  0
    4.5619   -3.2039    1.9557 H   0  0  0  0  0  0  0  0  0  0  0  0
    3.3256   -4.0828    2.8097 H   0  0  0  0  0  0  0  0  0  0  0  0
    2.0433   -4.0885    0.4327 H   0  0  0  0  0  0  0  0  0  0  0  0
    3.4880   -3.5270   -0.2514 H   0  0  0  0  0  0  0  0  0  0  0  0
    5.3391   -5.7416   -0.6897 H   0  0  0  0  0  0  0  0  0  0  0  0
    5.6027   -4.9359    0.8605 H   0  0  0  0  0  0  0  0  0  0  0  0
    5.7935   -7.7939    0.4882 H   0  0  0  0  0  0  0  0  0  0  0  0
    5.8585   -6.8644    1.9916 H   0  0  0  0  0  0  0  0  0  0  0  0
    4.7236   -9.1291    2.6102 H   0  0  0  0  0  0  0  0  0  0  0  0
    4.3880   -7.6996    3.5098 H   0  0  0  0  0  0  0  0  0  0  0  0
    2.0712   -7.2116    4.4957 H   0  0  0  0  0  0  0  0  0  0  0  0
    1.2175   -7.1737    2.9548 H   0  0  0  0  0  0  0  0  0  0  0  0
   -0.3783   -7.7205    4.5190 H   0  0  0  0  0  0  0  0  0  0  0  0
   -1.2663   -9.7513    3.3613 H   0  0  0  0  0  0  0  0  0  0  0  0
   -0.5081   -8.6888    2.2180 H   0  0  0  0  0  0  0  0  0  0  0  0
    0.2065  -11.0442    1.8845 H   0  0  0  0  0  0  0  0  0  0  0  0
    0.0977  -11.8112    4.2560 H   0  0  0  0  0  0  0  0  0  0  0  0
    1.6827  -12.1253    3.5853 H   0  0  0  0  0  0  0  0  0  0  0  0
    1.8632  -11.0794    5.8574 H   0  0  0  0  0  0  0  0  0  0  0  0
    1.0728   -8.7651    6.2188 H   0  0  0  0  0  0  0  0  0  0  0  0
   -0.2804   -9.8156    5.8550 H   0  0  0  0  0  0  0  0  0  0  0  0
    3.6371  -10.6221    4.1678 H   0  0  0  0  0  0  0  0  0  0  0  0
    3.4316   -9.2740    5.2505 H   0  0  0  0  0  0  0  0  0  0  0  0
    1.7801   -9.2111    1.2449 H   0  0  0  0  0  0  0  0  0  0  0  0
    2.6739  -10.5860    1.8103 H   0  0  0  0  0  0  0  0  0  0  0  0
    3.3861   -5.9690    2.5498 H   0  0  0  0  0  0  0  0  0  0  0  0
    2.0669   -6.4581    1.4161 H   0  0  0  0  0  0  0  0  0  0  0  0
    3.2214   -5.9247   -0.3508 H   0  0  0  0  0  0  0  0  0  0  0  0
  1  2  2  0
  2 11  1  0
  2  3  1  0
  3  8  2  0
  3  4  1  0
  4  5  2  0
  4 30  1  0
  5  6  1  0
  5 31  1  0
  6  7  2  0
  6 32  1  0
  7  8  1  0
  7 33  1  0
  8  9  1  0
  9 10  2  0
  9 11  1  0
 11 12  1  0
 12 13  1  0
 12 34  1  0
 12 35  1  0
 13 14  1  0
 13 36  1  0
 13 37  1  0
 14 29  1  0
 14 15  1  0
 14 61  1  6
 15 16  1  0
 15 38  1  0
 15 39  1  0
 16 17  1  0
 16 40  1  0
 16 41  1  0
 17 18  1  0
 17 29  1  0
 19 18  1  6
 18 42  1  0
 18 43  1  0
 19 27  1  0
 19 28  1  0
 19 20  1  0
 20 21  1  0
 20 44  1  0
 20 45  1  0
 21 26  1  0
 21 22  1  0
 21 46  1  1
 22 23  1  0
 22 47  1  0
 22 48  1  0
 23 24  1  0
 23 28  1  0
 23 49  1  6
 24 25  1  0
 24 50  1  0
 24 51  1  0
 25 26  1  0
 25 27  1  0
 25 52  1  1
 26 53  1  0
 26 54  1  0
 27 55  1  0
 27 56  1  0
 28 57  1  0
 28 58  1  0
 29 59  1  0
 29 60  1  0
M  CHG  1  14   1
M  END
>  <i_m_ct_stereo_status>  (396) 
1

>  <s_m_source_file>  (396) 
/var/tmp/pbs.5076255.sched01/tmpnhftudgm/135squ2m_dv.sdf

>  <i_m_source_file_index>  (396) 
28

>  <i_lp_mmshare_version>  (396) 
48012

>  <i_f3d_flags>  (396) 
0

>  <s_epik_input>  (396) 
W2NIXTFbY0hdW2NIXVtjSF1jKGMxMilDKD1PKU4oQzI9TylbQ0gyXVtDSDJdTjNbQ0gyXVtDSDJdTihbQ0gyXTMpW0NIMl1DNDVbQ0gyXVtDQEhdNltDSDJdW0NAQEhdKFtDSDJdNSlbQ0gyXVtDQEhdKFtDSDJdNilbQ0gyXTQ=

>  <s_epik_cmdline>  (396) 
J2VwaWtfcHl0aG9uJywgJy1waHQnLCAnMi4wJywgJy1waCcsICc3LjAnLCAnLXRuJywgJzgnLCAnLW1hJywgJzIwMCcsICctaW1hZScsICc8aW5maWxlLm1hZT4nLCAnLW9tYWUnLCAnPG91dGZpbGUubWFlPic=

>  <r_epik_Ionization_Penalty>  (396) 
2.10061

>  <r_epik_Ionization_Penalty_Charging>  (396) 
0.00188383

>  <r_epik_Ionization_Penalty_Neutral>  (396) 
2.09872

>  <r_epik_State_Penalty>  (396) 
2.44991

>  <r_epik_Charging_Adjusted_Penalty>  (396) 
2.45179

>  <i_epik_Tot_Q>  (396) 
1

>  <i_epik_Tot_abs_Q>  (396) 
1

>  <s_epik_Chemistry_Notes>  (396) 
This compound contains an acetal/aminal-like group ( X-CH(R)-Y where X, Y are N, S, or O) that may be acid/base labile, releasing an aldehyde.

>  <s_lp_Force_Field>  (396) 
OPLS3e

>  <r_lp_Energy>  (396) 
8.99543

>  <b_lp_Chiralities_Consistent>  (396) 
1

>  <s_lp_Variant>  (396) 
107:0-3

>  <s_i_glide_gridfile>  (396) 
pfpi4k_grid

>  <i_i_glide_lignum>  (396) 
28

>  <i_i_glide_rotatable_bonds>  (396) 
5

>  <r_i_docking_score>  (396) 
-2.67716

>  <r_i_glide_ligand_efficiency>  (396) 
-0.092316

>  <r_i_glide_ligand_efficiency_sa>  (396) 
-0.283624

>  <r_i_glide_ligand_efficiency_ln>  (396) 
-0.613002

>  <r_i_glide_gscore>  (396) 
-2.67716

>  <r_i_glide_lipo>  (396) 
-0.612218

>  <r_i_glide_hbond>  (396) 
0

>  <r_i_glide_metal>  (396) 
-0

>  <r_i_glide_rewards>  (396) 
-0.779982

>  <r_i_glide_evdw>  (396) 
-26.7286

>  <r_i_glide_ecoul>  (396) 
-3.53377

>  <r_i_glide_erotb>  (396) 
0.627861

>  <r_i_glide_esite>  (396) 
-0.0463292

>  <r_i_glide_emodel>  (396) 
-29.6377

>  <r_i_glide_energy>  (396) 
-30.2624

>  <r_i_glide_einternal>  (396) 
10.6668

>  <r_i_glide_intrahb_reward>  (396) 
-0

>  <i_i_glide_confnum>  (396) 
4

>  <i_i_glide_posenum>  (396) 
1

>  <r_i_glide_eff_state_penalty>  (396) 
0

>  <ligand_id>  (396) 
107

>  <original_smiles>  (396) 
O=C1c2ccccc2C(=O)N1CCN1CCN(CC23CC4CC(CC(C4)C2)C3)C1

>  <smiles>  (396) 
[H]c1c([H])c([H])c2c(c1[H])C(=O)N(C([H])([H])C([H])([H])[N+]1([H])C([H])([H])N(C([H])([H])C34C([H])([H])C5([H])C([H])([H])C([H])(C([H])([H])C([H])(C5([H])[H])C3([H])[H])C4([H])[H])C([H])([H])C1([H])[H])C2=O

$$$$
107:2:2
     RDKit          3D

 61 66  0  0  1  0  0  0  0  0999 V2000
    3.3779    0.2357    1.2121 O   0  0  0  0  0  0  0  0  0  0  0  0
    3.4307   -0.9842    1.0417 C   0  0  0  0  0  0  0  0  0  0  0  0
    4.0096   -1.6759   -0.1134 C   0  0  0  0  0  0  0  0  0  0  0  0
    4.5387   -1.1273   -1.2914 C   0  0  0  0  0  0  0  0  0  0  0  0
    5.0011   -2.0819   -2.2467 C   0  0  0  0  0  0  0  0  0  0  0  0
    4.9330   -3.4647   -2.0039 C   0  0  0  0  0  0  0  0  0  0  0  0
    4.3947   -3.9815   -0.7856 C   0  0  0  0  0  0  0  0  0  0  0  0
    3.9410   -3.0173    0.1246 C   0  0  0  0  0  0  0  0  0  0  0  0
    3.3187   -3.2073    1.4342 C   0  0  0  0  0  0  0  0  0  0  0  0
    3.1156   -4.2972    1.9953 O   0  0  0  0  0  0  0  0  0  0  0  0
    3.0305   -1.9639    1.8974 N   0  0  0  0  0  0  0  0  0  0  0  0
    2.4834   -1.6892    3.2024 C   0  0  0  0  0  0  0  0  0  0  0  0
    1.0680   -2.2864    3.3885 C   0  0  0  0  0  0  0  0  0  0  0  0
    0.5538   -2.1004    4.7371 N   0  0  1  0  0  0  0  0  0  0  0  0
    1.1903   -2.8643    5.8250 C   0  0  0  0  0  0  0  0  0  0  0  0
    1.0916   -1.9362    7.0450 C   0  0  0  0  0  0  0  0  0  0  0  0
    0.2747   -0.7832    6.6248 N   0  0  0  0  0  0  0  0  0  0  0  0
    0.6941    0.4303    7.3280 C   0  0  0  0  0  0  0  0  0  0  0  0
   -0.1968    1.6896    7.0684 C   0  0  2  0  0  0  0  0  0  0  0  0
    0.0383    2.3116    5.6418 C   0  0  0  0  0  0  0  0  0  0  0  0
   -0.8284    3.5782    5.4641 C   0  0  1  0  0  0  0  0  0  0  0  0
   -2.3104    3.1851    5.6313 C   0  0  0  0  0  0  0  0  0  0  0  0
   -2.5502    2.6458    7.0524 C   0  0  2  0  0  0  0  0  0  0  0  0
   -2.1402    3.7092    8.0889 C   0  0  0  0  0  0  0  0  0  0  0  0
   -0.6483    4.0605    7.9098 C   0  0  2  0  0  0  0  0  0  0  0  0
   -0.4131    4.6315    6.4972 C   0  0  0  0  0  0  0  0  0  0  0  0
    0.1958    2.7729    8.1103 C   0  0  0  0  0  0  0  0  0  0  0  0
   -1.7009    1.3709    7.2554 C   0  0  0  0  0  0  0  0  0  0  0  0
    0.5330   -0.7013    5.1995 C   0  0  0  0  0  0  0  0  0  0  0  0
    4.5696   -0.0678   -1.4520 H   0  0  0  0  0  0  0  0  0  0  0  0
    5.3988   -1.7201   -3.1741 H   0  0  0  0  0  0  0  0  0  0  0  0
    5.2742   -4.1678   -2.7415 H   0  0  0  0  0  0  0  0  0  0  0  0
    4.3108   -5.0331   -0.5820 H   0  0  0  0  0  0  0  0  0  0  0  0
    3.1925   -2.0652    3.9395 H   0  0  0  0  0  0  0  0  0  0  0  0
    2.4265   -0.6101    3.3530 H   0  0  0  0  0  0  0  0  0  0  0  0
    0.3985   -1.8074    2.6716 H   0  0  0  0  0  0  0  0  0  0  0  0
    1.0149   -3.3480    3.1421 H   0  0  0  0  0  0  0  0  0  0  0  0
    0.6922   -3.8304    5.9624 H   0  0  0  0  0  0  0  0  0  0  0  0
    2.2455   -3.0617    5.6077 H   0  0  0  0  0  0  0  0  0  0  0  0
    0.6525   -2.4360    7.9079 H   0  0  0  0  0  0  0  0  0  0  0  0
    2.0985   -1.6154    7.3085 H   0  0  0  0  0  0  0  0  0  0  0  0
    0.6939    0.2147    8.3914 H   0  0  0  0  0  0  0  0  0  0  0  0
    1.7218    0.6786    7.0892 H   0  0  0  0  0  0  0  0  0  0  0  0
    1.1054    2.5480    5.5110 H   0  0  0  0  0  0  0  0  0  0  0  0
   -0.2525    1.6999    4.8216 H   0  0  0  0  0  0  0  0  0  0  0  0
   -0.6634    3.9609    4.4595 H   0  0  0  0  0  0  0  0  0  0  0  0
   -2.9593    4.0401    5.4322 H   0  0  0  0  0  0  0  0  0  0  0  0
   -2.5807    2.4319    4.8908 H   0  0  0  0  0  0  0  0  0  0  0  0
   -3.6036    2.4067    7.1776 H   0  0  0  0  0  0  0  0  0  0  0  0
   -2.7542    4.6031    7.9876 H   0  0  0  0  0  0  0  0  0  0  0  0
   -2.3116    3.3298    9.0986 H   0  0  0  0  0  0  0  0  0  0  0  0
   -0.3576    4.8104    8.6460 H   0  0  0  0  0  0  0  0  0  0  0  0
    0.6361    4.8804    6.3553 H   0  0  0  0  0  0  0  0  0  0  0  0
   -0.9767    5.5594    6.3423 H   0  0  0  0  0  0  0  0  0  0  0  0
    0.0423    2.3929    9.1184 H   0  0  0  0  0  0  0  0  0  0  0  0
    1.2583    3.0142    8.0439 H   0  0  0  0  0  0  0  0  0  0  0  0
   -2.0245    0.6111    6.5472 H   0  0  0  0  0  0  0  0  0  0  0  0
   -1.8766    0.9690    8.2475 H   0  0  0  0  0  0  0  0  0  0  0  0
    1.5141   -0.2355    5.0719 H   0  0  0  0  0  0  0  0  0  0  0  0
   -0.2098   -0.2059    4.5883 H   0  0  0  0  0  0  0  0  0  0  0  0
   -0.4229   -2.3564    4.7662 H   0  0  0  0  0  0  0  0  0  0  0  0
  1  2  2  0
  2 11  1  0
  2  3  1  0
  3  8  2  0
  3  4  1  0
  4  5  2  0
  4 30  1  0
  5  6  1  0
  5 31  1  0
  6  7  2  0
  6 32  1  0
  7  8  1  0
  7 33  1  0
  8  9  1  0
  9 10  2  0
  9 11  1  0
 11 12  1  0
 12 13  1  0
 12 34  1  0
 12 35  1  0
 13 14  1  0
 13 36  1  0
 13 37  1  0
 14 29  1  0
 14 15  1  0
 14 61  1  6
 15 16  1  0
 15 38  1  0
 15 39  1  0
 16 17  1  0
 16 40  1  0
 16 41  1  0
 17 18  1  0
 17 29  1  0
 19 18  1  1
 18 42  1  0
 18 43  1  0
 19 27  1  0
 19 28  1  0
 19 20  1  0
 20 21  1  0
 20 44  1  0
 20 45  1  0
 21 26  1  0
 21 22  1  0
 21 46  1  6
 22 23  1  0
 22 47  1  0
 22 48  1  0
 23 24  1  0
 23 28  1  0
 23 49  1  6
 24 25  1  0
 24 50  1  0
 24 51  1  0
 25 26  1  0
 25 27  1  0
 25 52  1  1
 26 53  1  0
 26 54  1  0
 27 55  1  0
 27 56  1  0
 28 57  1  0
 28 58  1  0
 29 59  1  0
 29 60  1  0
M  CHG  1  14   1
M  END
>  <i_m_ct_stereo_status>  (397) 
1

>  <s_m_source_file>  (397) 
/var/tmp/pbs.5076255.sched01/tmpnhftudgm/135squ2m_dv.sdf

>  <i_m_source_file_index>  (397) 
28

>  <i_lp_mmshare_version>  (397) 
48012

>  <i_f3d_flags>  (397) 
0

>  <s_epik_input>  (397) 
W2NIXTFbY0hdW2NIXVtjSF1jKGMxMilDKD1PKU4oQzI9TylbQ0gyXVtDSDJdTjNbQ0gyXVtDSDJdTihbQ0gyXTMpW0NIMl1DNDVbQ0gyXVtDQEhdNltDSDJdW0NAQEhdKFtDSDJdNSlbQ0gyXVtDQEhdKFtDSDJdNilbQ0gyXTQ=

>  <s_epik_cmdline>  (397) 
J2VwaWtfcHl0aG9uJywgJy1waHQnLCAnMi4wJywgJy1waCcsICc3LjAnLCAnLXRuJywgJzgnLCAnLW1hJywgJzIwMCcsICctaW1hZScsICc8aW5maWxlLm1hZT4nLCAnLW9tYWUnLCAnPG91dGZpbGUubWFlPic=

>  <r_epik_Ionization_Penalty>  (397) 
2.10061

>  <r_epik_Ionization_Penalty_Charging>  (397) 
0.00188383

>  <r_epik_Ionization_Penalty_Neutral>  (397) 
2.09872

>  <r_epik_State_Penalty>  (397) 
2.44991

>  <r_epik_Charging_Adjusted_Penalty>  (397) 
2.45179

>  <i_epik_Tot_Q>  (397) 
1

>  <i_epik_Tot_abs_Q>  (397) 
1

>  <s_epik_Chemistry_Notes>  (397) 
This compound contains an acetal/aminal-like group ( X-CH(R)-Y where X, Y are N, S, or O) that may be acid/base labile, releasing an aldehyde.

>  <s_lp_Force_Field>  (397) 
OPLS3e

>  <r_lp_Energy>  (397) 
8.99543

>  <b_lp_Chiralities_Consistent>  (397) 
1

>  <s_lp_Variant>  (397) 
107:0-3

>  <s_i_glide_gridfile>  (397) 
pfpi4k_grid

>  <i_i_glide_lignum>  (397) 
28

>  <i_i_glide_rotatable_bonds>  (397) 
5

>  <r_i_docking_score>  (397) 
-2.3331

>  <r_i_glide_ligand_efficiency>  (397) 
-0.0804516

>  <r_i_glide_ligand_efficiency_sa>  (397) 
-0.247173

>  <r_i_glide_ligand_efficiency_ln>  (397) 
-0.53422

>  <r_i_glide_gscore>  (397) 
-2.3331

>  <r_i_glide_lipo>  (397) 
-0.349508

>  <r_i_glide_hbond>  (397) 
0

>  <r_i_glide_metal>  (397) 
-0

>  <r_i_glide_rewards>  (397) 
-0.719115

>  <r_i_glide_evdw>  (397) 
-24.0098

>  <r_i_glide_ecoul>  (397) 
-4.21622

>  <r_i_glide_erotb>  (397) 
0.627861

>  <r_i_glide_esite>  (397) 
-0.0594106

>  <r_i_glide_emodel>  (397) 
-27.2822

>  <r_i_glide_energy>  (397) 
-28.226

>  <r_i_glide_einternal>  (397) 
10.2471

>  <r_i_glide_intrahb_reward>  (397) 
-0

>  <i_i_glide_confnum>  (397) 
4

>  <i_i_glide_posenum>  (397) 
6

>  <r_i_glide_eff_state_penalty>  (397) 
0

>  <ligand_id>  (397) 
107

>  <original_smiles>  (397) 
O=C1c2ccccc2C(=O)N1CCN1CCN(CC23CC4CC(CC(C4)C2)C3)C1

>  <smiles>  (397) 
[H]c1c([H])c([H])c2c(c1[H])C(=O)N(C([H])([H])C([H])([H])[N+]1([H])C([H])([H])N(C([H])([H])C34C([H])([H])C5([H])C([H])([H])C([H])(C([H])([H])C([H])(C5([H])[H])C3([H])[H])C4([H])[H])C([H])([H])C1([H])[H])C2=O

$$$$
108:0:0
     RDKit          3D

 41 44  0  0  1  0  0  0  0  0999 V2000
    1.4187   -3.7518   -1.6691 C   0  0  0  0  0  0  0  0  0  0  0  0
    2.5883   -3.2570   -2.4514 C   0  0  0  0  0  0  0  0  0  0  0  0
    2.4220   -3.5298   -3.9204 C   0  0  0  0  0  0  0  0  0  0  0  0
    3.2296   -1.9973   -2.1243 C   0  0  2  0  0  0  0  0  0  0  0  0
    4.2623   -1.1800   -2.8226 C   0  0  1  0  0  0  0  0  0  0  0  0
    3.7974    0.0974   -3.2043 O   0  0  0  0  0  0  0  0  0  0  0  0
    5.4437   -1.0652   -1.8476 C   0  0  0  0  0  0  0  0  0  0  0  0
    5.1800   -1.6018   -0.4310 C   0  0  2  0  0  0  0  0  0  0  0  0
    4.5564   -0.6076    0.6025 C   0  0  0  0  0  0  0  0  0  0  0  0
    5.3342   -1.3671    1.6943 C   0  0  2  0  0  0  0  0  0  0  0  0
    6.3723   -1.5125    0.5437 C   0  0  0  0  0  0  0  0  0  0  0  0
    7.5860   -1.4658    0.4157 O   0  0  0  0  0  0  0  0  0  0  0  0
    4.7757   -2.7414    2.0994 C   0  0  1  0  0  0  0  0  0  0  0  0
    3.9696   -2.5737    3.2474 O   0  0  0  0  0  0  0  0  0  0  0  0
    3.9622   -3.4213    0.9302 C   0  0  1  0  0  0  0  0  0  0  0  0
    2.6264   -2.9714    0.9992 O   0  0  0  0  0  0  0  0  0  0  0  0
    4.6634   -3.0930   -0.4399 C   0  0  2  0  0  0  0  0  0  0  0  0
    5.8249   -4.1238   -0.5219 C   0  0  0  0  0  0  0  0  0  0  0  0
    3.9379   -3.3398   -1.7820 C   0  0  1  0  0  0  0  0  0  0  0  0
    0.5439   -3.6833   -2.3029 H   0  0  0  0  0  0  0  0  0  0  0  0
    1.2099   -3.0795   -0.8612 H   0  0  0  0  0  0  0  0  0  0  0  0
    1.5732   -4.7792   -1.3118 H   0  0  0  0  0  0  0  0  0  0  0  0
    3.2976   -3.2154   -4.4858 H   0  0  0  0  0  0  0  0  0  0  0  0
    1.5495   -2.9956   -4.3033 H   0  0  0  0  0  0  0  0  0  0  0  0
    2.2721   -4.5886   -4.0721 H   0  0  0  0  0  0  0  0  0  0  0  0
    2.7221   -1.4582   -1.3171 H   0  0  0  0  0  0  0  0  0  0  0  0
    4.5960   -1.6553   -3.7409 H   0  0  0  0  0  0  0  0  0  0  0  0
    3.0805    0.3615   -2.6504 H   0  0  0  0  0  0  0  0  0  0  0  0
    6.2751   -1.6182   -2.2877 H   0  0  0  0  0  0  0  0  0  0  0  0
    5.7484   -0.0201   -1.7965 H   0  0  0  0  0  0  0  0  0  0  0  0
    4.8920    0.4271    0.4934 H   0  0  0  0  0  0  0  0  0  0  0  0
    3.4658   -0.6279    0.6976 H   0  0  0  0  0  0  0  0  0  0  0  0
    5.6612   -0.7189    2.5099 H   0  0  0  0  0  0  0  0  0  0  0  0
    5.6034   -3.3988    2.3848 H   0  0  0  0  0  0  0  0  0  0  0  0
    3.2488   -2.0185    2.9900 H   0  0  0  0  0  0  0  0  0  0  0  0
    3.9439   -4.5026    1.0914 H   0  0  0  0  0  0  0  0  0  0  0  0
    2.5557   -2.1376    0.5575 H   0  0  0  0  0  0  0  0  0  0  0  0
    5.4221   -5.1168   -0.7199 H   0  0  0  0  0  0  0  0  0  0  0  0
    6.4113   -4.2110    0.3926 H   0  0  0  0  0  0  0  0  0  0  0  0
    6.5159   -3.8689   -1.3253 H   0  0  0  0  0  0  0  0  0  0  0  0
    4.6448   -3.7147   -2.5222 H   0  0  0  0  0  0  0  0  0  0  0  0
  1  2  1  0
  1 20  1  0
  1 21  1  0
  1 22  1  0
  2 19  1  0
  2  3  1  0
  2  4  1  0
  3 23  1  0
  3 24  1  0
  3 25  1  0
  4 19  1  0
  4  5  1  0
  4 26  1  1
  5  6  1  0
  5  7  1  0
  5 27  1  6
  6 28  1  0
  8  7  1  6
  7 29  1  0
  7 30  1  0
  8 11  1  0
  8 17  1  0
  8  9  1  0
  9 10  1  0
  9 31  1  0
  9 32  1  0
 10 11  1  0
 10 13  1  0
 10 33  1  1
 11 12  2  0
 13 14  1  0
 13 15  1  0
 13 34  1  1
 14 35  1  0
 15 16  1  0
 15 17  1  0
 15 36  1  1
 16 37  1  0
 17 18  1  6
 17 19  1  0
 18 38  1  0
 18 39  1  0
 18 40  1  0
 19 41  1  6
M  END
>  <i_m_ct_stereo_status>  (398) 
1

>  <s_m_source_file>  (398) 
/var/tmp/pbs.5076255.sched01/tmpnhftudgm/135squ2m_dv.sdf

>  <i_m_source_file_index>  (398) 
29

>  <i_lp_mmshare_version>  (398) 
48012

>  <i_f3d_flags>  (398) 
0

>  <s_epik_input>  (398) 
W0NIM11DMShbQ0gzXSlbQ0BIXShbQ0BASF0oW09IXSlbQ0gyXTIpW0NASF0xW0NAXShbQ0BAXTIzNCkoW0NIM10pW0NASF0oW09IXSlbQ0BIXShbT0hdKVtDQEhdKFtDSDJdMylDND1P

>  <s_epik_cmdline>  (398) 
J2VwaWtfcHl0aG9uJywgJy1waHQnLCAnMi4wJywgJy1waCcsICc3LjAnLCAnLXRuJywgJzgnLCAnLW1hJywgJzIwMCcsICctaW1hZScsICc8aW5maWxlLm1hZT4nLCAnLW9tYWUnLCAnPG91dGZpbGUubWFlPic=

>  <r_lp_tautomer_probability>  (398) 
1

>  <r_epik_Ionization_Penalty>  (398) 
7.35649e-07

>  <r_epik_Ionization_Penalty_Charging>  (398) 
0

>  <r_epik_Ionization_Penalty_Neutral>  (398) 
7.35649e-07

>  <r_epik_State_Penalty>  (398) 
-0

>  <r_epik_Charging_Adjusted_Penalty>  (398) 
0

>  <i_epik_Tot_Q>  (398) 
0

>  <i_epik_Tot_abs_Q>  (398) 
0

>  <s_lp_Force_Field>  (398) 
OPLS3e

>  <r_lp_Energy>  (398) 
71.6377

>  <b_lp_Chiralities_Consistent>  (398) 
1

>  <s_lp_Variant>  (398) 
108:0-1

>  <s_i_glide_gridfile>  (398) 
pfpi4k_grid

>  <i_i_glide_lignum>  (398) 
29

>  <i_i_glide_rotatable_bonds>  (398) 
3

>  <r_i_docking_score>  (398) 
-3.31752

>  <r_i_glide_ligand_efficiency>  (398) 
-0.174606

>  <r_i_glide_ligand_efficiency_sa>  (398) 
-0.465919

>  <r_i_glide_ligand_efficiency_ln>  (398) 
-0.841062

>  <r_i_glide_gscore>  (398) 
-3.31752

>  <r_i_glide_lipo>  (398) 
-0.501996

>  <r_i_glide_hbond>  (398) 
-0.113342

>  <r_i_glide_metal>  (398) 
-0

>  <r_i_glide_rewards>  (398) 
-1.67363

>  <r_i_glide_evdw>  (398) 
-13.9449

>  <r_i_glide_ecoul>  (398) 
-2.20869

>  <r_i_glide_erotb>  (398) 
0

>  <r_i_glide_esite>  (398) 
0

>  <r_i_glide_emodel>  (398) 
-15.4662

>  <r_i_glide_energy>  (398) 
-16.1535

>  <r_i_glide_einternal>  (398) 
0.989423

>  <r_i_glide_intrahb_reward>  (398) 
-0

>  <i_i_glide_confnum>  (398) 
1

>  <i_i_glide_posenum>  (398) 
33

>  <r_i_glide_eff_state_penalty>  (398) 
0

>  <ligand_id>  (398) 
108

>  <original_smiles>  (398) 
CC1(C)C2C(O)CC34CC(C3=O)C(O)C(O)C4(C)C21

>  <smiles>  (398) 
[H]OC1([H])C([H])(O[H])C2(C([H])([H])[H])C3([H])C([H])(C([H])(O[H])C([H])([H])C24C(=O)C1([H])C4([H])[H])C3(C([H])([H])[H])C([H])([H])[H]

$$$$
108:0:1
     RDKit          3D

 41 44  0  0  1  0  0  0  0  0999 V2000
    5.0115   -5.1246   -1.1629 C   0  0  0  0  0  0  0  0  0  0  0  0
    5.2226   -3.6989   -1.5452 C   0  0  0  0  0  0  0  0  0  0  0  0
    5.8138   -3.4537   -2.9216 C   0  0  0  0  0  0  0  0  0  0  0  0
    4.2573   -2.7165   -1.1087 C   0  0  2  0  0  0  0  0  0  0  0  0
    4.1444   -1.2427   -1.3903 C   0  0  1  0  0  0  0  0  0  0  0  0
    3.0098   -1.0787   -2.1755 O   0  0  0  0  0  0  0  0  0  0  0  0
    4.2108   -0.4814   -0.0177 C   0  0  0  0  0  0  0  0  0  0  0  0
    4.2178   -1.4369    1.1900 C   0  0  2  0  0  0  0  0  0  0  0  0
    2.8557   -1.8907    1.7621 C   0  0  0  0  0  0  0  0  0  0  0  0
    3.5237   -1.9662    3.1565 C   0  0  2  0  0  0  0  0  0  0  0  0
    4.3289   -0.7755    2.5919 C   0  0  0  0  0  0  0  0  0  0  0  0
    4.8595    0.1911    3.1061 O   0  0  0  0  0  0  0  0  0  0  0  0
    4.4985   -3.1332    3.4103 C   0  0  1  0  0  0  0  0  0  0  0  0
    3.7933   -4.1073    4.1479 O   0  0  0  0  0  0  0  0  0  0  0  0
    5.1073   -3.7039    2.0765 C   0  0  1  0  0  0  0  0  0  0  0  0
    4.2101   -4.6790    1.5821 O   0  0  0  0  0  0  0  0  0  0  0  0
    5.3548   -2.5161    1.0400 C   0  0  2  0  0  0  0  0  0  0  0  0
    6.6839   -1.9106    1.4254 C   0  0  0  0  0  0  0  0  0  0  0  0
    5.6413   -2.8133   -0.4182 C   0  0  1  0  0  0  0  0  0  0  0  0
    5.0171   -5.6759   -2.1117 H   0  0  0  0  0  0  0  0  0  0  0  0
    4.0181   -5.2717   -0.7366 H   0  0  0  0  0  0  0  0  0  0  0  0
    5.8191   -5.4626   -0.5182 H   0  0  0  0  0  0  0  0  0  0  0  0
    5.9207   -2.3731   -3.1089 H   0  0  0  0  0  0  0  0  0  0  0  0
    5.1914   -3.8797   -3.7030 H   0  0  0  0  0  0  0  0  0  0  0  0
    6.8250   -3.8406   -2.9509 H   0  0  0  0  0  0  0  0  0  0  0  0
    3.3800   -3.1579   -0.6267 H   0  0  0  0  0  0  0  0  0  0  0  0
    4.9551   -0.8979   -2.0195 H   0  0  0  0  0  0  0  0  0  0  0  0
    2.2132   -1.1546   -1.6488 H   0  0  0  0  0  0  0  0  0  0  0  0
    5.1236    0.1185    0.0190 H   0  0  0  0  0  0  0  0  0  0  0  0
    3.3665    0.1714    0.0949 H   0  0  0  0  0  0  0  0  0  0  0  0
    2.0896   -1.0983    1.6923 H   0  0  0  0  0  0  0  0  0  0  0  0
    2.4461   -2.8378    1.3991 H   0  0  0  0  0  0  0  0  0  0  0  0
    2.8899   -1.6588    3.9895 H   0  0  0  0  0  0  0  0  0  0  0  0
    5.3235   -2.7895    4.0395 H   0  0  0  0  0  0  0  0  0  0  0  0
    3.4849   -3.6957    4.9394 H   0  0  0  0  0  0  0  0  0  0  0  0
    6.0502   -4.2278    2.2973 H   0  0  0  0  0  0  0  0  0  0  0  0
    3.4496   -4.2185    1.2627 H   0  0  0  0  0  0  0  0  0  0  0  0
    7.4748   -2.6664    1.2440 H   0  0  0  0  0  0  0  0  0  0  0  0
    6.6663   -1.7081    2.4911 H   0  0  0  0  0  0  0  0  0  0  0  0
    6.9482   -0.9958    0.8582 H   0  0  0  0  0  0  0  0  0  0  0  0
    6.4284   -2.1751   -0.8327 H   0  0  0  0  0  0  0  0  0  0  0  0
  1  2  1  0
  1 20  1  0
  1 21  1  0
  1 22  1  0
  2 19  1  0
  2  3  1  0
  2  4  1  0
  3 23  1  0
  3 24  1  0
  3 25  1  0
  4 19  1  0
  4  5  1  0
  4 26  1  1
  5  6  1  0
  5  7  1  0
  5 27  1  6
  6 28  1  0
  8  7  1  6
  7 29  1  0
  7 30  1  0
  8 11  1  0
  8 17  1  0
  8  9  1  0
  9 10  1  0
  9 31  1  0
  9 32  1  0
 10 11  1  0
 10 13  1  0
 10 33  1  1
 11 12  2  0
 13 14  1  0
 13 15  1  0
 13 34  1  1
 14 35  1  0
 15 16  1  0
 15 17  1  0
 15 36  1  1
 16 37  1  0
 17 18  1  1
 17 19  1  0
 18 38  1  0
 18 39  1  0
 18 40  1  0
 19 41  1  6
M  END
>  <i_m_ct_stereo_status>  (399) 
1

>  <s_m_source_file>  (399) 
/var/tmp/pbs.5076255.sched01/tmpnhftudgm/135squ2m_dv.sdf

>  <i_m_source_file_index>  (399) 
29

>  <i_lp_mmshare_version>  (399) 
48012

>  <i_f3d_flags>  (399) 
0

>  <s_epik_input>  (399) 
W0NIM11DMShbQ0gzXSlbQ0BIXShbQ0BASF0oW09IXSlbQ0gyXTIpW0NASF0xW0NAXShbQ0BAXTIzNCkoW0NIM10pW0NASF0oW09IXSlbQ0BIXShbT0hdKVtDQEhdKFtDSDJdMylDND1P

>  <s_epik_cmdline>  (399) 
J2VwaWtfcHl0aG9uJywgJy1waHQnLCAnMi4wJywgJy1waCcsICc3LjAnLCAnLXRuJywgJzgnLCAnLW1hJywgJzIwMCcsICctaW1hZScsICc8aW5maWxlLm1hZT4nLCAnLW9tYWUnLCAnPG91dGZpbGUubWFlPic=

>  <r_lp_tautomer_probability>  (399) 
1

>  <r_epik_Ionization_Penalty>  (399) 
7.35649e-07

>  <r_epik_Ionization_Penalty_Charging>  (399) 
0

>  <r_epik_Ionization_Penalty_Neutral>  (399) 
7.35649e-07

>  <r_epik_State_Penalty>  (399) 
-0

>  <r_epik_Charging_Adjusted_Penalty>  (399) 
0

>  <i_epik_Tot_Q>  (399) 
0

>  <i_epik_Tot_abs_Q>  (399) 
0

>  <s_lp_Force_Field>  (399) 
OPLS3e

>  <r_lp_Energy>  (399) 
71.6377

>  <b_lp_Chiralities_Consistent>  (399) 
1

>  <s_lp_Variant>  (399) 
108:0-1

>  <s_i_glide_gridfile>  (399) 
pfpi4k_grid

>  <i_i_glide_lignum>  (399) 
29

>  <i_i_glide_rotatable_bonds>  (399) 
3

>  <r_i_docking_score>  (399) 
-3.00916

>  <r_i_glide_ligand_efficiency>  (399) 
-0.158377

>  <r_i_glide_ligand_efficiency_sa>  (399) 
-0.422614

>  <r_i_glide_ligand_efficiency_ln>  (399) 
-0.762888

>  <r_i_glide_gscore>  (399) 
-3.00916

>  <r_i_glide_lipo>  (399) 
-0.441137

>  <r_i_glide_hbond>  (399) 
-0.196328

>  <r_i_glide_metal>  (399) 
-0

>  <r_i_glide_rewards>  (399) 
-1.66438

>  <r_i_glide_evdw>  (399) 
-4.43099

>  <r_i_glide_ecoul>  (399) 
-3.23844

>  <r_i_glide_erotb>  (399) 
0

>  <r_i_glide_esite>  (399) 
0

>  <r_i_glide_emodel>  (399) 
-6.31308

>  <r_i_glide_energy>  (399) 
-7.66943

>  <r_i_glide_einternal>  (399) 
0.560729

>  <r_i_glide_intrahb_reward>  (399) 
-0

>  <i_i_glide_confnum>  (399) 
2

>  <i_i_glide_posenum>  (399) 
14

>  <r_i_glide_eff_state_penalty>  (399) 
0

>  <ligand_id>  (399) 
108

>  <original_smiles>  (399) 
CC1(C)C2C(O)CC34CC(C3=O)C(O)C(O)C4(C)C21

>  <smiles>  (399) 
[H]OC1([H])C([H])(O[H])C2(C([H])([H])[H])C3([H])C([H])(C([H])(O[H])C([H])([H])C24C(=O)C1([H])C4([H])[H])C3(C([H])([H])[H])C([H])([H])[H]

$$$$
108:0:2
     RDKit          3D

 41 44  0  0  1  0  0  0  0  0999 V2000
    1.2935   -3.6857   -1.6484 C   0  0  0  0  0  0  0  0  0  0  0  0
    2.6136   -3.3654   -2.2605 C   0  0  0  0  0  0  0  0  0  0  0  0
    2.5375   -3.4388   -3.7814 C   0  0  0  0  0  0  0  0  0  0  0  0
    3.4766   -2.3390   -1.6775 C   0  0  2  0  0  0  0  0  0  0  0  0
    4.7496   -1.6837   -2.1691 C   0  0  1  0  0  0  0  0  0  0  0  0
    4.5351   -0.3058   -2.3289 O   0  0  0  0  0  0  0  0  0  0  0  0
    5.8790   -1.9746   -1.1338 C   0  0  0  0  0  0  0  0  0  0  0  0
    5.3385   -2.6518    0.1545 C   0  0  2  0  0  0  0  0  0  0  0  0
    4.8483   -1.6866    1.2749 C   0  0  0  0  0  0  0  0  0  0  0  0
    5.3436   -2.7432    2.2868 C   0  0  2  0  0  0  0  0  0  0  0  0
    6.4153   -2.9957    1.1865 C   0  0  0  0  0  0  0  0  0  0  0  0
    7.5831   -3.4025    1.1106 O   0  0  0  0  0  0  0  0  0  0  0  0
    4.4448   -3.9910    2.4604 C   0  0  1  0  0  0  0  0  0  0  0  0
    3.5998   -3.7955    3.5798 O   0  0  0  0  0  0  0  0  0  0  0  0
    3.6113   -4.3066    1.1573 C   0  0  1  0  0  0  0  0  0  0  0  0
    2.4001   -3.5862    1.2042 O   0  0  0  0  0  0  0  0  0  0  0  0
    4.4870   -3.9621   -0.1080 C   0  0  2  0  0  0  0  0  0  0  0  0
    5.3886   -5.2207   -0.2430 C   0  0  0  0  0  0  0  0  0  0  0  0
    3.8562   -3.8313   -1.5190 C   0  0  1  0  0  0  0  0  0  0  0  0
    0.5014   -3.4530   -2.3618 H   0  0  0  0  0  0  0  0  0  0  0  0
    1.1346   -3.0605   -0.7875 H   0  0  0  0  0  0  0  0  0  0  0  0
    1.2210   -4.7344   -1.3829 H   0  0  0  0  0  0  0  0  0  0  0  0
    3.5046   -3.2614   -4.2452 H   0  0  0  0  0  0  0  0  0  0  0  0
    1.8174   -2.7227   -4.1679 H   0  0  0  0  0  0  0  0  0  0  0  0
    2.2006   -4.4349   -4.0677 H   0  0  0  0  0  0  0  0  0  0  0  0
    3.0133   -1.8078   -0.8311 H   0  0  0  0  0  0  0  0  0  0  0  0
    5.0363   -2.0680   -3.1497 H   0  0  0  0  0  0  0  0  0  0  0  0
    3.6581   -0.1685   -2.6610 H   0  0  0  0  0  0  0  0  0  0  0  0
    6.6447   -2.5987   -1.6009 H   0  0  0  0  0  0  0  0  0  0  0  0
    6.3833   -1.0479   -0.8552 H   0  0  0  0  0  0  0  0  0  0  0  0
    5.3949   -0.7377    1.3257 H   0  0  0  0  0  0  0  0  0  0  0  0
    3.7753   -1.4792    1.2931 H   0  0  0  0  0  0  0  0  0  0  0  0
    5.7344   -2.3130    3.2088 H   0  0  0  0  0  0  0  0  0  0  0  0
    5.0780   -4.8503    2.6975 H   0  0  0  0  0  0  0  0  0  0  0  0
    3.0556   -3.0515    3.3830 H   0  0  0  0  0  0  0  0  0  0  0  0
    3.3488   -5.3676    1.1508 H   0  0  0  0  0  0  0  0  0  0  0  0
    2.5982   -2.6930    0.9832 H   0  0  0  0  0  0  0  0  0  0  0  0
    4.8252   -6.0566   -0.6551 H   0  0  0  0  0  0  0  0  0  0  0  0
    5.8331   -5.5697    0.6924 H   0  0  0  0  0  0  0  0  0  0  0  0
    6.2131   -5.0208   -0.9031 H   0  0  0  0  0  0  0  0  0  0  0  0
    4.5535   -4.2520   -2.2551 H   0  0  0  0  0  0  0  0  0  0  0  0
  1  2  1  0
  1 20  1  0
  1 21  1  0
  1 22  1  0
  2 19  1  0
  2  3  1  0
  2  4  1  0
  3 23  1  0
  3 24  1  0
  3 25  1  0
  4 19  1  0
  4  5  1  0
  4 26  1  1
  5  6  1  0
  5  7  1  0
  5 27  1  6
  6 28  1  0
  8  7  1  6
  7 29  1  0
  7 30  1  0
  8 11  1  0
  8 17  1  0
  8  9  1  0
  9 10  1  0
  9 31  1  0
  9 32  1  0
 10 11  1  0
 10 13  1  0
 10 33  1  1
 11 12  2  0
 13 14  1  0
 13 15  1  0
 13 34  1  1
 14 35  1  0
 15 16  1  0
 15 17  1  0
 15 36  1  6
 16 37  1  0
 17 18  1  6
 17 19  1  0
 18 38  1  0
 18 39  1  0
 18 40  1  0
 19 41  1  6
M  END
>  <i_m_ct_stereo_status>  (400) 
1

>  <s_m_source_file>  (400) 
/var/tmp/pbs.5076255.sched01/tmpnhftudgm/135squ2m_dv.sdf

>  <i_m_source_file_index>  (400) 
29

>  <i_lp_mmshare_version>  (400) 
48012

>  <i_f3d_flags>  (400) 
0

>  <s_epik_input>  (400) 
W0NIM11DMShbQ0gzXSlbQ0BIXShbQ0BASF0oW09IXSlbQ0gyXTIpW0NASF0xW0NAXShbQ0BAXTIzNCkoW0NIM10pW0NASF0oW09IXSlbQ0BIXShbT0hdKVtDQEhdKFtDSDJdMylDND1P

>  <s_epik_cmdline>  (400) 
J2VwaWtfcHl0aG9uJywgJy1waHQnLCAnMi4wJywgJy1waCcsICc3LjAnLCAnLXRuJywgJzgnLCAnLW1hJywgJzIwMCcsICctaW1hZScsICc8aW5maWxlLm1hZT4nLCAnLW9tYWUnLCAnPG91dGZpbGUubWFlPic=

>  <r_lp_tautomer_probability>  (400) 
1

>  <r_epik_Ionization_Penalty>  (400) 
7.35649e-07

>  <r_epik_Ionization_Penalty_Charging>  (400) 
0

>  <r_epik_Ionization_Penalty_Neutral>  (400) 
7.35649e-07

>  <r_epik_State_Penalty>  (400) 
-0

>  <r_epik_Charging_Adjusted_Penalty>  (400) 
0

>  <i_epik_Tot_Q>  (400) 
0

>  <i_epik_Tot_abs_Q>  (400) 
0

>  <s_lp_Force_Field>  (400) 
OPLS3e

>  <r_lp_Energy>  (400) 
71.6377

>  <b_lp_Chiralities_Consistent>  (400) 
1

>  <s_lp_Variant>  (400) 
108:0-1

>  <s_i_glide_gridfile>  (400) 
pfpi4k_grid

>  <i_i_glide_lignum>  (400) 
29

>  <i_i_glide_rotatable_bonds>  (400) 
3

>  <r_i_docking_score>  (400) 
-2.42186

>  <r_i_glide_ligand_efficiency>  (400) 
-0.127467

>  <r_i_glide_ligand_efficiency_sa>  (400) 
-0.340132

>  <r_i_glide_ligand_efficiency_ln>  (400) 
-0.613994

>  <r_i_glide_gscore>  (400) 
-2.42186

>  <r_i_glide_lipo>  (400) 
-0.408671

>  <r_i_glide_hbond>  (400) 
0

>  <r_i_glide_metal>  (400) 
-0

>  <r_i_glide_rewards>  (400) 
-1.70232

>  <r_i_glide_evdw>  (400) 
-6.52493

>  <r_i_glide_ecoul>  (400) 
0.102513

>  <r_i_glide_erotb>  (400) 
0

>  <r_i_glide_esite>  (400) 
0

>  <r_i_glide_emodel>  (400) 
-5.92036

>  <r_i_glide_energy>  (400) 
-6.42242

>  <r_i_glide_einternal>  (400) 
0.763286

>  <r_i_glide_intrahb_reward>  (400) 
-0

>  <i_i_glide_confnum>  (400) 
1

>  <i_i_glide_posenum>  (400) 
1

>  <r_i_glide_eff_state_penalty>  (400) 
0

>  <ligand_id>  (400) 
108

>  <original_smiles>  (400) 
CC1(C)C2C(O)CC34CC(C3=O)C(O)C(O)C4(C)C21

>  <smiles>  (400) 
[H]OC1([H])C([H])(O[H])C2(C([H])([H])[H])C3([H])C([H])(C([H])(O[H])C([H])([H])C24C(=O)C1([H])C4([H])[H])C3(C([H])([H])[H])C([H])([H])[H]

$$$$
109:0:0
     RDKit          3D

 46 50  0  0  1  0  0  0  0  0999 V2000
   -1.7521    1.1857    5.5147 C   0  0  0  0  0  0  0  0  0  0  0  0
   -2.0348   -0.0196    6.0772 N   0  0  0  0  0  0  0  0  0  0  0  0
   -1.0244   -0.7582    5.6500 C   0  0  0  0  0  0  0  0  0  0  0  0
   -0.7437   -2.0690    5.8721 N   0  0  0  0  0  0  0  0  0  0  0  0
    0.3878   -2.5167    5.2744 C   0  0  0  0  0  0  0  0  0  0  0  0
    1.2327   -1.6936    4.4817 C   0  0  0  0  0  0  0  0  0  0  0  0
    2.3866   -2.2220    3.8662 N   0  0  0  0  0  0  0  0  0  0  0  0
    2.5101   -3.6571    3.6570 C   0  0  0  0  0  0  0  0  0  0  0  0
    2.7594   -3.9368    2.1742 C   0  0  0  0  0  0  0  0  0  0  0  0
    3.9749   -3.1357    1.6288 C   0  0  0  0  0  0  0  0  0  0  0  0
    5.2611   -3.6764    2.3049 C   0  0  0  0  0  0  0  0  0  0  0  0
    5.7794   -4.7642    1.3556 C   0  0  0  0  0  0  0  0  0  0  0  0
    4.8317   -4.7559    0.1389 C   0  0  0  0  0  0  0  0  0  0  0  0
    4.1813   -3.4038    0.1760 N   0  0  1  0  0  0  0  0  0  0  0  0
    3.0119   -3.2674   -0.7393 C   0  0  0  0  0  0  0  0  0  0  0  0
    3.4020   -2.6197   -2.0357 C   0  0  0  0  0  0  0  0  0  0  0  0
    3.1792   -3.0619   -3.3146 C   0  0  0  0  0  0  0  0  0  0  0  0
    3.6494   -2.2438   -4.3351 N   0  0  0  0  0  0  0  0  0  0  0  0
    4.1802   -1.1500   -3.8097 C   0  0  0  0  0  0  0  0  0  0  0  0
    4.2074   -1.0722   -2.0623 S   0  0  0  0  0  0  0  0  0  0  0  0
    3.7687   -1.6167    1.9035 C   0  0  0  0  0  0  0  0  0  0  0  0
    3.4815   -1.3621    3.3946 C   0  0  0  0  0  0  0  0  0  0  0  0
    0.9412   -0.3984    4.2553 N   0  0  0  0  0  0  0  0  0  0  0  0
   -0.1701    0.0098    4.8548 N   0  0  0  0  0  0  0  0  0  0  0  0
   -0.6538    1.2647    4.7791 N   0  0  0  0  0  0  0  0  0  0  0  0
   -2.3886    2.0366    5.6580 H   0  0  0  0  0  0  0  0  0  0  0  0
    0.6202   -3.5501    5.4900 H   0  0  0  0  0  0  0  0  0  0  0  0
    3.3266   -4.0295    4.2802 H   0  0  0  0  0  0  0  0  0  0  0  0
    1.6190   -4.2345    3.9137 H   0  0  0  0  0  0  0  0  0  0  0  0
    2.9195   -5.0116    2.0621 H   0  0  0  0  0  0  0  0  0  0  0  0
    1.8430   -3.7015    1.6271 H   0  0  0  0  0  0  0  0  0  0  0  0
    6.0144   -2.8898    2.4146 H   0  0  0  0  0  0  0  0  0  0  0  0
    5.0801   -4.0915    3.2951 H   0  0  0  0  0  0  0  0  0  0  0  0
    6.8155   -4.5534    1.0738 H   0  0  0  0  0  0  0  0  0  0  0  0
    5.7512   -5.7385    1.8505 H   0  0  0  0  0  0  0  0  0  0  0  0
    5.3302   -4.9871   -0.8103 H   0  0  0  0  0  0  0  0  0  0  0  0
    4.0503   -5.5084    0.3027 H   0  0  0  0  0  0  0  0  0  0  0  0
    2.5406   -4.2464   -0.9104 H   0  0  0  0  0  0  0  0  0  0  0  0
    2.2303   -2.6577   -0.2748 H   0  0  0  0  0  0  0  0  0  0  0  0
    2.6725   -3.9741   -3.5733 H   0  0  0  0  0  0  0  0  0  0  0  0
    4.5741   -0.3898   -4.4508 H   0  0  0  0  0  0  0  0  0  0  0  0
    4.6433   -1.0438    1.5885 H   0  0  0  0  0  0  0  0  0  0  0  0
    2.9385   -1.2140    1.3217 H   0  0  0  0  0  0  0  0  0  0  0  0
    3.3029   -0.2996    3.5593 H   0  0  0  0  0  0  0  0  0  0  0  0
    4.3743   -1.5980    3.9752 H   0  0  0  0  0  0  0  0  0  0  0  0
    4.8716   -2.7393   -0.1346 H   0  0  0  0  0  0  0  0  0  0  0  0
  1 25  2  0
  1  2  1  0
  1 26  1  0
  2  3  2  0
  3 24  1  0
  3  4  1  0
  4  5  2  0
  5  6  1  0
  5 27  1  0
  6  7  1  0
  6 23  2  0
  7 22  1  0
  7  8  1  0
  8  9  1  0
  8 28  1  0
  8 29  1  0
  9 10  1  0
  9 30  1  0
  9 31  1  0
 10 14  1  0
 10 11  1  0
 10 21  1  0
 11 12  1  0
 11 32  1  0
 11 33  1  0
 12 13  1  0
 12 34  1  0
 12 35  1  0
 13 14  1  0
 13 36  1  0
 13 37  1  0
 14 15  1  0
 14 46  1  6
 15 16  1  0
 15 38  1  0
 15 39  1  0
 16 20  1  0
 16 17  2  0
 17 18  1  0
 17 40  1  0
 18 19  2  0
 19 20  1  0
 19 41  1  0
 21 22  1  0
 21 42  1  0
 21 43  1  0
 22 44  1  0
 22 45  1  0
 23 24  1  0
 24 25  1  0
M  CHG  1  14   1
M  END
>  <i_m_ct_stereo_status>  (401) 
1

>  <s_m_source_file>  (401) 
/var/tmp/pbs.5076255.sched01/tmpnhftudgm/135squ2m_dv.sdf

>  <i_m_source_file_index>  (401) 
30

>  <i_lp_mmshare_version>  (401) 
48012

>  <i_f3d_flags>  (401) 
0

>  <s_epik_input>  (401) 
bjFbY0hdbm4oYzEyKW5jKFtjSF1uMilOKFtDSDJdW0NIMl0zKVtDSDJdW0NIMl1DMzRbQ0gyXVtDSDJdW0NIMl1ONFtDSDJdYzVbY0hdbltjSF1zNQ==

>  <s_epik_cmdline>  (401) 
J2VwaWtfcHl0aG9uJywgJy1waHQnLCAnMi4wJywgJy1waCcsICc3LjAnLCAnLXRuJywgJzgnLCAnLW1hJywgJzIwMCcsICctaW1hZScsICc8aW5maWxlLm1hZT4nLCAnLW9tYWUnLCAnPG91dGZpbGUubWFlPic=

>  <r_epik_Ionization_Penalty>  (401) 
0.146375

>  <r_epik_Ionization_Penalty_Charging>  (401) 
0.146362

>  <r_epik_Ionization_Penalty_Neutral>  (401) 
1.28917e-05

>  <r_epik_State_Penalty>  (401) 
0.135658

>  <r_epik_Charging_Adjusted_Penalty>  (401) 
0.282021

>  <i_epik_Tot_Q>  (401) 
1

>  <i_epik_Tot_abs_Q>  (401) 
1

>  <s_lp_Force_Field>  (401) 
OPLS3e

>  <r_lp_Energy>  (401) 
44.5518

>  <b_lp_Chiralities_Consistent>  (401) 
1

>  <s_lp_Variant>  (401) 
109:0-1

>  <s_i_glide_gridfile>  (401) 
pfpi4k_grid

>  <i_i_glide_lignum>  (401) 
30

>  <i_i_glide_rotatable_bonds>  (401) 
3

>  <r_i_docking_score>  (401) 
-4.32947

>  <r_i_glide_ligand_efficiency>  (401) 
-0.173179

>  <r_i_glide_ligand_efficiency_sa>  (401) 
-0.506378

>  <r_i_glide_ligand_efficiency_ln>  (401) 
-1.02621

>  <r_i_glide_gscore>  (401) 
-4.32947

>  <r_i_glide_lipo>  (401) 
-0.456068

>  <r_i_glide_hbond>  (401) 
-0.48

>  <r_i_glide_metal>  (401) 
-0

>  <r_i_glide_rewards>  (401) 
-0.97188

>  <r_i_glide_evdw>  (401) 
-28.7584

>  <r_i_glide_ecoul>  (401) 
-8.90579

>  <r_i_glide_erotb>  (401) 
0.449482

>  <r_i_glide_esite>  (401) 
-0.0972125

>  <r_i_glide_emodel>  (401) 
-47.1307

>  <r_i_glide_energy>  (401) 
-37.6642

>  <r_i_glide_einternal>  (401) 
2.07541

>  <r_i_glide_intrahb_reward>  (401) 
-0

>  <i_i_glide_confnum>  (401) 
1

>  <i_i_glide_posenum>  (401) 
21

>  <r_i_glide_eff_state_penalty>  (401) 
0

>  <ligand_id>  (401) 
109

>  <original_smiles>  (401) 
c1nc2ncc(N3CCC4(CCCN4Cc4cncs4)CC3)nn2n1

>  <smiles>  (401) 
[H]c1nc2nc([H])c(N3C([H])([H])C([H])([H])C4(C([H])([H])C3([H])[H])C([H])([H])C([H])([H])C([H])([H])[N+]4([H])C([H])([H])c3sc([H])nc3[H])nn2n1

$$$$
109:0:1
     RDKit          3D

 46 50  0  0  1  0  0  0  0  0999 V2000
   -1.5616   -8.6908    2.9421 C   0  0  0  0  0  0  0  0  0  0  0  0
   -0.6289   -9.6394    2.8806 N   0  0  0  0  0  0  0  0  0  0  0  0
    0.5118   -8.9122    2.6914 C   0  0  0  0  0  0  0  0  0  0  0  0
    1.7635   -9.3121    2.5597 N   0  0  0  0  0  0  0  0  0  0  0  0
    2.6577   -8.2996    2.3777 C   0  0  0  0  0  0  0  0  0  0  0  0
    2.2761   -6.9344    2.3424 C   0  0  0  0  0  0  0  0  0  0  0  0
    3.2273   -5.9258    2.1380 N   0  0  0  0  0  0  0  0  0  0  0  0
    4.5242   -6.2692    1.5620 C   0  0  0  0  0  0  0  0  0  0  0  0
    4.7634   -5.4074    0.3138 C   0  0  0  0  0  0  0  0  0  0  0  0
    4.6127   -3.8918    0.6120 C   0  0  0  0  0  0  0  0  0  0  0  0
    5.7637   -3.4286    1.5488 C   0  0  0  0  0  0  0  0  0  0  0  0
    6.8837   -2.9410    0.6124 C   0  0  0  0  0  0  0  0  0  0  0  0
    6.3110   -3.0466   -0.8099 C   0  0  0  0  0  0  0  0  0  0  0  0
    4.8315   -3.0967   -0.6241 N   0  0  1  0  0  0  0  0  0  0  0  0
    4.0650   -3.4700   -1.8620 C   0  0  0  0  0  0  0  0  0  0  0  0
    3.9116   -2.2846   -2.7810 C   0  0  0  0  0  0  0  0  0  0  0  0
    3.4693   -2.3126   -4.0842 C   0  0  0  0  0  0  0  0  0  0  0  0
    3.4527   -1.0714   -4.7009 N   0  0  0  0  0  0  0  0  0  0  0  0
    3.8015   -0.0979   -3.8719 C   0  0  0  0  0  0  0  0  0  0  0  0
    4.2498   -0.6580   -2.2852 S   0  0  0  0  0  0  0  0  0  0  0  0
    3.2183   -3.6187    1.2332 C   0  0  0  0  0  0  0  0  0  0  0  0
    2.9768   -4.5157    2.4685 C   0  0  0  0  0  0  0  0  0  0  0  0
    0.9950   -6.5418    2.4644 N   0  0  0  0  0  0  0  0  0  0  0  0
    0.1470   -7.5667    2.6469 N   0  0  0  0  0  0  0  0  0  0  0  0
   -1.1712   -7.4189    2.8073 N   0  0  0  0  0  0  0  0  0  0  0  0
   -2.5874   -8.9318    3.0895 H   0  0  0  0  0  0  0  0  0  0  0  0
    3.6789   -8.6329    2.3130 H   0  0  0  0  0  0  0  0  0  0  0  0
    5.2948   -6.1158    2.3185 H   0  0  0  0  0  0  0  0  0  0  0  0
    4.6214   -7.3034    1.2029 H   0  0  0  0  0  0  0  0  0  0  0  0
    5.7598   -5.6610   -0.0501 H   0  0  0  0  0  0  0  0  0  0  0  0
    4.0600   -5.7456   -0.4621 H   0  0  0  0  0  0  0  0  0  0  0  0
    5.4395   -2.5972    2.1992 H   0  0  0  0  0  0  0  0  0  0  0  0
    6.1513   -4.2156    2.2033 H   0  0  0  0  0  0  0  0  0  0  0  0
    7.1754   -1.9158    0.8680 H   0  0  0  0  0  0  0  0  0  0  0  0
    7.7405   -3.5896    0.7142 H   0  0  0  0  0  0  0  0  0  0  0  0
    6.6629   -2.2407   -1.4887 H   0  0  0  0  0  0  0  0  0  0  0  0
    6.6015   -3.9998   -1.2624 H   0  0  0  0  0  0  0  0  0  0  0  0
    4.5637   -4.2851   -2.3873 H   0  0  0  0  0  0  0  0  0  0  0  0
    3.0715   -3.8105   -1.6084 H   0  0  0  0  0  0  0  0  0  0  0  0
    3.1614   -3.1769   -4.6367 H   0  0  0  0  0  0  0  0  0  0  0  0
    3.8189    0.9308   -4.1907 H   0  0  0  0  0  0  0  0  0  0  0  0
    3.1044   -2.5665    1.5114 H   0  0  0  0  0  0  0  0  0  0  0  0
    2.4010   -3.8096    0.5292 H   0  0  0  0  0  0  0  0  0  0  0  0
    1.9765   -4.3323    2.8712 H   0  0  0  0  0  0  0  0  0  0  0  0
    3.6635   -4.2139    3.2602 H   0  0  0  0  0  0  0  0  0  0  0  0
    4.5831   -2.1353   -0.3628 H   0  0  0  0  0  0  0  0  0  0  0  0
  1 25  2  0
  1  2  1  0
  1 26  1  0
  2  3  2  0
  3 24  1  0
  3  4  1  0
  4  5  2  0
  5  6  1  0
  5 27  1  0
  6  7  1  0
  6 23  2  0
  7 22  1  0
  7  8  1  0
  8  9  1  0
  8 28  1  0
  8 29  1  0
  9 10  1  0
  9 30  1  0
  9 31  1  0
 10 14  1  0
 10 11  1  0
 10 21  1  0
 11 12  1  0
 11 32  1  0
 11 33  1  0
 12 13  1  0
 12 34  1  0
 12 35  1  0
 13 14  1  0
 13 36  1  0
 13 37  1  0
 14 15  1  0
 14 46  1  1
 15 16  1  0
 15 38  1  0
 15 39  1  0
 16 20  1  0
 16 17  2  0
 17 18  1  0
 17 40  1  0
 18 19  2  0
 19 20  1  0
 19 41  1  0
 21 22  1  0
 21 42  1  0
 21 43  1  0
 22 44  1  0
 22 45  1  0
 23 24  1  0
 24 25  1  0
M  CHG  1  14   1
M  END
>  <i_m_ct_stereo_status>  (402) 
1

>  <s_m_source_file>  (402) 
/var/tmp/pbs.5076255.sched01/tmpnhftudgm/135squ2m_dv.sdf

>  <i_m_source_file_index>  (402) 
30

>  <i_lp_mmshare_version>  (402) 
48012

>  <i_f3d_flags>  (402) 
0

>  <s_epik_input>  (402) 
bjFbY0hdbm4oYzEyKW5jKFtjSF1uMilOKFtDSDJdW0NIMl0zKVtDSDJdW0NIMl1DMzRbQ0gyXVtDSDJdW0NIMl1ONFtDSDJdYzVbY0hdbltjSF1zNQ==

>  <s_epik_cmdline>  (402) 
J2VwaWtfcHl0aG9uJywgJy1waHQnLCAnMi4wJywgJy1waCcsICc3LjAnLCAnLXRuJywgJzgnLCAnLW1hJywgJzIwMCcsICctaW1hZScsICc8aW5maWxlLm1hZT4nLCAnLW9tYWUnLCAnPG91dGZpbGUubWFlPic=

>  <r_epik_Ionization_Penalty>  (402) 
0.146375

>  <r_epik_Ionization_Penalty_Charging>  (402) 
0.146362

>  <r_epik_Ionization_Penalty_Neutral>  (402) 
1.28917e-05

>  <r_epik_State_Penalty>  (402) 
0.135658

>  <r_epik_Charging_Adjusted_Penalty>  (402) 
0.282021

>  <i_epik_Tot_Q>  (402) 
1

>  <i_epik_Tot_abs_Q>  (402) 
1

>  <s_lp_Force_Field>  (402) 
OPLS3e

>  <r_lp_Energy>  (402) 
44.5518

>  <b_lp_Chiralities_Consistent>  (402) 
1

>  <s_lp_Variant>  (402) 
109:0-1

>  <s_i_glide_gridfile>  (402) 
pfpi4k_grid

>  <i_i_glide_lignum>  (402) 
30

>  <i_i_glide_rotatable_bonds>  (402) 
3

>  <r_i_docking_score>  (402) 
-4.11995

>  <r_i_glide_ligand_efficiency>  (402) 
-0.164798

>  <r_i_glide_ligand_efficiency_sa>  (402) 
-0.481873

>  <r_i_glide_ligand_efficiency_ln>  (402) 
-0.976552

>  <r_i_glide_gscore>  (402) 
-4.11995

>  <r_i_glide_lipo>  (402) 
-0.624977

>  <r_i_glide_hbond>  (402) 
-0.325676

>  <r_i_glide_metal>  (402) 
-0

>  <r_i_glide_rewards>  (402) 
-0.982981

>  <r_i_glide_evdw>  (402) 
-36.2863

>  <r_i_glide_ecoul>  (402) 
-4.79953

>  <r_i_glide_erotb>  (402) 
0.449482

>  <r_i_glide_esite>  (402) 
-0.101558

>  <r_i_glide_emodel>  (402) 
-49.4709

>  <r_i_glide_energy>  (402) 
-41.0858

>  <r_i_glide_einternal>  (402) 
3.15518

>  <r_i_glide_intrahb_reward>  (402) 
-0

>  <i_i_glide_confnum>  (402) 
1

>  <i_i_glide_posenum>  (402) 
26

>  <r_i_glide_eff_state_penalty>  (402) 
0

>  <ligand_id>  (402) 
109

>  <original_smiles>  (402) 
c1nc2ncc(N3CCC4(CCCN4Cc4cncs4)CC3)nn2n1

>  <smiles>  (402) 
[H]c1nc2nc([H])c(N3C([H])([H])C([H])([H])C4(C([H])([H])C3([H])[H])C([H])([H])C([H])([H])C([H])([H])[N+]4([H])C([H])([H])c3sc([H])nc3[H])nn2n1

$$$$
109:0:2
     RDKit          3D

 46 50  0  0  1  0  0  0  0  0999 V2000
   -1.5527   -8.8996    2.8345 C   0  0  0  0  0  0  0  0  0  0  0  0
   -0.6139   -9.8617    2.7862 N   0  0  0  0  0  0  0  0  0  0  0  0
    0.5382   -9.1345    2.6524 C   0  0  0  0  0  0  0  0  0  0  0  0
    1.7904   -9.5493    2.5550 N   0  0  0  0  0  0  0  0  0  0  0  0
    2.6886   -8.5387    2.4257 C   0  0  0  0  0  0  0  0  0  0  0  0
    2.3253   -7.1644    2.4032 C   0  0  0  0  0  0  0  0  0  0  0  0
    3.2904   -6.1671    2.2519 N   0  0  0  0  0  0  0  0  0  0  0  0
    4.5693   -6.4984    1.6265 C   0  0  0  0  0  0  0  0  0  0  0  0
    4.8018   -5.5633    0.4350 C   0  0  0  0  0  0  0  0  0  0  0  0
    4.6801   -4.0689    0.8350 C   0  0  0  0  0  0  0  0  0  0  0  0
    5.8575   -3.6975    1.7765 C   0  0  0  0  0  0  0  0  0  0  0  0
    6.9751   -3.1778    0.8581 C   0  0  0  0  0  0  0  0  0  0  0  0
    6.3710   -3.1746   -0.5514 C   0  0  0  0  0  0  0  0  0  0  0  0
    4.9059   -3.1957   -0.3464 N   0  0  1  0  0  0  0  0  0  0  0  0
    4.1090   -3.4691   -1.5840 C   0  0  0  0  0  0  0  0  0  0  0  0
    3.9828   -2.2391   -2.4419 C   0  0  0  0  0  0  0  0  0  0  0  0
    4.5096   -0.9822   -2.2241 C   0  0  0  0  0  0  0  0  0  0  0  0
    4.2091   -0.0736   -3.2274 N   0  0  0  0  0  0  0  0  0  0  0  0
    3.4185   -0.5986   -4.1623 C   0  0  0  0  0  0  0  0  0  0  0  0
    3.0353   -2.2818   -3.8997 S   0  0  0  0  0  0  0  0  0  0  0  0
    3.3074   -3.8090    1.5001 C   0  0  0  0  0  0  0  0  0  0  0  0
    3.0718   -4.7783    2.6763 C   0  0  0  0  0  0  0  0  0  0  0  0
    1.0375   -6.7680    2.4966 N   0  0  0  0  0  0  0  0  0  0  0  0
    0.1795   -7.7887    2.6240 N   0  0  0  0  0  0  0  0  0  0  0  0
   -1.1459   -7.6314    2.7386 N   0  0  0  0  0  0  0  0  0  0  0  0
   -2.5883   -9.1366    2.9395 H   0  0  0  0  0  0  0  0  0  0  0  0
    3.7128   -8.8684    2.3777 H   0  0  0  0  0  0  0  0  0  0  0  0
    5.3512   -6.4147    2.3768 H   0  0  0  0  0  0  0  0  0  0  0  0
    4.6300   -7.5123    1.2167 H   0  0  0  0  0  0  0  0  0  0  0  0
    5.7873   -5.8035    0.0406 H   0  0  0  0  0  0  0  0  0  0  0  0
    4.0821   -5.8282   -0.3502 H   0  0  0  0  0  0  0  0  0  0  0  0
    5.5687   -2.9121    2.4935 H   0  0  0  0  0  0  0  0  0  0  0  0
    6.2347   -4.5334    2.3686 H   0  0  0  0  0  0  0  0  0  0  0  0
    7.2835   -2.1771    1.1757 H   0  0  0  0  0  0  0  0  0  0  0  0
    7.8263   -3.8412    0.9061 H   0  0  0  0  0  0  0  0  0  0  0  0
    6.7478   -2.3491   -1.1846 H   0  0  0  0  0  0  0  0  0  0  0  0
    6.6336   -4.1046   -1.0654 H   0  0  0  0  0  0  0  0  0  0  0  0
    4.5704   -4.2656   -2.1655 H   0  0  0  0  0  0  0  0  0  0  0  0
    3.1102   -3.7998   -1.3400 H   0  0  0  0  0  0  0  0  0  0  0  0
    5.1022   -0.6574   -1.4052 H   0  0  0  0  0  0  0  0  0  0  0  0
    3.0695    0.0146   -4.9730 H   0  0  0  0  0  0  0  0  0  0  0  0
    3.2232   -2.7752    1.8485 H   0  0  0  0  0  0  0  0  0  0  0  0
    2.4789   -3.9375    0.7951 H   0  0  0  0  0  0  0  0  0  0  0  0
    2.0807   -4.6127    3.1056 H   0  0  0  0  0  0  0  0  0  0  0  0
    3.7764   -4.5450    3.4736 H   0  0  0  0  0  0  0  0  0  0  0  0
    4.6502   -2.2533   -0.0244 H   0  0  0  0  0  0  0  0  0  0  0  0
  1 25  2  0
  1  2  1  0
  1 26  1  0
  2  3  2  0
  3 24  1  0
  3  4  1  0
  4  5  2  0
  5  6  1  0
  5 27  1  0
  6  7  1  0
  6 23  2  0
  7 22  1  0
  7  8  1  0
  8  9  1  0
  8 28  1  0
  8 29  1  0
  9 10  1  0
  9 30  1  0
  9 31  1  0
 10 14  1  0
 10 11  1  0
 10 21  1  0
 11 12  1  0
 11 32  1  0
 11 33  1  0
 12 13  1  0
 12 34  1  0
 12 35  1  0
 13 14  1  0
 13 36  1  0
 13 37  1  0
 14 15  1  0
 14 46  1  1
 15 16  1  0
 15 38  1  0
 15 39  1  0
 16 20  1  0
 16 17  2  0
 17 18  1  0
 17 40  1  0
 18 19  2  0
 19 20  1  0
 19 41  1  0
 21 22  1  0
 21 42  1  0
 21 43  1  0
 22 44  1  0
 22 45  1  0
 23 24  1  0
 24 25  1  0
M  CHG  1  14   1
M  END
>  <i_m_ct_stereo_status>  (403) 
1

>  <s_m_source_file>  (403) 
/var/tmp/pbs.5076255.sched01/tmpnhftudgm/135squ2m_dv.sdf

>  <i_m_source_file_index>  (403) 
30

>  <i_lp_mmshare_version>  (403) 
48012

>  <i_f3d_flags>  (403) 
0

>  <s_epik_input>  (403) 
bjFbY0hdbm4oYzEyKW5jKFtjSF1uMilOKFtDSDJdW0NIMl0zKVtDSDJdW0NIMl1DMzRbQ0gyXVtDSDJdW0NIMl1ONFtDSDJdYzVbY0hdbltjSF1zNQ==

>  <s_epik_cmdline>  (403) 
J2VwaWtfcHl0aG9uJywgJy1waHQnLCAnMi4wJywgJy1waCcsICc3LjAnLCAnLXRuJywgJzgnLCAnLW1hJywgJzIwMCcsICctaW1hZScsICc8aW5maWxlLm1hZT4nLCAnLW9tYWUnLCAnPG91dGZpbGUubWFlPic=

>  <r_epik_Ionization_Penalty>  (403) 
0.146375

>  <r_epik_Ionization_Penalty_Charging>  (403) 
0.146362

>  <r_epik_Ionization_Penalty_Neutral>  (403) 
1.28917e-05

>  <r_epik_State_Penalty>  (403) 
0.135658

>  <r_epik_Charging_Adjusted_Penalty>  (403) 
0.282021

>  <i_epik_Tot_Q>  (403) 
1

>  <i_epik_Tot_abs_Q>  (403) 
1

>  <s_lp_Force_Field>  (403) 
OPLS3e

>  <r_lp_Energy>  (403) 
44.5518

>  <b_lp_Chiralities_Consistent>  (403) 
1

>  <s_lp_Variant>  (403) 
109:0-1

>  <s_i_glide_gridfile>  (403) 
pfpi4k_grid

>  <i_i_glide_lignum>  (403) 
30

>  <i_i_glide_rotatable_bonds>  (403) 
3

>  <r_i_docking_score>  (403) 
-3.72008

>  <r_i_glide_ligand_efficiency>  (403) 
-0.148803

>  <r_i_glide_ligand_efficiency_sa>  (403) 
-0.435103

>  <r_i_glide_ligand_efficiency_ln>  (403) 
-0.881769

>  <r_i_glide_gscore>  (403) 
-3.72008

>  <r_i_glide_lipo>  (403) 
-0.781018

>  <r_i_glide_hbond>  (403) 
0

>  <r_i_glide_metal>  (403) 
-0

>  <r_i_glide_rewards>  (403) 
-0.979999

>  <r_i_glide_evdw>  (403) 
-37.2387

>  <r_i_glide_ecoul>  (403) 
-3.1508

>  <r_i_glide_erotb>  (403) 
0.449482

>  <r_i_glide_esite>  (403) 
-0.0739879

>  <r_i_glide_emodel>  (403) 
-48.2927

>  <r_i_glide_energy>  (403) 
-40.3895

>  <r_i_glide_einternal>  (403) 
2.31182

>  <r_i_glide_intrahb_reward>  (403) 
-0

>  <i_i_glide_confnum>  (403) 
5

>  <i_i_glide_posenum>  (403) 
13

>  <r_i_glide_eff_state_penalty>  (403) 
0

>  <ligand_id>  (403) 
109

>  <original_smiles>  (403) 
c1nc2ncc(N3CCC4(CCCN4Cc4cncs4)CC3)nn2n1

>  <smiles>  (403) 
[H]c1nc2nc([H])c(N3C([H])([H])C([H])([H])C4(C([H])([H])C3([H])[H])C([H])([H])C([H])([H])C([H])([H])[N+]4([H])C([H])([H])c3sc([H])nc3[H])nn2n1

$$$$
109:1:0
     RDKit          3D

 45 49  0  0  1  0  0  0  0  0999 V2000
   -1.5319   -8.8626    2.9192 C   0  0  0  0  0  0  0  0  0  0  0  0
   -0.5798   -9.8182    2.8723 N   0  0  0  0  0  0  0  0  0  0  0  0
    0.5393   -9.1040    2.7067 C   0  0  0  0  0  0  0  0  0  0  0  0
    1.8129   -9.5093    2.5848 N   0  0  0  0  0  0  0  0  0  0  0  0
    2.7022   -8.4906    2.4166 C   0  0  0  0  0  0  0  0  0  0  0  0
    2.3179   -7.1294    2.3809 C   0  0  0  0  0  0  0  0  0  0  0  0
    3.2952   -6.1218    2.1854 N   0  0  0  0  0  0  0  0  0  0  0  0
    3.0786   -4.7328    2.5993 C   0  0  0  0  0  0  0  0  0  0  0  0
    3.2808   -3.7762    1.4069 C   0  0  0  0  0  0  0  0  0  0  0  0
    4.6440   -4.0354    0.7044 C   0  0  0  0  0  0  0  0  0  0  0  0
    5.8391   -3.5995    1.5989 C   0  0  0  0  0  0  0  0  0  0  0  0
    6.9079   -3.1003    0.6218 C   0  0  0  0  0  0  0  0  0  0  0  0
    6.2542   -3.1574   -0.7660 C   0  0  0  0  0  0  0  0  0  0  0  0
    4.8174   -3.1331   -0.4602 N   0  0  0  0  0  0  0  0  0  0  0  0
    4.0007   -3.4130   -1.6518 C   0  0  0  0  0  0  0  0  0  0  0  0
    3.8942   -2.3004   -2.6477 C   0  0  0  0  0  0  0  0  0  0  0  0
    3.4502   -2.3712   -3.9372 C   0  0  0  0  0  0  0  0  0  0  0  0
    3.4568   -1.1523   -4.6222 N   0  0  0  0  0  0  0  0  0  0  0  0
    3.8215   -0.1471   -3.8310 C   0  0  0  0  0  0  0  0  0  0  0  0
    4.2804   -0.6462   -2.2255 S   0  0  0  0  0  0  0  0  0  0  0  0
    4.7357   -5.5492    0.3141 C   0  0  0  0  0  0  0  0  0  0  0  0
    4.5351   -6.4747    1.5169 C   0  0  0  0  0  0  0  0  0  0  0  0
    1.0415   -6.7297    2.5010 N   0  0  0  0  0  0  0  0  0  0  0  0
    0.1932   -7.7479    2.6623 N   0  0  0  0  0  0  0  0  0  0  0  0
   -1.1364   -7.5954    2.8023 N   0  0  0  0  0  0  0  0  0  0  0  0
   -2.5700   -9.1062    3.0516 H   0  0  0  0  0  0  0  0  0  0  0  0
    3.7300   -8.8099    2.3615 H   0  0  0  0  0  0  0  0  0  0  0  0
    2.1058   -4.5590    3.0621 H   0  0  0  0  0  0  0  0  0  0  0  0
    3.8060   -4.4816    3.3692 H   0  0  0  0  0  0  0  0  0  0  0  0
    2.4337   -3.9053    0.7284 H   0  0  0  0  0  0  0  0  0  0  0  0
    3.2118   -2.7371    1.7383 H   0  0  0  0  0  0  0  0  0  0  0  0
    5.5522   -2.8027    2.3050 H   0  0  0  0  0  0  0  0  0  0  0  0
    6.2921   -4.3922    2.2067 H   0  0  0  0  0  0  0  0  0  0  0  0
    7.2295   -2.0888    0.9058 H   0  0  0  0  0  0  0  0  0  0  0  0
    7.7558   -3.7772    0.6783 H   0  0  0  0  0  0  0  0  0  0  0  0
    6.5914   -2.3293   -1.4043 H   0  0  0  0  0  0  0  0  0  0  0  0
    6.4895   -4.0930   -1.2955 H   0  0  0  0  0  0  0  0  0  0  0  0
    4.3829   -4.2821   -2.1790 H   0  0  0  0  0  0  0  0  0  0  0  0
    2.9999   -3.6529   -1.3272 H   0  0  0  0  0  0  0  0  0  0  0  0
    3.0923   -3.2488   -4.4585 H   0  0  0  0  0  0  0  0  0  0  0  0
    3.8425    0.8740   -4.1975 H   0  0  0  0  0  0  0  0  0  0  0  0
    3.9803   -5.8153   -0.4378 H   0  0  0  0  0  0  0  0  0  0  0  0
    5.6945   -5.8318   -0.1133 H   0  0  0  0  0  0  0  0  0  0  0  0
    5.3413   -6.4162    2.2498 H   0  0  0  0  0  0  0  0  0  0  0  0
    4.5742   -7.4864    1.0980 H   0  0  0  0  0  0  0  0  0  0  0  0
  1 25  2  0
  1  2  1  0
  1 26  1  0
  2  3  2  0
  3 24  1  0
  3  4  1  0
  4  5  2  0
  5  6  1  0
  5 27  1  0
  6  7  1  0
  6 23  2  0
  7 22  1  0
  7  8  1  0
  8  9  1  0
  8 28  1  0
  8 29  1  0
  9 10  1  0
  9 30  1  0
  9 31  1  0
 10 14  1  0
 10 11  1  0
 10 21  1  0
 11 12  1  0
 11 32  1  0
 11 33  1  0
 12 13  1  0
 12 34  1  0
 12 35  1  0
 13 14  1  0
 13 36  1  0
 13 37  1  0
 14 15  1  0
 15 16  1  0
 15 38  1  0
 15 39  1  0
 16 20  1  0
 16 17  2  0
 17 18  1  0
 17 40  1  0
 18 19  2  0
 19 20  1  0
 19 41  1  0
 21 22  1  0
 21 42  1  0
 21 43  1  0
 22 44  1  0
 22 45  1  0
 23 24  1  0
 24 25  1  0
M  END
>  <i_m_ct_stereo_status>  (404) 
1

>  <s_m_source_file>  (404) 
/var/tmp/pbs.5076255.sched01/tmpnhftudgm/135squ2m_dv.sdf

>  <i_m_source_file_index>  (404) 
31

>  <i_lp_mmshare_version>  (404) 
48012

>  <i_f3d_flags>  (404) 
0

>  <s_epik_input>  (404) 
bjFbY0hdbm4oYzEyKW5jKFtjSF1uMilOKFtDSDJdW0NIMl0zKVtDSDJdW0NIMl1DMzRbQ0gyXVtDSDJdW0NIMl1ONFtDSDJdYzVbY0hdbltjSF1zNQ==

>  <s_epik_cmdline>  (404) 
J2VwaWtfcHl0aG9uJywgJy1waHQnLCAnMi4wJywgJy1waCcsICc3LjAnLCAnLXRuJywgJzgnLCAnLW1hJywgJzIwMCcsICctaW1hZScsICc8aW5maWxlLm1hZT4nLCAnLW9tYWUnLCAnPG91dGZpbGUubWFlPic=

>  <r_epik_Ionization_Penalty>  (404) 
0.900162

>  <r_epik_Ionization_Penalty_Charging>  (404) 
0

>  <r_epik_Ionization_Penalty_Neutral>  (404) 
0.900162

>  <r_epik_State_Penalty>  (404) 
0.939971

>  <r_epik_Charging_Adjusted_Penalty>  (404) 
0.939971

>  <i_epik_Tot_Q>  (404) 
0

>  <i_epik_Tot_abs_Q>  (404) 
0

>  <s_lp_Force_Field>  (404) 
OPLS3e

>  <r_lp_Energy>  (404) 
48.3433

>  <b_lp_Chiralities_Consistent>  (404) 
1

>  <s_lp_Variant>  (404) 
109:0-2

>  <s_i_glide_gridfile>  (404) 
pfpi4k_grid

>  <i_i_glide_lignum>  (404) 
31

>  <i_i_glide_rotatable_bonds>  (404) 
3

>  <r_i_docking_score>  (404) 
-3.83143

>  <r_i_glide_ligand_efficiency>  (404) 
-0.153257

>  <r_i_glide_ligand_efficiency_sa>  (404) 
-0.448127

>  <r_i_glide_ligand_efficiency_ln>  (404) 
-0.908163

>  <r_i_glide_gscore>  (404) 
-3.83143

>  <r_i_glide_lipo>  (404) 
-0.719123

>  <r_i_glide_hbond>  (404) 
-0.261733

>  <r_i_glide_metal>  (404) 
-0

>  <r_i_glide_rewards>  (404) 
-0.990528

>  <r_i_glide_evdw>  (404) 
-36.6268

>  <r_i_glide_ecoul>  (404) 
-2.60768

>  <r_i_glide_erotb>  (404) 
0.451748

>  <r_i_glide_esite>  (404) 
-0.0892996

>  <r_i_glide_emodel>  (404) 
-47.3115

>  <r_i_glide_energy>  (404) 
-39.2345

>  <r_i_glide_einternal>  (404) 
1.43846

>  <r_i_glide_intrahb_reward>  (404) 
-0

>  <i_i_glide_confnum>  (404) 
4

>  <i_i_glide_posenum>  (404) 
38

>  <r_i_glide_eff_state_penalty>  (404) 
0

>  <ligand_id>  (404) 
109

>  <original_smiles>  (404) 
c1nc2ncc(N3CCC4(CCCN4Cc4cncs4)CC3)nn2n1

>  <smiles>  (404) 
[H]c1nc2nc([H])c(N3C([H])([H])C([H])([H])C4(N(C([H])([H])c5sc([H])nc5[H])C([H])([H])C([H])([H])C4([H])[H])C([H])([H])C3([H])[H])nn2n1

$$$$
109:1:1
     RDKit          3D

 45 49  0  0  1  0  0  0  0  0999 V2000
   -1.7891   -8.6552    3.3649 C   0  0  0  0  0  0  0  0  0  0  0  0
   -1.7723   -7.8485    4.4581 N   0  0  0  0  0  0  0  0  0  0  0  0
   -0.6993   -7.1065    4.2526 C   0  0  0  0  0  0  0  0  0  0  0  0
   -0.1492   -6.1197    5.0067 N   0  0  0  0  0  0  0  0  0  0  0  0
    0.9589   -5.5533    4.4673 C   0  0  0  0  0  0  0  0  0  0  0  0
    1.4976   -5.9358    3.2077 C   0  0  0  0  0  0  0  0  0  0  0  0
    2.6618   -5.3511    2.6911 N   0  0  0  0  0  0  0  0  0  0  0  0
    3.0796   -3.9901    3.0222 C   0  0  0  0  0  0  0  0  0  0  0  0
    3.3415   -3.1892    1.7346 C   0  0  0  0  0  0  0  0  0  0  0  0
    4.3099   -3.9475    0.7851 C   0  0  0  0  0  0  0  0  0  0  0  0
    5.7343   -4.0386    1.3859 C   0  0  0  0  0  0  0  0  0  0  0  0
    6.6693   -3.9914    0.1771 C   0  0  0  0  0  0  0  0  0  0  0  0
    5.7461   -3.7932   -1.0374 C   0  0  0  0  0  0  0  0  0  0  0  0
    4.5353   -3.1930   -0.4689 N   0  0  0  0  0  0  0  0  0  0  0  0
    3.4245   -3.1744   -1.4407 C   0  0  0  0  0  0  0  0  0  0  0  0
    3.5953   -2.1922   -2.5660 C   0  0  0  0  0  0  0  0  0  0  0  0
    3.1321   -2.3070   -3.8562 C   0  0  0  0  0  0  0  0  0  0  0  0
    3.4198   -1.2089   -4.6667 N   0  0  0  0  0  0  0  0  0  0  0  0
    4.0241   -0.2516   -3.9812 C   0  0  0  0  0  0  0  0  0  0  0  0
    4.3831   -0.6538   -2.3177 S   0  0  0  0  0  0  0  0  0  0  0  0
    3.7641   -5.3846    0.5164 C   0  0  0  0  0  0  0  0  0  0  0  0
    3.5221   -6.1479    1.8184 C   0  0  0  0  0  0  0  0  0  0  0  0
    0.9299   -6.9102    2.4673 N   0  0  0  0  0  0  0  0  0  0  0  0
   -0.1347   -7.4590    3.0230 N   0  0  0  0  0  0  0  0  0  0  0  0
   -0.8506   -8.4428    2.4530 N   0  0  0  0  0  0  0  0  0  0  0  0
   -2.5372   -9.4141    3.2260 H   0  0  0  0  0  0  0  0  0  0  0  0
    1.4274   -4.7799    5.0582 H   0  0  0  0  0  0  0  0  0  0  0  0
    2.3494   -3.4609    3.6325 H   0  0  0  0  0  0  0  0  0  0  0  0
    3.9928   -4.0385    3.6107 H   0  0  0  0  0  0  0  0  0  0  0  0
    2.3825   -2.9994    1.2497 H   0  0  0  0  0  0  0  0  0  0  0  0
    3.7363   -2.2007    1.9768 H   0  0  0  0  0  0  0  0  0  0  0  0
    5.9458   -3.2007    2.0635 H   0  0  0  0  0  0  0  0  0  0  0  0
    5.9096   -4.9596    1.9519 H   0  0  0  0  0  0  0  0  0  0  0  0
    7.3913   -3.1734    0.2993 H   0  0  0  0  0  0  0  0  0  0  0  0
    7.2216   -4.9291    0.1058 H   0  0  0  0  0  0  0  0  0  0  0  0
    6.2223   -3.1894   -1.8153 H   0  0  0  0  0  0  0  0  0  0  0  0
    5.4897   -4.7613   -1.4843 H   0  0  0  0  0  0  0  0  0  0  0  0
    3.2721   -4.1638   -1.8654 H   0  0  0  0  0  0  0  0  0  0  0  0
    2.5098   -2.9109   -0.9219 H   0  0  0  0  0  0  0  0  0  0  0  0
    2.5706   -3.1147   -4.2952 H   0  0  0  0  0  0  0  0  0  0  0  0
    4.3205    0.6730   -4.4550 H   0  0  0  0  0  0  0  0  0  0  0  0
    2.8242   -5.3503   -0.0410 H   0  0  0  0  0  0  0  0  0  0  0  0
    4.4538   -5.9785   -0.0782 H   0  0  0  0  0  0  0  0  0  0  0  0
    4.4520   -6.3317    2.3536 H   0  0  0  0  0  0  0  0  0  0  0  0
    3.1212   -7.1327    1.5659 H   0  0  0  0  0  0  0  0  0  0  0  0
  1 25  2  0
  1  2  1  0
  1 26  1  0
  2  3  2  0
  3 24  1  0
  3  4  1  0
  4  5  2  0
  5  6  1  0
  5 27  1  0
  6  7  1  0
  6 23  2  0
  7 22  1  0
  7  8  1  0
  8  9  1  0
  8 28  1  0
  8 29  1  0
  9 10  1  0
  9 30  1  0
  9 31  1  0
 10 14  1  0
 10 11  1  0
 10 21  1  0
 11 12  1  0
 11 32  1  0
 11 33  1  0
 12 13  1  0
 12 34  1  0
 12 35  1  0
 13 14  1  0
 13 36  1  0
 13 37  1  0
 14 15  1  0
 15 16  1  0
 15 38  1  0
 15 39  1  0
 16 20  1  0
 16 17  2  0
 17 18  1  0
 17 40  1  0
 18 19  2  0
 19 20  1  0
 19 41  1  0
 21 22  1  0
 21 42  1  0
 21 43  1  0
 22 44  1  0
 22 45  1  0
 23 24  1  0
 24 25  1  0
M  END
>  <i_m_ct_stereo_status>  (405) 
1

>  <s_m_source_file>  (405) 
/var/tmp/pbs.5076255.sched01/tmpnhftudgm/135squ2m_dv.sdf

>  <i_m_source_file_index>  (405) 
31

>  <i_lp_mmshare_version>  (405) 
48012

>  <i_f3d_flags>  (405) 
0

>  <s_epik_input>  (405) 
bjFbY0hdbm4oYzEyKW5jKFtjSF1uMilOKFtDSDJdW0NIMl0zKVtDSDJdW0NIMl1DMzRbQ0gyXVtDSDJdW0NIMl1ONFtDSDJdYzVbY0hdbltjSF1zNQ==

>  <s_epik_cmdline>  (405) 
J2VwaWtfcHl0aG9uJywgJy1waHQnLCAnMi4wJywgJy1waCcsICc3LjAnLCAnLXRuJywgJzgnLCAnLW1hJywgJzIwMCcsICctaW1hZScsICc8aW5maWxlLm1hZT4nLCAnLW9tYWUnLCAnPG91dGZpbGUubWFlPic=

>  <r_epik_Ionization_Penalty>  (405) 
0.900162

>  <r_epik_Ionization_Penalty_Charging>  (405) 
0

>  <r_epik_Ionization_Penalty_Neutral>  (405) 
0.900162

>  <r_epik_State_Penalty>  (405) 
0.939971

>  <r_epik_Charging_Adjusted_Penalty>  (405) 
0.939971

>  <i_epik_Tot_Q>  (405) 
0

>  <i_epik_Tot_abs_Q>  (405) 
0

>  <s_lp_Force_Field>  (405) 
OPLS3e

>  <r_lp_Energy>  (405) 
48.3433

>  <b_lp_Chiralities_Consistent>  (405) 
1

>  <s_lp_Variant>  (405) 
109:0-2

>  <s_i_glide_gridfile>  (405) 
pfpi4k_grid

>  <i_i_glide_lignum>  (405) 
31

>  <i_i_glide_rotatable_bonds>  (405) 
3

>  <r_i_docking_score>  (405) 
-3.68083

>  <r_i_glide_ligand_efficiency>  (405) 
-0.147233

>  <r_i_glide_ligand_efficiency_sa>  (405) 
-0.430513

>  <r_i_glide_ligand_efficiency_ln>  (405) 
-0.872468

>  <r_i_glide_gscore>  (405) 
-3.68083

>  <r_i_glide_lipo>  (405) 
-0.689406

>  <r_i_glide_hbond>  (405) 
-0.303481

>  <r_i_glide_metal>  (405) 
-0

>  <r_i_glide_rewards>  (405) 
-0.978753

>  <r_i_glide_evdw>  (405) 
-31.7533

>  <r_i_glide_ecoul>  (405) 
-2.47969

>  <r_i_glide_erotb>  (405) 
0.451748

>  <r_i_glide_esite>  (405) 
-0.201325

>  <r_i_glide_emodel>  (405) 
-42.2193

>  <r_i_glide_energy>  (405) 
-34.2329

>  <r_i_glide_einternal>  (405) 
0.947782

>  <r_i_glide_intrahb_reward>  (405) 
-0

>  <i_i_glide_confnum>  (405) 
6

>  <i_i_glide_posenum>  (405) 
26

>  <r_i_glide_eff_state_penalty>  (405) 
0

>  <ligand_id>  (405) 
109

>  <original_smiles>  (405) 
c1nc2ncc(N3CCC4(CCCN4Cc4cncs4)CC3)nn2n1

>  <smiles>  (405) 
[H]c1nc2nc([H])c(N3C([H])([H])C([H])([H])C4(N(C([H])([H])c5sc([H])nc5[H])C([H])([H])C([H])([H])C4([H])[H])C([H])([H])C3([H])[H])nn2n1

$$$$
109:1:2
     RDKit          3D

 45 49  0  0  1  0  0  0  0  0999 V2000
   -1.5407   -8.8309    2.9694 C   0  0  0  0  0  0  0  0  0  0  0  0
   -0.6261   -9.8282    2.8694 N   0  0  0  0  0  0  0  0  0  0  0  0
    0.5059   -9.1628    2.7034 C   0  0  0  0  0  0  0  0  0  0  0  0
    1.7625   -9.6194    2.5379 N   0  0  0  0  0  0  0  0  0  0  0  0
    2.6855   -8.6384    2.3825 C   0  0  0  0  0  0  0  0  0  0  0  0
    2.3701   -7.2554    2.4019 C   0  0  0  0  0  0  0  0  0  0  0  0
    3.3844   -6.2996    2.2105 N   0  0  0  0  0  0  0  0  0  0  0  0
    3.2876   -4.9451    2.7642 C   0  0  0  0  0  0  0  0  0  0  0  0
    3.4440   -3.8948    1.6535 C   0  0  0  0  0  0  0  0  0  0  0  0
    4.7263   -4.1631    0.8046 C   0  0  0  0  0  0  0  0  0  0  0  0
    6.0219   -3.8971    1.6230 C   0  0  0  0  0  0  0  0  0  0  0  0
    7.0288   -3.3694    0.6086 C   0  0  0  0  0  0  0  0  0  0  0  0
    6.2512   -3.2511   -0.7167 C   0  0  0  0  0  0  0  0  0  0  0  0
    4.8737   -3.1673   -0.2814 N   0  0  0  0  0  0  0  0  0  0  0  0
    3.9371   -3.2777   -1.4169 C   0  0  0  0  0  0  0  0  0  0  0  0
    3.8888   -2.1129   -2.3401 C   0  0  0  0  0  0  0  0  0  0  0  0
    4.4053   -0.8609   -2.1455 C   0  0  0  0  0  0  0  0  0  0  0  0
    4.1711    0.0345   -3.2059 N   0  0  0  0  0  0  0  0  0  0  0  0
    3.4452   -0.5308   -4.1731 C   0  0  0  0  0  0  0  0  0  0  0  0
    3.0658   -2.2219   -3.8771 S   0  0  0  0  0  0  0  0  0  0  0  0
    4.6855   -5.6322    0.2770 C   0  0  0  0  0  0  0  0  0  0  0  0
    4.5366   -6.6556    1.4014 C   0  0  0  0  0  0  0  0  0  0  0  0
    1.1103   -6.8061    2.5659 N   0  0  0  0  0  0  0  0  0  0  0  0
    0.2295   -7.7853    2.7064 N   0  0  0  0  0  0  0  0  0  0  0  0
   -1.0970   -7.5809    2.8745 N   0  0  0  0  0  0  0  0  0  0  0  0
   -2.5830   -9.0389    3.1258 H   0  0  0  0  0  0  0  0  0  0  0  0
    3.7003   -8.9905    2.2744 H   0  0  0  0  0  0  0  0  0  0  0  0
    2.3669   -4.7760    3.3236 H   0  0  0  0  0  0  0  0  0  0  0  0
    4.0910   -4.8160    3.4859 H   0  0  0  0  0  0  0  0  0  0  0  0
    2.5443   -3.9093    1.0396 H   0  0  0  0  0  0  0  0  0  0  0  0
    3.4774   -2.8916    2.0820 H   0  0  0  0  0  0  0  0  0  0  0  0
    5.8486   -3.1582    2.4189 H   0  0  0  0  0  0  0  0  0  0  0  0
    6.4444   -4.7852    2.1067 H   0  0  0  0  0  0  0  0  0  0  0  0
    7.4385   -2.4127    0.9452 H   0  0  0  0  0  0  0  0  0  0  0  0
    7.8486   -4.0899    0.5183 H   0  0  0  0  0  0  0  0  0  0  0  0
    6.6043   -2.3961   -1.3041 H   0  0  0  0  0  0  0  0  0  0  0  0
    6.3774   -4.1478   -1.3420 H   0  0  0  0  0  0  0  0  0  0  0  0
    4.1613   -4.1759   -2.0137 H   0  0  0  0  0  0  0  0  0  0  0  0
    2.9267   -3.4186   -1.0248 H   0  0  0  0  0  0  0  0  0  0  0  0
    4.9545   -0.5201   -1.2905 H   0  0  0  0  0  0  0  0  0  0  0  0
    3.1894    0.0273   -5.0463 H   0  0  0  0  0  0  0  0  0  0  0  0
    3.8555   -5.7793   -0.4139 H   0  0  0  0  0  0  0  0  0  0  0  0
    5.5904   -5.9093   -0.2696 H   0  0  0  0  0  0  0  0  0  0  0  0
    5.4059   -6.6997    2.0571 H   0  0  0  0  0  0  0  0  0  0  0  0
    4.4546   -7.6318    0.9159 H   0  0  0  0  0  0  0  0  0  0  0  0
  1 25  2  0
  1  2  1  0
  1 26  1  0
  2  3  2  0
  3 24  1  0
  3  4  1  0
  4  5  2  0
  5  6  1  0
  5 27  1  0
  6  7  1  0
  6 23  2  0
  7 22  1  0
  7  8  1  0
  8  9  1  0
  8 28  1  0
  8 29  1  0
  9 10  1  0
  9 30  1  0
  9 31  1  0
 10 14  1  0
 10 11  1  0
 10 21  1  0
 11 12  1  0
 11 32  1  0
 11 33  1  0
 12 13  1  0
 12 34  1  0
 12 35  1  0
 13 14  1  0
 13 36  1  0
 13 37  1  0
 14 15  1  0
 15 16  1  0
 15 38  1  0
 15 39  1  0
 16 20  1  0
 16 17  2  0
 17 18  1  0
 17 40  1  0
 18 19  2  0
 19 20  1  0
 19 41  1  0
 21 22  1  0
 21 42  1  0
 21 43  1  0
 22 44  1  0
 22 45  1  0
 23 24  1  0
 24 25  1  0
M  END
>  <i_m_ct_stereo_status>  (406) 
1

>  <s_m_source_file>  (406) 
/var/tmp/pbs.5076255.sched01/tmpnhftudgm/135squ2m_dv.sdf

>  <i_m_source_file_index>  (406) 
31

>  <i_lp_mmshare_version>  (406) 
48012

>  <i_f3d_flags>  (406) 
0

>  <s_epik_input>  (406) 
bjFbY0hdbm4oYzEyKW5jKFtjSF1uMilOKFtDSDJdW0NIMl0zKVtDSDJdW0NIMl1DMzRbQ0gyXVtDSDJdW0NIMl1ONFtDSDJdYzVbY0hdbltjSF1zNQ==

>  <s_epik_cmdline>  (406) 
J2VwaWtfcHl0aG9uJywgJy1waHQnLCAnMi4wJywgJy1waCcsICc3LjAnLCAnLXRuJywgJzgnLCAnLW1hJywgJzIwMCcsICctaW1hZScsICc8aW5maWxlLm1hZT4nLCAnLW9tYWUnLCAnPG91dGZpbGUubWFlPic=

>  <r_epik_Ionization_Penalty>  (406) 
0.900162

>  <r_epik_Ionization_Penalty_Charging>  (406) 
0

>  <r_epik_Ionization_Penalty_Neutral>  (406) 
0.900162

>  <r_epik_State_Penalty>  (406) 
0.939971

>  <r_epik_Charging_Adjusted_Penalty>  (406) 
0.939971

>  <i_epik_Tot_Q>  (406) 
0

>  <i_epik_Tot_abs_Q>  (406) 
0

>  <s_lp_Force_Field>  (406) 
OPLS3e

>  <r_lp_Energy>  (406) 
48.3433

>  <b_lp_Chiralities_Consistent>  (406) 
1

>  <s_lp_Variant>  (406) 
109:0-2

>  <s_i_glide_gridfile>  (406) 
pfpi4k_grid

>  <i_i_glide_lignum>  (406) 
31

>  <i_i_glide_rotatable_bonds>  (406) 
3

>  <r_i_docking_score>  (406) 
-3.48426

>  <r_i_glide_ligand_efficiency>  (406) 
-0.13937

>  <r_i_glide_ligand_efficiency_sa>  (406) 
-0.407522

>  <r_i_glide_ligand_efficiency_ln>  (406) 
-0.825874

>  <r_i_glide_gscore>  (406) 
-3.48426

>  <r_i_glide_lipo>  (406) 
-0.83996

>  <r_i_glide_hbond>  (406) 
0

>  <r_i_glide_metal>  (406) 
-0

>  <r_i_glide_rewards>  (406) 
-0.991289

>  <r_i_glide_evdw>  (406) 
-37.3163

>  <r_i_glide_ecoul>  (406) 
-0.955369

>  <r_i_glide_erotb>  (406) 
0.451748

>  <r_i_glide_esite>  (406) 
-0.0956393

>  <r_i_glide_emodel>  (406) 
-45.8563

>  <r_i_glide_energy>  (406) 
-38.2717

>  <r_i_glide_einternal>  (406) 
0.937395

>  <r_i_glide_intrahb_reward>  (406) 
-0

>  <i_i_glide_confnum>  (406) 
4

>  <i_i_glide_posenum>  (406) 
1

>  <r_i_glide_eff_state_penalty>  (406) 
0

>  <ligand_id>  (406) 
109

>  <original_smiles>  (406) 
c1nc2ncc(N3CCC4(CCCN4Cc4cncs4)CC3)nn2n1

>  <smiles>  (406) 
[H]c1nc2nc([H])c(N3C([H])([H])C([H])([H])C4(N(C([H])([H])c5sc([H])nc5[H])C([H])([H])C([H])([H])C4([H])[H])C([H])([H])C3([H])[H])nn2n1

$$$$
110:0:0
     RDKit          3D

 35 37  0  0  1  0  0  0  0  0999 V2000
    4.5929   -8.3476    0.9639 C   0  0  0  0  0  0  0  0  0  0  0  0
    3.4180   -7.4241    1.2898 C   0  0  0  0  0  0  0  0  0  0  0  0
    2.3795   -8.0946    1.8482 N   0  0  0  0  0  0  0  0  0  0  0  0
    1.2977   -7.3882    2.1711 C   0  0  0  0  0  0  0  0  0  0  0  0
    1.1596   -6.0577    2.0462 N   0  0  0  0  0  0  0  0  0  0  0  0
    2.2064   -5.3697    1.5583 C   0  0  0  0  0  0  0  0  0  0  0  0
    3.3788   -6.0059    1.0764 C   0  0  0  0  0  0  0  0  0  0  0  0
    4.4950   -5.2143    0.4332 C   0  0  0  0  0  0  0  0  0  0  0  0
    5.6767   -5.4691    0.7045 O   0  0  0  0  0  0  0  0  0  0  0  0
    4.1915   -4.2530   -0.4666 N   0  0  0  0  0  0  0  0  0  0  0  0
    2.8467   -3.7901   -0.8309 C   0  0  0  0  0  0  0  0  0  0  0  0
    3.0363   -2.7524   -1.9167 C   0  0  2  0  0  0  0  0  0  0  0  0
    2.9219   -3.2356   -3.3576 C   0  0  0  0  0  0  0  0  0  0  0  0
    3.7313   -2.3064   -4.0738 O   0  0  0  0  0  0  0  0  0  0  0  0
    4.8207   -1.9339   -3.2182 C   0  0  0  0  0  0  0  0  0  0  0  0
    4.4617   -2.2803   -1.7734 C   0  0  1  0  0  0  0  0  0  0  0  0
    4.5703   -1.0750   -0.8272 C   0  0  0  0  0  0  0  0  0  0  0  0
    5.2063   -3.4895   -1.1941 C   0  0  0  0  0  0  0  0  0  0  0  0
    5.4206   -7.8437    0.4790 H   0  0  0  0  0  0  0  0  0  0  0  0
    4.2658   -9.1615    0.3112 H   0  0  0  0  0  0  0  0  0  0  0  0
    4.9819   -8.7799    1.8897 H   0  0  0  0  0  0  0  0  0  0  0  0
    0.4577   -7.9019    2.6310 H   0  0  0  0  0  0  0  0  0  0  0  0
    2.0892   -4.2920    1.5491 H   0  0  0  0  0  0  0  0  0  0  0  0
    2.1883   -4.6101   -1.1221 H   0  0  0  0  0  0  0  0  0  0  0  0
    2.4056   -3.2521   -0.0163 H   0  0  0  0  0  0  0  0  0  0  0  0
    2.3431   -1.9269   -1.8199 H   0  0  0  0  0  0  0  0  0  0  0  0
    3.3387   -4.2354   -3.4982 H   0  0  0  0  0  0  0  0  0  0  0  0
    1.8873   -3.2035   -3.7010 H   0  0  0  0  0  0  0  0  0  0  0  0
    5.7243   -2.4649   -3.5162 H   0  0  0  0  0  0  0  0  0  0  0  0
    4.9161   -0.8573   -3.3524 H   0  0  0  0  0  0  0  0  0  0  0  0
    5.5950   -0.7015   -0.7642 H   0  0  0  0  0  0  0  0  0  0  0  0
    4.2372   -1.3294    0.1821 H   0  0  0  0  0  0  0  0  0  0  0  0
    3.9412   -0.2649   -1.1861 H   0  0  0  0  0  0  0  0  0  0  0  0
    6.0325   -3.1742   -0.5508 H   0  0  0  0  0  0  0  0  0  0  0  0
    5.6201   -4.1236   -1.9795 H   0  0  0  0  0  0  0  0  0  0  0  0
  1  2  1  0
  1 19  1  0
  1 20  1  0
  1 21  1  0
  2  7  2  0
  2  3  1  0
  3  4  2  0
  4  5  1  0
  4 22  1  0
  5  6  2  0
  6  7  1  0
  6 23  1  0
  7  8  1  0
  8  9  2  0
  8 10  1  0
 10 18  1  0
 10 11  1  0
 11 12  1  0
 11 24  1  0
 11 25  1  0
 12 16  1  0
 12 13  1  0
 12 26  1  1
 13 14  1  0
 13 27  1  0
 13 28  1  0
 14 15  1  0
 15 16  1  0
 15 29  1  0
 15 30  1  0
 16 17  1  1
 16 18  1  0
 17 31  1  0
 17 32  1  0
 17 33  1  0
 18 34  1  0
 18 35  1  0
M  END
>  <i_m_ct_stereo_status>  (407) 
1

>  <s_m_source_file>  (407) 
/var/tmp/pbs.5076255.sched01/tmpnhftudgm/135squ2m_dv.sdf

>  <i_m_source_file_index>  (407) 
32

>  <i_lp_mmshare_version>  (407) 
48012

>  <i_f3d_flags>  (407) 
0

>  <s_epik_input>  (407) 
W0NIM11jMW5bY0hdbltjSF1jMUMoPU8pTihbQ0gyXTIpW0NIMl1bQ0BASF0oW0NAQF0yM1tDSDNdKVtDSDJdT1tDSDJdMw==

>  <s_epik_cmdline>  (407) 
J2VwaWtfcHl0aG9uJywgJy1waHQnLCAnMi4wJywgJy1waCcsICc3LjAnLCAnLXRuJywgJzgnLCAnLW1hJywgJzIwMCcsICctaW1hZScsICc8aW5maWxlLm1hZT4nLCAnLW9tYWUnLCAnPG91dGZpbGUubWFlPic=

>  <r_lp_tautomer_probability>  (407) 
1

>  <r_epik_Ionization_Penalty>  (407) 
9.05566e-07

>  <r_epik_Ionization_Penalty_Charging>  (407) 
0

>  <r_epik_Ionization_Penalty_Neutral>  (407) 
9.05566e-07

>  <r_epik_State_Penalty>  (407) 
-0

>  <r_epik_Charging_Adjusted_Penalty>  (407) 
0

>  <i_epik_Tot_Q>  (407) 
0

>  <i_epik_Tot_abs_Q>  (407) 
0

>  <s_epik_Chemistry_Notes>  (407) 
This compound contains an electron-poor aromatic ring that is susceptible to covalent hydrolysis at low pH, typically resulting in measured values for nitrogen ring protonation that are around two units higher than predicted values.

>  <s_lp_Force_Field>  (407) 
OPLS3e

>  <r_lp_Energy>  (407) 
10.0864

>  <b_lp_Chiralities_Consistent>  (407) 
1

>  <s_lp_Variant>  (407) 
110:0-1

>  <s_i_glide_gridfile>  (407) 
pfpi4k_grid

>  <i_i_glide_lignum>  (407) 
32

>  <i_i_glide_rotatable_bonds>  (407) 
2

>  <r_i_docking_score>  (407) 
-3.55946

>  <r_i_glide_ligand_efficiency>  (407) 
-0.197748

>  <r_i_glide_ligand_efficiency_sa>  (407) 
-0.518247

>  <r_i_glide_ligand_efficiency_ln>  (407) 
-0.914942

>  <r_i_glide_gscore>  (407) 
-3.55946

>  <r_i_glide_lipo>  (407) 
-0.338427

>  <r_i_glide_hbond>  (407) 
-0.295674

>  <r_i_glide_metal>  (407) 
-0

>  <r_i_glide_rewards>  (407) 
-1.80515

>  <r_i_glide_evdw>  (407) 
-20.4386

>  <r_i_glide_ecoul>  (407) 
-4.12606

>  <r_i_glide_erotb>  (407) 
0.570543

>  <r_i_glide_esite>  (407) 
-0.0499183

>  <r_i_glide_emodel>  (407) 
-28.4002

>  <r_i_glide_energy>  (407) 
-24.5647

>  <r_i_glide_einternal>  (407) 
0.632104

>  <r_i_glide_intrahb_reward>  (407) 
-0

>  <i_i_glide_confnum>  (407) 
6

>  <i_i_glide_posenum>  (407) 
1

>  <r_i_glide_eff_state_penalty>  (407) 
0

>  <ligand_id>  (407) 
110

>  <original_smiles>  (407) 
Cc1ncncc1C(=O)N1CC2COCC2(C)C1

>  <smiles>  (407) 
[H]c1nc([H])c(C(=O)N2C([H])([H])C3([H])C([H])([H])OC([H])([H])C3(C([H])([H])[H])C2([H])[H])c(C([H])([H])[H])n1

$$$$
110:0:1
     RDKit          3D

 35 37  0  0  1  0  0  0  0  0999 V2000
    1.8817   -3.6208    3.8168 C   0  0  0  0  0  0  0  0  0  0  0  0
    1.8820   -4.8195    2.8792 C   0  0  0  0  0  0  0  0  0  0  0  0
    0.9212   -5.7356    3.1358 N   0  0  0  0  0  0  0  0  0  0  0  0
    0.8654   -6.8098    2.3463 C   0  0  0  0  0  0  0  0  0  0  0  0
    1.6368   -7.0509    1.2925 N   0  0  0  0  0  0  0  0  0  0  0  0
    2.6090   -6.1582    1.0313 C   0  0  0  0  0  0  0  0  0  0  0  0
    2.7754   -4.9800    1.7896 C   0  0  0  0  0  0  0  0  0  0  0  0
    3.8773   -4.0154    1.4522 C   0  0  0  0  0  0  0  0  0  0  0  0
    4.7402   -3.7497    2.2864 O   0  0  0  0  0  0  0  0  0  0  0  0
    3.8844   -3.4981    0.2052 N   0  0  0  0  0  0  0  0  0  0  0  0
    2.7861   -3.5787   -0.7532 C   0  0  0  0  0  0  0  0  0  0  0  0
    3.1179   -2.5868   -1.8736 C   0  0  2  0  0  0  0  0  0  0  0  0
    2.8585   -3.1040   -3.2953 C   0  0  0  0  0  0  0  0  0  0  0  0
    4.1460   -3.3153   -3.8765 O   0  0  0  0  0  0  0  0  0  0  0  0
    5.1091   -3.3946   -2.8325 C   0  0  0  0  0  0  0  0  0  0  0  0
    4.6108   -2.3824   -1.7935 C   0  0  1  0  0  0  0  0  0  0  0  0
    5.0126   -0.9585   -2.1910 C   0  0  0  0  0  0  0  0  0  0  0  0
    4.9880   -2.7113   -0.3371 C   0  0  0  0  0  0  0  0  0  0  0  0
    2.6822   -2.9122    3.6133 H   0  0  0  0  0  0  0  0  0  0  0  0
    1.9896   -3.9538    4.8504 H   0  0  0  0  0  0  0  0  0  0  0  0
    0.9361   -3.0845    3.7278 H   0  0  0  0  0  0  0  0  0  0  0  0
    0.0829   -7.5236    2.5492 H   0  0  0  0  0  0  0  0  0  0  0  0
    3.2538   -6.3853    0.1947 H   0  0  0  0  0  0  0  0  0  0  0  0
    2.7426   -4.6008   -1.1187 H   0  0  0  0  0  0  0  0  0  0  0  0
    1.8214   -3.3348   -0.3077 H   0  0  0  0  0  0  0  0  0  0  0  0
    2.6138   -1.6383   -1.6972 H   0  0  0  0  0  0  0  0  0  0  0  0
    2.2662   -4.0200   -3.3023 H   0  0  0  0  0  0  0  0  0  0  0  0
    2.3216   -2.3641   -3.8862 H   0  0  0  0  0  0  0  0  0  0  0  0
    5.1318   -4.4123   -2.4340 H   0  0  0  0  0  0  0  0  0  0  0  0
    6.0995   -3.1482   -3.2143 H   0  0  0  0  0  0  0  0  0  0  0  0
    6.0885   -0.8591   -2.1314 H   0  0  0  0  0  0  0  0  0  0  0  0
    4.5674   -0.2267   -1.5175 H   0  0  0  0  0  0  0  0  0  0  0  0
    4.6951   -0.7142   -3.2071 H   0  0  0  0  0  0  0  0  0  0  0  0
    5.0940   -1.8000    0.2558 H   0  0  0  0  0  0  0  0  0  0  0  0
    5.9300   -3.2607   -0.2803 H   0  0  0  0  0  0  0  0  0  0  0  0
  1  2  1  0
  1 19  1  0
  1 20  1  0
  1 21  1  0
  2  7  2  0
  2  3  1  0
  3  4  2  0
  4  5  1  0
  4 22  1  0
  5  6  2  0
  6  7  1  0
  6 23  1  0
  7  8  1  0
  8  9  2  0
  8 10  1  0
 10 18  1  0
 10 11  1  0
 11 12  1  0
 11 24  1  0
 11 25  1  0
 12 16  1  0
 12 13  1  0
 12 26  1  1
 13 14  1  0
 13 27  1  0
 13 28  1  0
 14 15  1  0
 15 16  1  0
 15 29  1  0
 15 30  1  0
 16 17  1  6
 16 18  1  0
 17 31  1  0
 17 32  1  0
 17 33  1  0
 18 34  1  0
 18 35  1  0
M  END
>  <i_m_ct_stereo_status>  (408) 
1

>  <s_m_source_file>  (408) 
/var/tmp/pbs.5076255.sched01/tmpnhftudgm/135squ2m_dv.sdf

>  <i_m_source_file_index>  (408) 
32

>  <i_lp_mmshare_version>  (408) 
48012

>  <i_f3d_flags>  (408) 
0

>  <s_epik_input>  (408) 
W0NIM11jMW5bY0hdbltjSF1jMUMoPU8pTihbQ0gyXTIpW0NIMl1bQ0BASF0oW0NAQF0yM1tDSDNdKVtDSDJdT1tDSDJdMw==

>  <s_epik_cmdline>  (408) 
J2VwaWtfcHl0aG9uJywgJy1waHQnLCAnMi4wJywgJy1waCcsICc3LjAnLCAnLXRuJywgJzgnLCAnLW1hJywgJzIwMCcsICctaW1hZScsICc8aW5maWxlLm1hZT4nLCAnLW9tYWUnLCAnPG91dGZpbGUubWFlPic=

>  <r_lp_tautomer_probability>  (408) 
1

>  <r_epik_Ionization_Penalty>  (408) 
9.05566e-07

>  <r_epik_Ionization_Penalty_Charging>  (408) 
0

>  <r_epik_Ionization_Penalty_Neutral>  (408) 
9.05566e-07

>  <r_epik_State_Penalty>  (408) 
-0

>  <r_epik_Charging_Adjusted_Penalty>  (408) 
0

>  <i_epik_Tot_Q>  (408) 
0

>  <i_epik_Tot_abs_Q>  (408) 
0

>  <s_epik_Chemistry_Notes>  (408) 
This compound contains an electron-poor aromatic ring that is susceptible to covalent hydrolysis at low pH, typically resulting in measured values for nitrogen ring protonation that are around two units higher than predicted values.

>  <s_lp_Force_Field>  (408) 
OPLS3e

>  <r_lp_Energy>  (408) 
10.0864

>  <b_lp_Chiralities_Consistent>  (408) 
1

>  <s_lp_Variant>  (408) 
110:0-1

>  <s_i_glide_gridfile>  (408) 
pfpi4k_grid

>  <i_i_glide_lignum>  (408) 
32

>  <i_i_glide_rotatable_bonds>  (408) 
2

>  <r_i_docking_score>  (408) 
-3.12625

>  <r_i_glide_ligand_efficiency>  (408) 
-0.173681

>  <r_i_glide_ligand_efficiency_sa>  (408) 
-0.455173

>  <r_i_glide_ligand_efficiency_ln>  (408) 
-0.803588

>  <r_i_glide_gscore>  (408) 
-3.12625

>  <r_i_glide_lipo>  (408) 
-0.364495

>  <r_i_glide_hbond>  (408) 
-0.0065692

>  <r_i_glide_metal>  (408) 
-0

>  <r_i_glide_rewards>  (408) 
-1.75399

>  <r_i_glide_evdw>  (408) 
-20.1649

>  <r_i_glide_ecoul>  (408) 
-3.39722

>  <r_i_glide_erotb>  (408) 
0.570543

>  <r_i_glide_esite>  (408) 
-0.0539143

>  <r_i_glide_emodel>  (408) 
-27.2751

>  <r_i_glide_energy>  (408) 
-23.5621

>  <r_i_glide_einternal>  (408) 
1.3528

>  <r_i_glide_intrahb_reward>  (408) 
-0

>  <i_i_glide_confnum>  (408) 
4

>  <i_i_glide_posenum>  (408) 
25

>  <r_i_glide_eff_state_penalty>  (408) 
0

>  <ligand_id>  (408) 
110

>  <original_smiles>  (408) 
Cc1ncncc1C(=O)N1CC2COCC2(C)C1

>  <smiles>  (408) 
[H]c1nc([H])c(C(=O)N2C([H])([H])C3([H])C([H])([H])OC([H])([H])C3(C([H])([H])[H])C2([H])[H])c(C([H])([H])[H])n1

$$$$
110:0:2
     RDKit          3D

 35 37  0  0  1  0  0  0  0  0999 V2000
    1.7137   -2.8264    3.0052 C   0  0  0  0  0  0  0  0  0  0  0  0
    2.3229   -4.0710    2.3622 C   0  0  0  0  0  0  0  0  0  0  0  0
    1.7349   -5.2233    2.7349 N   0  0  0  0  0  0  0  0  0  0  0  0
    2.2084   -6.3602    2.2183 C   0  0  0  0  0  0  0  0  0  0  0  0
    3.2081   -6.4650    1.3525 N   0  0  0  0  0  0  0  0  0  0  0  0
    3.8148   -5.3295    0.9751 C   0  0  0  0  0  0  0  0  0  0  0  0
    3.3838   -4.0531    1.4173 C   0  0  0  0  0  0  0  0  0  0  0  0
    4.0457   -2.7905    0.9248 C   0  0  0  0  0  0  0  0  0  0  0  0
    4.4845   -1.9649    1.7431 O   0  0  0  0  0  0  0  0  0  0  0  0
    4.0881   -2.5680   -0.3926 N   0  0  0  0  0  0  0  0  0  0  0  0
    4.5444   -1.3174   -1.0060 C   0  0  0  0  0  0  0  0  0  0  0  0
    4.7202   -1.6144   -2.5040 C   0  0  2  0  0  0  0  0  0  0  0  0
    4.1656   -0.5453   -3.4497 C   0  0  0  0  0  0  0  0  0  0  0  0
    3.0126   -1.0889   -4.0539 O   0  0  0  0  0  0  0  0  0  0  0  0
    2.5652   -2.1868   -3.2979 C   0  0  0  0  0  0  0  0  0  0  0  0
    3.8509   -2.8183   -2.7860 C   0  0  1  0  0  0  0  0  0  0  0  0
    4.4597   -3.7614   -3.8297 C   0  0  0  0  0  0  0  0  0  0  0  0
    3.6952   -3.5120   -1.4451 C   0  0  0  0  0  0  0  0  0  0  0  0
    2.1846   -1.8933    2.7031 H   0  0  0  0  0  0  0  0  0  0  0  0
    1.7818   -2.9004    4.0918 H   0  0  0  0  0  0  0  0  0  0  0  0
    0.6560   -2.7442    2.7546 H   0  0  0  0  0  0  0  0  0  0  0  0
    1.7508   -7.2829    2.5259 H   0  0  0  0  0  0  0  0  0  0  0  0
    4.6550   -5.4679    0.3078 H   0  0  0  0  0  0  0  0  0  0  0  0
    3.7657   -0.5741   -0.8365 H   0  0  0  0  0  0  0  0  0  0  0  0
    5.4693   -0.9379   -0.5628 H   0  0  0  0  0  0  0  0  0  0  0  0
    5.7678   -1.8549   -2.6991 H   0  0  0  0  0  0  0  0  0  0  0  0
    3.9471    0.4007   -2.9536 H   0  0  0  0  0  0  0  0  0  0  0  0
    4.8397   -0.3830   -4.2768 H   0  0  0  0  0  0  0  0  0  0  0  0
    1.9568   -1.8407   -2.4692 H   0  0  0  0  0  0  0  0  0  0  0  0
    1.9661   -2.8579   -3.9075 H   0  0  0  0  0  0  0  0  0  0  0  0
    3.8167   -4.6129   -4.0429 H   0  0  0  0  0  0  0  0  0  0  0  0
    5.4341   -4.1414   -3.5216 H   0  0  0  0  0  0  0  0  0  0  0  0
    4.6037   -3.2103   -4.7404 H   0  0  0  0  0  0  0  0  0  0  0  0
    4.4148   -4.3278   -1.4607 H   0  0  0  0  0  0  0  0  0  0  0  0
    2.6844   -3.9058   -1.3026 H   0  0  0  0  0  0  0  0  0  0  0  0
  1  2  1  0
  1 19  1  0
  1 20  1  0
  1 21  1  0
  2  7  2  0
  2  3  1  0
  3  4  2  0
  4  5  1  0
  4 22  1  0
  5  6  2  0
  6  7  1  0
  6 23  1  0
  7  8  1  0
  8  9  2  0
  8 10  1  0
 10 18  1  0
 10 11  1  0
 11 12  1  0
 11 24  1  0
 11 25  1  0
 12 16  1  0
 12 13  1  0
 12 26  1  1
 13 14  1  0
 13 27  1  0
 13 28  1  0
 14 15  1  0
 15 16  1  0
 15 29  1  0
 15 30  1  0
 16 17  1  6
 16 18  1  0
 17 31  1  0
 17 32  1  0
 17 33  1  0
 18 34  1  0
 18 35  1  0
M  END
>  <i_m_ct_stereo_status>  (409) 
1

>  <s_m_source_file>  (409) 
/var/tmp/pbs.5076255.sched01/tmpnhftudgm/135squ2m_dv.sdf

>  <i_m_source_file_index>  (409) 
32

>  <i_lp_mmshare_version>  (409) 
48012

>  <i_f3d_flags>  (409) 
0

>  <s_epik_input>  (409) 
W0NIM11jMW5bY0hdbltjSF1jMUMoPU8pTihbQ0gyXTIpW0NIMl1bQ0BASF0oW0NAQF0yM1tDSDNdKVtDSDJdT1tDSDJdMw==

>  <s_epik_cmdline>  (409) 
J2VwaWtfcHl0aG9uJywgJy1waHQnLCAnMi4wJywgJy1waCcsICc3LjAnLCAnLXRuJywgJzgnLCAnLW1hJywgJzIwMCcsICctaW1hZScsICc8aW5maWxlLm1hZT4nLCAnLW9tYWUnLCAnPG91dGZpbGUubWFlPic=

>  <r_lp_tautomer_probability>  (409) 
1

>  <r_epik_Ionization_Penalty>  (409) 
9.05566e-07

>  <r_epik_Ionization_Penalty_Charging>  (409) 
0

>  <r_epik_Ionization_Penalty_Neutral>  (409) 
9.05566e-07

>  <r_epik_State_Penalty>  (409) 
-0

>  <r_epik_Charging_Adjusted_Penalty>  (409) 
0

>  <i_epik_Tot_Q>  (409) 
0

>  <i_epik_Tot_abs_Q>  (409) 
0

>  <s_epik_Chemistry_Notes>  (409) 
This compound contains an electron-poor aromatic ring that is susceptible to covalent hydrolysis at low pH, typically resulting in measured values for nitrogen ring protonation that are around two units higher than predicted values.

>  <s_lp_Force_Field>  (409) 
OPLS3e

>  <r_lp_Energy>  (409) 
10.0864

>  <b_lp_Chiralities_Consistent>  (409) 
1

>  <s_lp_Variant>  (409) 
110:0-1

>  <s_i_glide_gridfile>  (409) 
pfpi4k_grid

>  <i_i_glide_lignum>  (409) 
32

>  <i_i_glide_rotatable_bonds>  (409) 
2

>  <r_i_docking_score>  (409) 
-2.85888

>  <r_i_glide_ligand_efficiency>  (409) 
-0.158826

>  <r_i_glide_ligand_efficiency_sa>  (409) 
-0.416243

>  <r_i_glide_ligand_efficiency_ln>  (409) 
-0.734859

>  <r_i_glide_gscore>  (409) 
-2.85888

>  <r_i_glide_lipo>  (409) 
-0.372622

>  <r_i_glide_hbond>  (409) 
0

>  <r_i_glide_metal>  (409) 
-0

>  <r_i_glide_rewards>  (409) 
-1.723

>  <r_i_glide_evdw>  (409) 
-19.8449

>  <r_i_glide_ecoul>  (409) 
-2.09598

>  <r_i_glide_erotb>  (409) 
0.570543

>  <r_i_glide_esite>  (409) 
-0.0271531

>  <r_i_glide_emodel>  (409) 
-24.7897

>  <r_i_glide_energy>  (409) 
-21.9409

>  <r_i_glide_einternal>  (409) 
1.75664

>  <r_i_glide_intrahb_reward>  (409) 
-0

>  <i_i_glide_confnum>  (409) 
3

>  <i_i_glide_posenum>  (409) 
17

>  <r_i_glide_eff_state_penalty>  (409) 
0

>  <ligand_id>  (409) 
110

>  <original_smiles>  (409) 
Cc1ncncc1C(=O)N1CC2COCC2(C)C1

>  <smiles>  (409) 
[H]c1nc([H])c(C(=O)N2C([H])([H])C3([H])C([H])([H])OC([H])([H])C3(C([H])([H])[H])C2([H])[H])c(C([H])([H])[H])n1

$$$$
111:0:0
     RDKit          3D

 15 16  0  0  1  0  0  0  0  0999 V2000
    5.7257   -2.5193   -0.2822 C   0  0  0  0  0  0  0  0  0  0  0  0
    5.9162   -1.4598   -1.1410 N   0  0  0  0  0  0  0  0  0  0  0  0
    4.8891   -1.6792   -1.9449 C   0  0  0  0  0  0  0  0  0  0  0  0
    4.1826   -2.7289   -1.6411 N   0  0  0  0  0  0  0  0  0  0  0  0
    4.6939   -3.3334   -0.5511 N   0  0  0  0  0  0  0  0  0  0  0  0
    3.0517   -3.0373   -2.4529 C   0  0  0  0  0  0  0  0  0  0  0  0
    2.9324   -1.7180   -3.2578 C   0  0  0  0  0  0  0  0  0  0  0  0
    4.3092   -1.0204   -3.1371 C   0  0  0  0  0  0  0  0  0  0  0  0
    6.3685   -2.6984    0.5672 H   0  0  0  0  0  0  0  0  0  0  0  0
    3.3094   -3.8624   -3.1131 H   0  0  0  0  0  0  0  0  0  0  0  0
    2.1785   -3.2817   -1.8513 H   0  0  0  0  0  0  0  0  0  0  0  0
    2.5662   -1.8314   -4.2827 H   0  0  0  0  0  0  0  0  0  0  0  0
    2.2141   -1.0915   -2.7285 H   0  0  0  0  0  0  0  0  0  0  0  0
    4.2477    0.0617   -3.0103 H   0  0  0  0  0  0  0  0  0  0  0  0
    4.9258   -1.2665   -4.0013 H   0  0  0  0  0  0  0  0  0  0  0  0
  1  5  2  0
  1  2  1  0
  1  9  1  0
  2  3  2  0
  3  8  1  0
  3  4  1  0
  4  5  1  0
  4  6  1  0
  6  7  1  0
  6 10  1  0
  6 11  1  0
  7  8  1  0
  7 12  1  0
  7 13  1  0
  8 14  1  0
  8 15  1  0
M  END
>  <i_m_ct_stereo_status>  (410) 
1

>  <s_m_source_file>  (410) 
/var/tmp/pbs.5076255.sched01/tmpnhftudgm/135squ2m_dv.sdf

>  <i_m_source_file_index>  (410) 
33

>  <i_lp_mmshare_version>  (410) 
48012

>  <i_f3d_flags>  (410) 
0

>  <s_epik_input>  (410) 
bjFbY0hdbm4oYzEyKVtDSDJdW0NIMl1bQ0gyXTI=

>  <s_epik_cmdline>  (410) 
J2VwaWtfcHl0aG9uJywgJy1waHQnLCAnMi4wJywgJy1waCcsICc3LjAnLCAnLXRuJywgJzgnLCAnLW1hJywgJzIwMCcsICctaW1hZScsICc8aW5maWxlLm1hZT4nLCAnLW9tYWUnLCAnPG91dGZpbGUubWFlPic=

>  <r_lp_tautomer_probability>  (410) 
1

>  <r_epik_Ionization_Penalty>  (410) 
0.000434029

>  <r_epik_Ionization_Penalty_Charging>  (410) 
0

>  <r_epik_Ionization_Penalty_Neutral>  (410) 
0.000434029

>  <r_epik_State_Penalty>  (410) 
0.000267475

>  <r_epik_Charging_Adjusted_Penalty>  (410) 
0.000267475

>  <i_epik_Tot_Q>  (410) 
0

>  <i_epik_Tot_abs_Q>  (410) 
0

>  <s_lp_Force_Field>  (410) 
OPLS3e

>  <r_lp_Energy>  (410) 
9.15258

>  <b_lp_Chiralities_Consistent>  (410) 
1

>  <s_lp_Variant>  (410) 
111:0-1

>  <s_i_glide_gridfile>  (410) 
pfpi4k_grid

>  <i_i_glide_lignum>  (410) 
33

>  <i_i_glide_rotatable_bonds>  (410) 
0

>  <r_i_docking_score>  (410) 
-3.47156

>  <r_i_glide_ligand_efficiency>  (410) 
-0.433945

>  <r_i_glide_ligand_efficiency_sa>  (410) 
-0.867889

>  <r_i_glide_ligand_efficiency_ln>  (410) 
-1.12733

>  <r_i_glide_gscore>  (410) 
-3.47156

>  <r_i_glide_lipo>  (410) 
-0.146686

>  <r_i_glide_hbond>  (410) 
-0.0892

>  <r_i_glide_metal>  (410) 
-0

>  <r_i_glide_rewards>  (410) 
-2.25

>  <r_i_glide_evdw>  (410) 
-12.9827

>  <r_i_glide_ecoul>  (410) 
-1.87405

>  <r_i_glide_erotb>  (410) 
0

>  <r_i_glide_esite>  (410) 
-0.0554287

>  <r_i_glide_emodel>  (410) 
-18.2127

>  <r_i_glide_energy>  (410) 
-14.8567

>  <r_i_glide_einternal>  (410) 
0

>  <r_i_glide_intrahb_reward>  (410) 
-0

>  <i_i_glide_confnum>  (410) 
1

>  <i_i_glide_posenum>  (410) 
22

>  <r_i_glide_eff_state_penalty>  (410) 
0

>  <ligand_id>  (410) 
111

>  <original_smiles>  (410) 
c1nc2n(n1)CCC2

>  <smiles>  (410) 
[H]c1nc2n(n1)C([H])([H])C([H])([H])C2([H])[H]

$$$$
111:0:1
     RDKit          3D

 15 16  0  0  1  0  0  0  0  0999 V2000
    4.2122   -4.0715    0.1679 C   0  0  0  0  0  0  0  0  0  0  0  0
    2.9454   -3.7737   -0.2876 N   0  0  0  0  0  0  0  0  0  0  0  0
    3.2730   -3.3734   -1.5057 C   0  0  0  0  0  0  0  0  0  0  0  0
    4.5501   -3.4247   -1.7651 N   0  0  0  0  0  0  0  0  0  0  0  0
    5.2257   -3.8638   -0.6885 N   0  0  0  0  0  0  0  0  0  0  0  0
    4.9924   -3.0436   -3.0684 C   0  0  0  0  0  0  0  0  0  0  0  0
    3.6295   -3.0229   -3.8133 C   0  0  0  0  0  0  0  0  0  0  0  0
    2.5448   -2.9003   -2.7044 C   0  0  0  0  0  0  0  0  0  0  0  0
    4.3976   -4.4524    1.1589 H   0  0  0  0  0  0  0  0  0  0  0  0
    5.4185   -2.0456   -3.0091 H   0  0  0  0  0  0  0  0  0  0  0  0
    5.7178   -3.7472   -3.4705 H   0  0  0  0  0  0  0  0  0  0  0  0
    3.5451   -2.2637   -4.5931 H   0  0  0  0  0  0  0  0  0  0  0  0
    3.5069   -3.9968   -4.2943 H   0  0  0  0  0  0  0  0  0  0  0  0
    1.6565   -3.4987   -2.8938 H   0  0  0  0  0  0  0  0  0  0  0  0
    2.2608   -1.8589   -2.5511 H   0  0  0  0  0  0  0  0  0  0  0  0
  1  5  2  0
  1  2  1  0
  1  9  1  0
  2  3  2  0
  3  8  1  0
  3  4  1  0
  4  5  1  0
  4  6  1  0
  6  7  1  0
  6 10  1  0
  6 11  1  0
  7  8  1  0
  7 12  1  0
  7 13  1  0
  8 14  1  0
  8 15  1  0
M  END
>  <i_m_ct_stereo_status>  (411) 
1

>  <s_m_source_file>  (411) 
/var/tmp/pbs.5076255.sched01/tmpnhftudgm/135squ2m_dv.sdf

>  <i_m_source_file_index>  (411) 
33

>  <i_lp_mmshare_version>  (411) 
48012

>  <i_f3d_flags>  (411) 
0

>  <s_epik_input>  (411) 
bjFbY0hdbm4oYzEyKVtDSDJdW0NIMl1bQ0gyXTI=

>  <s_epik_cmdline>  (411) 
J2VwaWtfcHl0aG9uJywgJy1waHQnLCAnMi4wJywgJy1waCcsICc3LjAnLCAnLXRuJywgJzgnLCAnLW1hJywgJzIwMCcsICctaW1hZScsICc8aW5maWxlLm1hZT4nLCAnLW9tYWUnLCAnPG91dGZpbGUubWFlPic=

>  <r_lp_tautomer_probability>  (411) 
1

>  <r_epik_Ionization_Penalty>  (411) 
0.000434029

>  <r_epik_Ionization_Penalty_Charging>  (411) 
0

>  <r_epik_Ionization_Penalty_Neutral>  (411) 
0.000434029

>  <r_epik_State_Penalty>  (411) 
0.000267475

>  <r_epik_Charging_Adjusted_Penalty>  (411) 
0.000267475

>  <i_epik_Tot_Q>  (411) 
0

>  <i_epik_Tot_abs_Q>  (411) 
0

>  <s_lp_Force_Field>  (411) 
OPLS3e

>  <r_lp_Energy>  (411) 
9.15258

>  <b_lp_Chiralities_Consistent>  (411) 
1

>  <s_lp_Variant>  (411) 
111:0-1

>  <s_i_glide_gridfile>  (411) 
pfpi4k_grid

>  <i_i_glide_lignum>  (411) 
33

>  <i_i_glide_rotatable_bonds>  (411) 
0

>  <r_i_docking_score>  (411) 
-3.44776

>  <r_i_glide_ligand_efficiency>  (411) 
-0.43097

>  <r_i_glide_ligand_efficiency_sa>  (411) 
-0.861939

>  <r_i_glide_ligand_efficiency_ln>  (411) 
-1.1196

>  <r_i_glide_gscore>  (411) 
-3.44776

>  <r_i_glide_lipo>  (411) 
-0.308936

>  <r_i_glide_hbond>  (411) 
0

>  <r_i_glide_metal>  (411) 
-0

>  <r_i_glide_rewards>  (411) 
-2.39349

>  <r_i_glide_evdw>  (411) 
-14.8574

>  <r_i_glide_ecoul>  (411) 
0.00251575

>  <r_i_glide_erotb>  (411) 
0

>  <r_i_glide_esite>  (411) 
-0.00283377

>  <r_i_glide_emodel>  (411) 
-18.0736

>  <r_i_glide_energy>  (411) 
-14.8549

>  <r_i_glide_einternal>  (411) 
0

>  <r_i_glide_intrahb_reward>  (411) 
-0

>  <i_i_glide_confnum>  (411) 
1

>  <i_i_glide_posenum>  (411) 
5

>  <r_i_glide_eff_state_penalty>  (411) 
0

>  <ligand_id>  (411) 
111

>  <original_smiles>  (411) 
c1nc2n(n1)CCC2

>  <smiles>  (411) 
[H]c1nc2n(n1)C([H])([H])C([H])([H])C2([H])[H]

$$$$
111:0:2
     RDKit          3D

 15 16  0  0  1  0  0  0  0  0999 V2000
    3.8204   -2.6735    0.1592 C   0  0  0  0  0  0  0  0  0  0  0  0
    2.9999   -3.4803   -0.6026 N   0  0  0  0  0  0  0  0  0  0  0  0
    3.0825   -2.8129   -1.7418 C   0  0  0  0  0  0  0  0  0  0  0  0
    3.8299   -1.7450   -1.6855 N   0  0  0  0  0  0  0  0  0  0  0  0
    4.3584   -1.6089   -0.4573 N   0  0  0  0  0  0  0  0  0  0  0  0
    3.9830   -0.9639   -2.8676 C   0  0  0  0  0  0  0  0  0  0  0  0
    3.4189   -1.9585   -3.9100 C   0  0  0  0  0  0  0  0  0  0  0  0
    2.5466   -2.9669   -3.1132 C   0  0  0  0  0  0  0  0  0  0  0  0
    4.0427   -2.8844    1.1931 H   0  0  0  0  0  0  0  0  0  0  0  0
    3.3604   -0.0758   -2.7898 H   0  0  0  0  0  0  0  0  0  0  0  0
    5.0145   -0.6802   -3.0298 H   0  0  0  0  0  0  0  0  0  0  0  0
    2.8876   -1.4667   -4.7212 H   0  0  0  0  0  0  0  0  0  0  0  0
    4.2624   -2.5097   -4.3345 H   0  0  0  0  0  0  0  0  0  0  0  0
    2.6335   -3.9864   -3.4785 H   0  0  0  0  0  0  0  0  0  0  0  0
    1.5026   -2.6613   -3.1109 H   0  0  0  0  0  0  0  0  0  0  0  0
  1  5  2  0
  1  2  1  0
  1  9  1  0
  2  3  2  0
  3  8  1  0
  3  4  1  0
  4  5  1  0
  4  6  1  0
  6  7  1  0
  6 10  1  0
  6 11  1  0
  7  8  1  0
  7 12  1  0
  7 13  1  0
  8 14  1  0
  8 15  1  0
M  END
>  <i_m_ct_stereo_status>  (412) 
1

>  <s_m_source_file>  (412) 
/var/tmp/pbs.5076255.sched01/tmpnhftudgm/135squ2m_dv.sdf

>  <i_m_source_file_index>  (412) 
33

>  <i_lp_mmshare_version>  (412) 
48012

>  <i_f3d_flags>  (412) 
0

>  <s_epik_input>  (412) 
bjFbY0hdbm4oYzEyKVtDSDJdW0NIMl1bQ0gyXTI=

>  <s_epik_cmdline>  (412) 
J2VwaWtfcHl0aG9uJywgJy1waHQnLCAnMi4wJywgJy1waCcsICc3LjAnLCAnLXRuJywgJzgnLCAnLW1hJywgJzIwMCcsICctaW1hZScsICc8aW5maWxlLm1hZT4nLCAnLW9tYWUnLCAnPG91dGZpbGUubWFlPic=

>  <r_lp_tautomer_probability>  (412) 
1

>  <r_epik_Ionization_Penalty>  (412) 
0.000434029

>  <r_epik_Ionization_Penalty_Charging>  (412) 
0

>  <r_epik_Ionization_Penalty_Neutral>  (412) 
0.000434029

>  <r_epik_State_Penalty>  (412) 
0.000267475

>  <r_epik_Charging_Adjusted_Penalty>  (412) 
0.000267475

>  <i_epik_Tot_Q>  (412) 
0

>  <i_epik_Tot_abs_Q>  (412) 
0

>  <s_lp_Force_Field>  (412) 
OPLS3e

>  <r_lp_Energy>  (412) 
9.15258

>  <b_lp_Chiralities_Consistent>  (412) 
1

>  <s_lp_Variant>  (412) 
111:0-1

>  <s_i_glide_gridfile>  (412) 
pfpi4k_grid

>  <i_i_glide_lignum>  (412) 
33

>  <i_i_glide_rotatable_bonds>  (412) 
0

>  <r_i_docking_score>  (412) 
-3.34205

>  <r_i_glide_ligand_efficiency>  (412) 
-0.417756

>  <r_i_glide_ligand_efficiency_sa>  (412) 
-0.835512

>  <r_i_glide_ligand_efficiency_ln>  (412) 
-1.08528

>  <r_i_glide_gscore>  (412) 
-3.34205

>  <r_i_glide_lipo>  (412) 
-0.258023

>  <r_i_glide_hbond>  (412) 
0

>  <r_i_glide_metal>  (412) 
-0

>  <r_i_glide_rewards>  (412) 
-2.25

>  <r_i_glide_evdw>  (412) 
-15.5701

>  <r_i_glide_ecoul>  (412) 
0.253187

>  <r_i_glide_erotb>  (412) 
0

>  <r_i_glide_esite>  (412) 
-0.0934986

>  <r_i_glide_emodel>  (412) 
-18.5311

>  <r_i_glide_energy>  (412) 
-15.3169

>  <r_i_glide_einternal>  (412) 
0

>  <r_i_glide_intrahb_reward>  (412) 
-0

>  <i_i_glide_confnum>  (412) 
2

>  <i_i_glide_posenum>  (412) 
25

>  <r_i_glide_eff_state_penalty>  (412) 
0

>  <ligand_id>  (412) 
111

>  <original_smiles>  (412) 
c1nc2n(n1)CCC2

>  <smiles>  (412) 
[H]c1nc2n(n1)C([H])([H])C([H])([H])C2([H])[H]

$$$$
112:0:0
     RDKit          3D

 54 60  0  0  1  0  0  0  0  0999 V2000
    6.5799   -8.0642    5.1295 C   0  0  0  0  0  0  0  0  0  0  0  0
    5.7996   -7.0748    4.2536 C   0  0  1  0  0  0  0  0  0  0  0  0
    6.6110   -5.9063    3.6056 C   0  0  0  0  0  0  0  0  0  0  0  0
    6.1739   -5.5746    2.2102 N   0  0  0  0  0  0  0  0  0  0  0  0
    6.4162   -6.8352    1.5106 C   0  0  0  0  0  0  0  0  0  0  0  0
    5.3750   -7.9208    1.9345 C   0  0  0  0  0  0  0  0  0  0  0  0
    4.6866   -7.6530    3.3124 C   0  0  1  0  0  0  0  0  0  0  0  0
    3.3259   -8.3386    3.1675 C   0  0  0  0  0  0  0  0  0  0  0  0
    3.2026   -9.6714    3.5828 C   0  0  0  0  0  0  0  0  0  0  0  0
    2.0159  -10.3702    3.3198 C   0  0  0  0  0  0  0  0  0  0  0  0
    0.9647   -9.7212    2.6520 C   0  0  0  0  0  0  0  0  0  0  0  0
    1.0493   -8.3649    2.2786 C   0  0  0  0  0  0  0  0  0  0  0  0
   -0.0505   -7.8205    1.6896 O   0  0  0  0  0  0  0  0  0  0  0  0
    2.2395   -7.6155    2.5171 C   0  0  0  0  0  0  0  0  0  0  0  0
    2.3166   -6.0201    2.3069 C   0  0  2  0  0  0  0  0  0  0  0  0
    1.2450   -5.4225    3.0263 O   0  0  0  0  0  0  0  0  0  0  0  0
    2.1622   -5.4617    0.8453 C   0  0  0  0  0  0  0  0  0  0  0  0
    1.2542   -5.8734    0.1254 O   0  0  0  0  0  0  0  0  0  0  0  0
    3.1742   -4.3711    0.3075 C   0  0  1  0  0  0  0  0  0  0  0  0
    2.4696   -3.1087   -0.1936 C   0  0  0  0  0  0  0  0  0  0  0  0
    3.4360   -2.2404   -0.9033 N   0  0  0  0  0  0  0  0  0  0  0  0
    4.6451   -1.9650   -0.0791 C   0  0  0  0  0  0  0  0  0  0  0  0
    5.3173   -3.2740    0.4025 C   0  0  0  0  0  0  0  0  0  0  0  0
    4.3323   -4.0010    1.2014 N   0  0  0  0  0  0  0  0  0  0  0  0
    4.7293   -5.2080    1.9252 C   0  0  2  0  0  0  0  0  0  0  0  0
    3.6038   -5.4040    2.9770 C   0  0  2  0  0  0  0  0  0  0  0  0
    3.9902   -6.4235    3.9760 C   0  0  2  0  0  0  0  0  0  0  0  0
    4.9555   -6.2151    4.9842 O   0  0  0  0  0  0  0  0  0  0  0  0
    7.2054   -8.6806    4.4983 H   0  0  0  0  0  0  0  0  0  0  0  0
    5.8888   -8.7385    5.6307 H   0  0  0  0  0  0  0  0  0  0  0  0
    7.2002   -7.5779    5.8789 H   0  0  0  0  0  0  0  0  0  0  0  0
    6.6318   -5.0210    4.2469 H   0  0  0  0  0  0  0  0  0  0  0  0
    7.6514   -6.2189    3.5701 H   0  0  0  0  0  0  0  0  0  0  0  0
    6.3738   -6.6582    0.4383 H   0  0  0  0  0  0  0  0  0  0  0  0
    7.4252   -7.1960    1.7095 H   0  0  0  0  0  0  0  0  0  0  0  0
    4.6244   -8.0029    1.1489 H   0  0  0  0  0  0  0  0  0  0  0  0
    5.8465   -8.9099    1.9451 H   0  0  0  0  0  0  0  0  0  0  0  0
    4.0162  -10.1597    4.0935 H   0  0  0  0  0  0  0  0  0  0  0  0
    1.9228  -11.4025    3.6268 H   0  0  0  0  0  0  0  0  0  0  0  0
    0.0708  -10.2900    2.4436 H   0  0  0  0  0  0  0  0  0  0  0  0
   -0.5220   -8.4930    1.2066 H   0  0  0  0  0  0  0  0  0  0  0  0
    1.2982   -5.7125    3.9250 H   0  0  0  0  0  0  0  0  0  0  0  0
    3.6095   -4.8239   -0.5883 H   0  0  0  0  0  0  0  0  0  0  0  0
    1.6882   -3.3534   -0.9147 H   0  0  0  0  0  0  0  0  0  0  0  0
    2.0163   -2.5492    0.6182 H   0  0  0  0  0  0  0  0  0  0  0  0
    3.7159   -2.6993   -1.7662 H   0  0  0  0  0  0  0  0  0  0  0  0
    5.3428   -1.3737   -0.6719 H   0  0  0  0  0  0  0  0  0  0  0  0
    4.3524   -1.3479    0.7650 H   0  0  0  0  0  0  0  0  0  0  0  0
    5.6755   -3.8840   -0.4339 H   0  0  0  0  0  0  0  0  0  0  0  0
    6.1780   -3.0183    1.0211 H   0  0  0  0  0  0  0  0  0  0  0  0
    4.5154   -5.8965    1.1181 H   0  0  0  0  0  0  0  0  0  0  0  0
    3.3864   -4.4492    3.4716 H   0  0  0  0  0  0  0  0  0  0  0  0
    3.1380   -6.6633    4.6198 H   0  0  0  0  0  0  0  0  0  0  0  0
    2.9314   -1.3830   -1.1191 H   0  0  0  0  0  0  0  0  0  0  0  0
  2  1  1  1
  1 29  1  0
  1 30  1  0
  1 31  1  0
  2  7  1  0
  2 28  1  0
  2  3  1  0
  3  4  1  0
  3 32  1  0
  3 33  1  0
  4 25  1  0
  4  5  1  0
  5  6  1  0
  5 34  1  0
  5 35  1  0
  6  7  1  0
  6 36  1  0
  6 37  1  0
  7 27  1  0
  7  8  1  1
  8 14  2  0
  8  9  1  0
  9 10  2  0
  9 38  1  0
 10 11  1  0
 10 39  1  0
 11 12  2  0
 11 40  1  0
 12 13  1  0
 12 14  1  0
 13 41  1  0
 14 15  1  0
 15 26  1  0
 15 16  1  1
 15 17  1  0
 16 42  1  0
 17 18  2  0
 17 19  1  0
 19 24  1  0
 19 20  1  0
 19 43  1  6
 20 21  1  0
 20 44  1  0
 20 45  1  0
 21 22  1  0
 21 46  1  0
 21 54  1  0
 22 23  1  0
 22 47  1  0
 22 48  1  0
 23 24  1  0
 23 49  1  0
 23 50  1  0
 24 25  1  0
 25 26  1  0
 25 51  1  6
 26 27  1  0
 26 52  1  1
 27 28  1  0
 27 53  1  1
M  CHG  1  21   1
M  END
>  <i_m_ct_stereo_status>  (413) 
1

>  <s_m_source_file>  (413) 
/var/tmp/pbs.5076255.sched01/tmpnhftudgm/135squ2m_dv.sdf

>  <i_m_source_file_index>  (413) 
34

>  <i_lp_mmshare_version>  (413) 
48012

>  <i_f3d_flags>  (413) 
0

>  <s_epik_input>  (413) 
W0NIM11bQ0BdMShbQ0BAXTIzNClbQ0gyXU4oW0NIMl1bQ0gyXTIpW0NAQEhdNU42W0NASF0oW0NIMl1bTkhdW0NIMl1bQ0gyXTYpQyg9TylbQ0BdKFtPSF0pKFtDQEhdNVtDQEBIXTRPMSljN2MzW2NIXVtjSF1bY0hdYzdbT0hd

>  <s_epik_cmdline>  (413) 
J2VwaWtfcHl0aG9uJywgJy1waHQnLCAnMi4wJywgJy1waCcsICc3LjAnLCAnLXRuJywgJzgnLCAnLW1hJywgJzIwMCcsICctaW1hZScsICc8aW5maWxlLm1hZT4nLCAnLW9tYWUnLCAnPG91dGZpbGUubWFlPic=

>  <r_lp_tautomer_probability>  (413) 
1

>  <r_epik_Ionization_Penalty>  (413) 
0.221294

>  <r_epik_Ionization_Penalty_Charging>  (413) 
0.0814791

>  <r_epik_Ionization_Penalty_Neutral>  (413) 
0.139815

>  <r_epik_State_Penalty>  (413) 
0.281981

>  <r_epik_Charging_Adjusted_Penalty>  (413) 
0.36346

>  <i_epik_Tot_Q>  (413) 
1

>  <i_epik_Tot_abs_Q>  (413) 
1

>  <s_epik_Chemistry_Notes>  (413) 
This compound contains an acetal/aminal-like group ( X-CH(R)-Y where X, Y are N, S, or O) that may be acid/base labile, releasing an aldehyde.

>  <s_lp_Force_Field>  (413) 
OPLS3e

>  <r_lp_Energy>  (413) 
195.945

>  <b_lp_Chiralities_Consistent>  (413) 
1

>  <s_lp_Variant>  (413) 
112:0-1

>  <s_i_glide_gridfile>  (413) 
pfpi4k_grid

>  <i_i_glide_lignum>  (413) 
34

>  <i_i_glide_rotatable_bonds>  (413) 
2

>  <r_i_docking_score>  (413) 
-4.07432

>  <r_i_glide_ligand_efficiency>  (413) 
-0.145512

>  <r_i_glide_ligand_efficiency_sa>  (413) 
-0.441859

>  <r_i_glide_ligand_efficiency_ln>  (413) 
-0.940474

>  <r_i_glide_gscore>  (413) 
-4.07432

>  <r_i_glide_lipo>  (413) 
-0.320309

>  <r_i_glide_hbond>  (413) 
-0.331882

>  <r_i_glide_metal>  (413) 
-0

>  <r_i_glide_rewards>  (413) 
-0.812684

>  <r_i_glide_evdw>  (413) 
-20.0912

>  <r_i_glide_ecoul>  (413) 
-9.91214

>  <r_i_glide_erotb>  (413) 
0

>  <r_i_glide_esite>  (413) 
-0.118067

>  <r_i_glide_emodel>  (413) 
-37.1495

>  <r_i_glide_energy>  (413) 
-30.0034

>  <r_i_glide_einternal>  (413) 
0.751014

>  <r_i_glide_intrahb_reward>  (413) 
-0

>  <i_i_glide_confnum>  (413) 
1

>  <i_i_glide_posenum>  (413) 
5

>  <r_i_glide_eff_state_penalty>  (413) 
0

>  <ligand_id>  (413) 
112

>  <original_smiles>  (413) 
CC12CN3CCC14c1cccc(O)c1C1(O)C(=O)C5CNCCN5C3C1C4O2

>  <smiles>  (413) 
[H]Oc1c([H])c([H])c([H])c2c1C1(O[H])C(=O)C3([H])N(C([H])([H])C([H])([H])[N+]([H])([H])C3([H])[H])C3([H])N4C([H])([H])C([H])([H])C25C([H])(OC5(C([H])([H])[H])C4([H])[H])C13[H]

$$$$
112:0:1
     RDKit          3D

 54 60  0  0  1  0  0  0  0  0999 V2000
    6.5526   -1.6220   -0.7598 C   0  0  0  0  0  0  0  0  0  0  0  0
    6.0676   -2.6183    0.2513 C   0  0  1  0  0  0  0  0  0  0  0  0
    6.6962   -2.5118    1.6402 C   0  0  0  0  0  0  0  0  0  0  0  0
    5.7607   -2.7628    2.7833 N   0  0  0  0  0  0  0  0  0  0  0  0
    4.7675   -1.7005    2.6013 C   0  0  0  0  0  0  0  0  0  0  0  0
    3.9127   -1.9852    1.3384 C   0  0  0  0  0  0  0  0  0  0  0  0
    4.5804   -2.9715    0.3227 C   0  0  1  0  0  0  0  0  0  0  0  0
    3.4148   -3.6087   -0.3426 C   0  0  0  0  0  0  0  0  0  0  0  0
    2.9497   -3.0065   -1.5130 C   0  0  0  0  0  0  0  0  0  0  0  0
    1.7639   -3.4651   -2.0683 C   0  0  0  0  0  0  0  0  0  0  0  0
    1.0906   -4.5389   -1.4427 C   0  0  0  0  0  0  0  0  0  0  0  0
    1.6054   -5.2165   -0.3205 C   0  0  0  0  0  0  0  0  0  0  0  0
    0.8613   -6.2552    0.1748 O   0  0  0  0  0  0  0  0  0  0  0  0
    2.7796   -4.7539    0.3132 C   0  0  0  0  0  0  0  0  0  0  0  0
    3.5149   -5.5885    1.4660 C   0  0  2  0  0  0  0  0  0  0  0  0
    3.6605   -6.9125    0.9917 O   0  0  0  0  0  0  0  0  0  0  0  0
    2.7622   -5.7560    2.8330 C   0  0  0  0  0  0  0  0  0  0  0  0
    1.5755   -6.0704    2.8394 O   0  0  0  0  0  0  0  0  0  0  0  0
    3.5426   -5.4570    4.1831 C   0  0  1  0  0  0  0  0  0  0  0  0
    3.4975   -6.6345    5.1703 C   0  0  0  0  0  0  0  0  0  0  0  0
    4.0301   -6.2114    6.4819 N   0  0  0  0  0  0  0  0  0  0  0  0
    5.3619   -5.5823    6.3550 C   0  0  0  0  0  0  0  0  0  0  0  0
    5.3559   -4.3954    5.3579 C   0  0  0  0  0  0  0  0  0  0  0  0
    4.9494   -4.9157    4.0538 N   0  0  0  0  0  0  0  0  0  0  0  0
    4.9870   -4.0637    2.8617 C   0  0  2  0  0  0  0  0  0  0  0  0
    4.9743   -5.0680    1.6868 C   0  0  2  0  0  0  0  0  0  0  0  0
    5.2796   -4.3720    0.4153 C   0  0  2  0  0  0  0  0  0  0  0  0
    6.5543   -3.9242    0.0255 O   0  0  0  0  0  0  0  0  0  0  0  0
    6.1770   -0.6337   -0.5115 H   0  0  0  0  0  0  0  0  0  0  0  0
    6.1728   -1.8551   -1.7526 H   0  0  0  0  0  0  0  0  0  0  0  0
    7.6405   -1.6036   -0.7684 H   0  0  0  0  0  0  0  0  0  0  0  0
    7.5684   -3.1633    1.6679 H   0  0  0  0  0  0  0  0  0  0  0  0
    7.0601   -1.4930    1.7186 H   0  0  0  0  0  0  0  0  0  0  0  0
    4.1414   -1.5921    3.4940 H   0  0  0  0  0  0  0  0  0  0  0  0
    5.2713   -0.7445    2.5120 H   0  0  0  0  0  0  0  0  0  0  0  0
    2.9573   -2.3795    1.6773 H   0  0  0  0  0  0  0  0  0  0  0  0
    3.6675   -1.0483    0.8382 H   0  0  0  0  0  0  0  0  0  0  0  0
    3.4604   -2.1730   -1.9915 H   0  0  0  0  0  0  0  0  0  0  0  0
    1.3379   -3.0325   -2.9549 H   0  0  0  0  0  0  0  0  0  0  0  0
    0.2143   -4.8848   -1.8863 H   0  0  0  0  0  0  0  0  0  0  0  0
    1.3490   -6.8023    0.7719 H   0  0  0  0  0  0  0  0  0  0  0  0
    4.1516   -7.4085    1.6262 H   0  0  0  0  0  0  0  0  0  0  0  0
    2.9505   -4.6726    4.6641 H   0  0  0  0  0  0  0  0  0  0  0  0
    2.4790   -6.9811    5.3167 H   0  0  0  0  0  0  0  0  0  0  0  0
    4.0527   -7.4874    4.7916 H   0  0  0  0  0  0  0  0  0  0  0  0
    3.3987   -5.5347    6.8936 H   0  0  0  0  0  0  0  0  0  0  0  0
    5.6844   -5.2506    7.3335 H   0  0  0  0  0  0  0  0  0  0  0  0
    6.0855   -6.3365    6.0524 H   0  0  0  0  0  0  0  0  0  0  0  0
    4.6919   -3.5967    5.6955 H   0  0  0  0  0  0  0  0  0  0  0  0
    6.3661   -3.9891    5.2999 H   0  0  0  0  0  0  0  0  0  0  0  0
    3.9771   -3.6831    2.9877 H   0  0  0  0  0  0  0  0  0  0  0  0
    5.6739   -5.8926    1.8701 H   0  0  0  0  0  0  0  0  0  0  0  0
    5.1079   -5.0425   -0.4208 H   0  0  0  0  0  0  0  0  0  0  0  0
    4.0998   -7.0261    7.0816 H   0  0  0  0  0  0  0  0  0  0  0  0
  2  1  1  6
  1 29  1  0
  1 30  1  0
  1 31  1  0
  2  7  1  0
  2 28  1  0
  2  3  1  0
  3  4  1  0
  3 32  1  0
  3 33  1  0
  4 25  1  0
  4  5  1  0
  5  6  1  0
  5 34  1  0
  5 35  1  0
  6  7  1  0
  6 36  1  0
  6 37  1  0
  7 27  1  0
  7  8  1  6
  8 14  2  0
  8  9  1  0
  9 10  2  0
  9 38  1  0
 10 11  1  0
 10 39  1  0
 11 12  2  0
 11 40  1  0
 12 13  1  0
 12 14  1  0
 13 41  1  0
 14 15  1  0
 15 26  1  0
 15 16  1  6
 15 17  1  0
 16 42  1  0
 17 18  2  0
 17 19  1  0
 19 24  1  0
 19 20  1  0
 19 43  1  1
 20 21  1  0
 20 44  1  0
 20 45  1  0
 21 22  1  0
 21 46  1  0
 21 54  1  0
 22 23  1  0
 22 47  1  0
 22 48  1  0
 23 24  1  0
 23 49  1  0
 23 50  1  0
 24 25  1  0
 25 26  1  0
 25 51  1  6
 26 27  1  0
 26 52  1  1
 27 28  1  0
 27 53  1  6
M  CHG  1  21   1
M  END
>  <i_m_ct_stereo_status>  (414) 
1

>  <s_m_source_file>  (414) 
/var/tmp/pbs.5076255.sched01/tmpnhftudgm/135squ2m_dv.sdf

>  <i_m_source_file_index>  (414) 
34

>  <i_lp_mmshare_version>  (414) 
48012

>  <i_f3d_flags>  (414) 
0

>  <s_epik_input>  (414) 
W0NIM11bQ0BdMShbQ0BAXTIzNClbQ0gyXU4oW0NIMl1bQ0gyXTIpW0NAQEhdNU42W0NASF0oW0NIMl1bTkhdW0NIMl1bQ0gyXTYpQyg9TylbQ0BdKFtPSF0pKFtDQEhdNVtDQEBIXTRPMSljN2MzW2NIXVtjSF1bY0hdYzdbT0hd

>  <s_epik_cmdline>  (414) 
J2VwaWtfcHl0aG9uJywgJy1waHQnLCAnMi4wJywgJy1waCcsICc3LjAnLCAnLXRuJywgJzgnLCAnLW1hJywgJzIwMCcsICctaW1hZScsICc8aW5maWxlLm1hZT4nLCAnLW9tYWUnLCAnPG91dGZpbGUubWFlPic=

>  <r_lp_tautomer_probability>  (414) 
1

>  <r_epik_Ionization_Penalty>  (414) 
0.221294

>  <r_epik_Ionization_Penalty_Charging>  (414) 
0.0814791

>  <r_epik_Ionization_Penalty_Neutral>  (414) 
0.139815

>  <r_epik_State_Penalty>  (414) 
0.281981

>  <r_epik_Charging_Adjusted_Penalty>  (414) 
0.36346

>  <i_epik_Tot_Q>  (414) 
1

>  <i_epik_Tot_abs_Q>  (414) 
1

>  <s_epik_Chemistry_Notes>  (414) 
This compound contains an acetal/aminal-like group ( X-CH(R)-Y where X, Y are N, S, or O) that may be acid/base labile, releasing an aldehyde.

>  <s_lp_Force_Field>  (414) 
OPLS3e

>  <r_lp_Energy>  (414) 
195.945

>  <b_lp_Chiralities_Consistent>  (414) 
1

>  <s_lp_Variant>  (414) 
112:0-1

>  <s_i_glide_gridfile>  (414) 
pfpi4k_grid

>  <i_i_glide_lignum>  (414) 
34

>  <i_i_glide_rotatable_bonds>  (414) 
2

>  <r_i_docking_score>  (414) 
-1.73198

>  <r_i_glide_ligand_efficiency>  (414) 
-0.0618564

>  <r_i_glide_ligand_efficiency_sa>  (414) 
-0.187833

>  <r_i_glide_ligand_efficiency_ln>  (414) 
-0.399792

>  <r_i_glide_gscore>  (414) 
-1.73198

>  <r_i_glide_lipo>  (414) 
-0.335325

>  <r_i_glide_hbond>  (414) 
0

>  <r_i_glide_metal>  (414) 
-0

>  <r_i_glide_rewards>  (414) 
-0.821788

>  <r_i_glide_evdw>  (414) 
3.76152

>  <r_i_glide_ecoul>  (414) 
-5.06725

>  <r_i_glide_erotb>  (414) 
0

>  <r_i_glide_esite>  (414) 
-0.00285617

>  <r_i_glide_emodel>  (414) 
-1.7677

>  <r_i_glide_energy>  (414) 
-1.30573

>  <r_i_glide_einternal>  (414) 
1.35603

>  <r_i_glide_intrahb_reward>  (414) 
-0

>  <i_i_glide_confnum>  (414) 
1

>  <i_i_glide_posenum>  (414) 
14

>  <r_i_glide_eff_state_penalty>  (414) 
0

>  <ligand_id>  (414) 
112

>  <original_smiles>  (414) 
CC12CN3CCC14c1cccc(O)c1C1(O)C(=O)C5CNCCN5C3C1C4O2

>  <smiles>  (414) 
[H]Oc1c([H])c([H])c([H])c2c1C1(O[H])C(=O)C3([H])N(C([H])([H])C([H])([H])[N+]([H])([H])C3([H])[H])C3([H])N4C([H])([H])C([H])([H])C25C([H])(OC5(C([H])([H])[H])C4([H])[H])C13[H]

$$$$
112:1:0
     RDKit          3D

 54 60  0  0  1  0  0  0  0  0999 V2000
    5.7053   -0.3611    3.3591 C   0  0  0  0  0  0  0  0  0  0  0  0
    4.9702   -1.6924    3.1108 C   0  0  1  0  0  0  0  0  0  0  0  0
    4.3276   -2.4405    4.3298 C   0  0  0  0  0  0  0  0  0  0  0  0
    2.9971   -3.0541    3.9622 N   0  0  1  0  0  0  0  0  0  0  0  0
    2.1794   -1.8475    3.6038 C   0  0  0  0  0  0  0  0  0  0  0  0
    2.6454   -1.3251    2.2026 C   0  0  0  0  0  0  0  0  0  0  0  0
    4.1008   -1.7606    1.7979 C   0  0  1  0  0  0  0  0  0  0  0  0
    4.0509   -1.8010    0.2697 C   0  0  0  0  0  0  0  0  0  0  0  0
    4.4415   -0.6644   -0.4317 C   0  0  0  0  0  0  0  0  0  0  0  0
    4.3219   -0.6249   -1.8180 C   0  0  0  0  0  0  0  0  0  0  0  0
    3.7165   -1.6720   -2.5026 C   0  0  0  0  0  0  0  0  0  0  0  0
    3.3214   -2.8246   -1.8305 C   0  0  0  0  0  0  0  0  0  0  0  0
    2.7125   -3.6998   -2.6579 O   0  0  0  0  0  0  0  0  0  0  0  0
    3.5377   -2.9847   -0.4249 C   0  0  0  0  0  0  0  0  0  0  0  0
    3.4919   -4.3915    0.3340 C   0  0  2  0  0  0  0  0  0  0  0  0
    4.4023   -5.2524   -0.3130 O   0  0  0  0  0  0  0  0  0  0  0  0
    2.1404   -5.1785    0.3660 C   0  0  0  0  0  0  0  0  0  0  0  0
    1.4180   -5.2067   -0.6270 O   0  0  0  0  0  0  0  0  0  0  0  0
    1.5918   -5.7454    1.7451 C   0  0  1  0  0  0  0  0  0  0  0  0
    1.1249   -7.1917    1.6210 C   0  0  0  0  0  0  0  0  0  0  0  0
    0.2891   -7.5060    2.7796 N   0  0  0  0  0  0  0  0  0  0  0  0
    0.9534   -7.2001    4.0559 C   0  0  0  0  0  0  0  0  0  0  0  0
    1.4074   -5.7178    4.1309 C   0  0  0  0  0  0  0  0  0  0  0  0
    2.3036   -5.4186    3.0125 N   0  0  0  0  0  0  0  0  0  0  0  0
    2.8707   -4.0827    2.8181 C   0  0  2  0  0  0  0  0  0  0  0  0
    4.0425   -4.2620    1.8121 C   0  0  2  0  0  0  0  0  0  0  0  0
    4.9040   -3.0901    1.7672 C   0  0  2  0  0  0  0  0  0  0  0  0
    5.8237   -2.7555    2.7783 O   0  0  0  0  0  0  0  0  0  0  0  0
    4.9879    0.4299    3.6071 H   0  0  0  0  0  0  0  0  0  0  0  0
    6.1864   -0.0741    2.4189 H   0  0  0  0  0  0  0  0  0  0  0  0
    6.4503   -0.3785    4.1509 H   0  0  0  0  0  0  0  0  0  0  0  0
    5.0041   -3.1781    4.7869 H   0  0  0  0  0  0  0  0  0  0  0  0
    4.1729   -1.6963    5.1253 H   0  0  0  0  0  0  0  0  0  0  0  0
    1.1113   -2.0889    3.5919 H   0  0  0  0  0  0  0  0  0  0  0  0
    2.3001   -1.0483    4.3525 H   0  0  0  0  0  0  0  0  0  0  0  0
    1.9145   -1.6523    1.4531 H   0  0  0  0  0  0  0  0  0  0  0  0
    2.5432   -0.2237    2.1776 H   0  0  0  0  0  0  0  0  0  0  0  0
    4.8176    0.1925    0.1243 H   0  0  0  0  0  0  0  0  0  0  0  0
    4.5304    0.2891   -2.3536 H   0  0  0  0  0  0  0  0  0  0  0  0
    3.5086   -1.5727   -3.5581 H   0  0  0  0  0  0  0  0  0  0  0  0
    2.6635   -4.6058   -2.3703 H   0  0  0  0  0  0  0  0  0  0  0  0
    4.0318   -5.4911   -1.1647 H   0  0  0  0  0  0  0  0  0  0  0  0
    0.6445   -5.2251    1.8579 H   0  0  0  0  0  0  0  0  0  0  0  0
    0.5485   -7.3345    0.6977 H   0  0  0  0  0  0  0  0  0  0  0  0
    1.9920   -7.8515    1.5588 H   0  0  0  0  0  0  0  0  0  0  0  0
    0.0633   -8.4980    2.7481 H   0  0  0  0  0  0  0  0  0  0  0  0
    0.3062   -7.4454    4.8988 H   0  0  0  0  0  0  0  0  0  0  0  0
    1.8327   -7.8339    4.1554 H   0  0  0  0  0  0  0  0  0  0  0  0
    0.5376   -5.0682    4.1370 H   0  0  0  0  0  0  0  0  0  0  0  0
    1.9253   -5.5522    5.0712 H   0  0  0  0  0  0  0  0  0  0  0  0
    2.0687   -3.6121    2.2557 H   0  0  0  0  0  0  0  0  0  0  0  0
    4.6042   -5.1522    2.0966 H   0  0  0  0  0  0  0  0  0  0  0  0
    5.6135   -3.1819    0.9462 H   0  0  0  0  0  0  0  0  0  0  0  0
    2.6181   -3.4550    4.8030 H   0  0  0  0  0  0  0  0  0  0  0  0
  2  1  1  1
  1 29  1  0
  1 30  1  0
  1 31  1  0
  2  7  1  0
  2 28  1  0
  2  3  1  0
  3  4  1  0
  3 32  1  0
  3 33  1  0
  4 25  1  0
  4  5  1  0
  4 54  1  1
  5  6  1  0
  5 34  1  0
  5 35  1  0
  6  7  1  0
  6 36  1  0
  6 37  1  0
  7 27  1  0
  7  8  1  6
  8 14  2  0
  8  9  1  0
  9 10  2  0
  9 38  1  0
 10 11  1  0
 10 39  1  0
 11 12  2  0
 11 40  1  0
 12 13  1  0
 12 14  1  0
 13 41  1  0
 14 15  1  0
 15 26  1  0
 15 16  1  6
 15 17  1  0
 16 42  1  0
 17 18  2  0
 17 19  1  0
 19 24  1  0
 19 20  1  0
 19 43  1  1
 20 21  1  0
 20 44  1  0
 20 45  1  0
 21 22  1  0
 21 46  1  0
 22 23  1  0
 22 47  1  0
 22 48  1  0
 23 24  1  0
 23 49  1  0
 23 50  1  0
 24 25  1  0
 25 26  1  0
 25 51  1  6
 26 27  1  0
 26 52  1  1
 27 28  1  0
 27 53  1  6
M  CHG  1   4   1
M  END
>  <i_m_ct_stereo_status>  (415) 
1

>  <s_m_source_file>  (415) 
/var/tmp/pbs.5076255.sched01/tmpnhftudgm/135squ2m_dv.sdf

>  <i_m_source_file_index>  (415) 
35

>  <i_lp_mmshare_version>  (415) 
48012

>  <i_f3d_flags>  (415) 
0

>  <s_epik_input>  (415) 
W0NIM11bQ0BdMShbQ0BAXTIzNClbQ0gyXU4oW0NIMl1bQ0gyXTIpW0NAQEhdNU42W0NASF0oW0NIMl1bTkhdW0NIMl1bQ0gyXTYpQyg9TylbQ0BdKFtPSF0pKFtDQEhdNVtDQEBIXTRPMSljN2MzW2NIXVtjSF1bY0hdYzdbT0hd

>  <s_epik_cmdline>  (415) 
J2VwaWtfcHl0aG9uJywgJy1waHQnLCAnMi4wJywgJy1waCcsICc3LjAnLCAnLXRuJywgJzgnLCAnLW1hJywgJzIwMCcsICctaW1hZScsICc8aW5maWxlLm1hZT4nLCAnLW9tYWUnLCAnPG91dGZpbGUubWFlPic=

>  <r_epik_Ionization_Penalty>  (415) 
0.63026

>  <r_epik_Ionization_Penalty_Charging>  (415) 
0.37003

>  <r_epik_Ionization_Penalty_Neutral>  (415) 
0.26023

>  <r_epik_State_Penalty>  (415) 
1.07514

>  <r_epik_Charging_Adjusted_Penalty>  (415) 
1.44516

>  <i_epik_Tot_Q>  (415) 
1

>  <i_epik_Tot_abs_Q>  (415) 
1

>  <s_epik_Chemistry_Notes>  (415) 
This compound contains an acetal/aminal-like group ( X-CH(R)-Y where X, Y are N, S, or O) that may be acid/base labile, releasing an aldehyde.

>  <s_lp_Force_Field>  (415) 
OPLS3e

>  <r_lp_Energy>  (415) 
197.104

>  <b_lp_Chiralities_Consistent>  (415) 
1

>  <s_lp_Variant>  (415) 
112:0-2

>  <s_i_glide_gridfile>  (415) 
pfpi4k_grid

>  <i_i_glide_lignum>  (415) 
35

>  <i_i_glide_rotatable_bonds>  (415) 
2

>  <r_i_docking_score>  (415) 
-4.12018

>  <r_i_glide_ligand_efficiency>  (415) 
-0.147149

>  <r_i_glide_ligand_efficiency_sa>  (415) 
-0.446832

>  <r_i_glide_ligand_efficiency_ln>  (415) 
-0.951059

>  <r_i_glide_gscore>  (415) 
-4.12018

>  <r_i_glide_lipo>  (415) 
-0.287179

>  <r_i_glide_hbond>  (415) 
-0.209019

>  <r_i_glide_metal>  (415) 
-0

>  <r_i_glide_rewards>  (415) 
-1.28785

>  <r_i_glide_evdw>  (415) 
-8.23846

>  <r_i_glide_ecoul>  (415) 
-12.735

>  <r_i_glide_erotb>  (415) 
0

>  <r_i_glide_esite>  (415) 
-0.066865

>  <r_i_glide_emodel>  (415) 
-27.3195

>  <r_i_glide_energy>  (415) 
-20.9735

>  <r_i_glide_einternal>  (415) 
1.69336

>  <r_i_glide_intrahb_reward>  (415) 
-0.5

>  <i_i_glide_confnum>  (415) 
2

>  <i_i_glide_posenum>  (415) 
8

>  <r_i_glide_eff_state_penalty>  (415) 
0

>  <ligand_id>  (415) 
112

>  <original_smiles>  (415) 
CC12CN3CCC14c1cccc(O)c1C1(O)C(=O)C5CNCCN5C3C1C4O2

>  <smiles>  (415) 
[H]Oc1c([H])c([H])c([H])c2c1C1(O[H])C(=O)C3([H])N(C([H])([H])C([H])([H])N([H])C3([H])[H])C3([H])C1([H])C1([H])OC4(C([H])([H])[H])C21C([H])([H])C([H])([H])[N+]3([H])C4([H])[H]

$$$$
112:1:1
     RDKit          3D

 54 60  0  0  1  0  0  0  0  0999 V2000
    5.6413   -2.6646    5.7610 C   0  0  0  0  0  0  0  0  0  0  0  0
    4.6695   -3.7797    5.4082 C   0  0  1  0  0  0  0  0  0  0  0  0
    3.9852   -4.5351    6.5855 C   0  0  0  0  0  0  0  0  0  0  0  0
    2.5521   -4.8516    6.2796 N   0  0  1  0  0  0  0  0  0  0  0  0
    1.9668   -3.5063    6.1095 C   0  0  0  0  0  0  0  0  0  0  0  0
    2.4174   -2.9066    4.7333 C   0  0  0  0  0  0  0  0  0  0  0  0
    3.7357   -3.5125    4.1688 C   0  0  1  0  0  0  0  0  0  0  0  0
    3.5679   -3.3652    2.6618 C   0  0  0  0  0  0  0  0  0  0  0  0
    4.0819   -2.2044    2.0607 C   0  0  0  0  0  0  0  0  0  0  0  0
    3.8387   -1.9642    0.7039 C   0  0  0  0  0  0  0  0  0  0  0  0
    3.1029   -2.9021   -0.0528 C   0  0  0  0  0  0  0  0  0  0  0  0
    2.6458   -4.1219    0.5131 C   0  0  0  0  0  0  0  0  0  0  0  0
    2.0177   -5.0035   -0.3180 O   0  0  0  0  0  0  0  0  0  0  0  0
    2.8422   -4.3939    1.9022 C   0  0  0  0  0  0  0  0  0  0  0  0
    2.5528   -5.8414    2.5415 C   0  0  2  0  0  0  0  0  0  0  0  0
    3.2344   -6.8199    1.7788 O   0  0  0  0  0  0  0  0  0  0  0  0
    1.0723   -6.3604    2.5885 C   0  0  0  0  0  0  0  0  0  0  0  0
    0.3451   -6.2683    1.6032 O   0  0  0  0  0  0  0  0  0  0  0  0
    0.4804   -6.9521    3.9347 C   0  0  1  0  0  0  0  0  0  0  0  0
   -0.1931   -8.3091    3.7120 C   0  0  0  0  0  0  0  0  0  0  0  0
   -0.9648   -8.6571    4.9181 N   0  0  0  0  0  0  0  0  0  0  0  0
   -0.1548   -8.5955    6.1419 C   0  0  0  0  0  0  0  0  0  0  0  0
    0.5227   -7.2093    6.3261 C   0  0  0  0  0  0  0  0  0  0  0  0
    1.3384   -6.9086    5.1594 N   0  0  0  0  0  0  0  0  0  0  0  0
    2.1738   -5.6993    5.0663 C   0  0  2  0  0  0  0  0  0  0  0  0
    3.2146   -5.9816    3.9608 C   0  0  2  0  0  0  0  0  0  0  0  0
    4.2780   -4.9614    3.9594 C   0  0  2  0  0  0  0  0  0  0  0  0
    5.2870   -4.9080    4.9100 O   0  0  0  0  0  0  0  0  0  0  0  0
    5.1269   -1.7875    6.1405 H   0  0  0  0  0  0  0  0  0  0  0  0
    6.0897   -2.3455    4.8135 H   0  0  0  0  0  0  0  0  0  0  0  0
    6.4637   -2.9433    6.4217 H   0  0  0  0  0  0  0  0  0  0  0  0
    4.5620   -5.4073    6.9333 H   0  0  0  0  0  0  0  0  0  0  0  0
    4.0249   -3.8663    7.4488 H   0  0  0  0  0  0  0  0  0  0  0  0
    0.8737   -3.5458    6.1634 H   0  0  0  0  0  0  0  0  0  0  0  0
    2.2455   -2.8190    6.9150 H   0  0  0  0  0  0  0  0  0  0  0  0
    1.6076   -3.0467    4.0180 H   0  0  0  0  0  0  0  0  0  0  0  0
    2.5129   -1.8171    4.8207 H   0  0  0  0  0  0  0  0  0  0  0  0
    4.6529   -1.4981    2.6502 H   0  0  0  0  0  0  0  0  0  0  0  0
    4.1893   -1.0498    0.2471 H   0  0  0  0  0  0  0  0  0  0  0  0
    2.8849   -2.6670   -1.0784 H   0  0  0  0  0  0  0  0  0  0  0  0
    2.2559   -4.9343   -1.2349 H   0  0  0  0  0  0  0  0  0  0  0  0
    4.1442   -6.5788    1.7028 H   0  0  0  0  0  0  0  0  0  0  0  0
   -0.3682   -6.2958    4.1398 H   0  0  0  0  0  0  0  0  0  0  0  0
   -0.8276   -8.2835    2.8241 H   0  0  0  0  0  0  0  0  0  0  0  0
    0.5757   -9.0579    3.5172 H   0  0  0  0  0  0  0  0  0  0  0  0
   -1.3896   -9.5911    4.8497 H   0  0  0  0  0  0  0  0  0  0  0  0
   -0.7361   -8.8817    7.0143 H   0  0  0  0  0  0  0  0  0  0  0  0
    0.6109   -9.3686    6.0813 H   0  0  0  0  0  0  0  0  0  0  0  0
   -0.2346   -6.4369    6.4825 H   0  0  0  0  0  0  0  0  0  0  0  0
    1.1420   -7.2429    7.2261 H   0  0  0  0  0  0  0  0  0  0  0  0
    1.4526   -5.0327    4.6154 H   0  0  0  0  0  0  0  0  0  0  0  0
    3.6196   -6.9864    4.1171 H   0  0  0  0  0  0  0  0  0  0  0  0
    4.9027   -5.0759    3.0647 H   0  0  0  0  0  0  0  0  0  0  0  0
    2.1672   -5.2727    7.1078 H   0  0  0  0  0  0  0  0  0  0  0  0
  2  1  1  1
  1 29  1  0
  1 30  1  0
  1 31  1  0
  2  7  1  0
  2 28  1  0
  2  3  1  0
  3  4  1  0
  3 32  1  0
  3 33  1  0
  4 25  1  0
  4  5  1  0
  4 54  1  1
  5  6  1  0
  5 34  1  0
  5 35  1  0
  6  7  1  0
  6 36  1  0
  6 37  1  0
  7 27  1  0
  7  8  1  6
  8 14  2  0
  8  9  1  0
  9 10  2  0
  9 38  1  0
 10 11  1  0
 10 39  1  0
 11 12  2  0
 11 40  1  0
 12 13  1  0
 12 14  1  0
 13 41  1  0
 14 15  1  0
 15 26  1  0
 15 16  1  6
 15 17  1  0
 16 42  1  0
 17 18  2  0
 17 19  1  0
 19 24  1  0
 19 20  1  0
 19 43  1  1
 20 21  1  0
 20 44  1  0
 20 45  1  0
 21 22  1  0
 21 46  1  0
 22 23  1  0
 22 47  1  0
 22 48  1  0
 23 24  1  0
 23 49  1  0
 23 50  1  0
 24 25  1  0
 25 26  1  0
 25 51  1  6
 26 27  1  0
 26 52  1  1
 27 28  1  0
 27 53  1  6
M  CHG  1   4   1
M  END
>  <i_m_ct_stereo_status>  (416) 
1

>  <s_m_source_file>  (416) 
/var/tmp/pbs.5076255.sched01/tmpnhftudgm/135squ2m_dv.sdf

>  <i_m_source_file_index>  (416) 
35

>  <i_lp_mmshare_version>  (416) 
48012

>  <i_f3d_flags>  (416) 
0

>  <s_epik_input>  (416) 
W0NIM11bQ0BdMShbQ0BAXTIzNClbQ0gyXU4oW0NIMl1bQ0gyXTIpW0NAQEhdNU42W0NASF0oW0NIMl1bTkhdW0NIMl1bQ0gyXTYpQyg9TylbQ0BdKFtPSF0pKFtDQEhdNVtDQEBIXTRPMSljN2MzW2NIXVtjSF1bY0hdYzdbT0hd

>  <s_epik_cmdline>  (416) 
J2VwaWtfcHl0aG9uJywgJy1waHQnLCAnMi4wJywgJy1waCcsICc3LjAnLCAnLXRuJywgJzgnLCAnLW1hJywgJzIwMCcsICctaW1hZScsICc8aW5maWxlLm1hZT4nLCAnLW9tYWUnLCAnPG91dGZpbGUubWFlPic=

>  <r_epik_Ionization_Penalty>  (416) 
0.63026

>  <r_epik_Ionization_Penalty_Charging>  (416) 
0.37003

>  <r_epik_Ionization_Penalty_Neutral>  (416) 
0.26023

>  <r_epik_State_Penalty>  (416) 
1.07514

>  <r_epik_Charging_Adjusted_Penalty>  (416) 
1.44516

>  <i_epik_Tot_Q>  (416) 
1

>  <i_epik_Tot_abs_Q>  (416) 
1

>  <s_epik_Chemistry_Notes>  (416) 
This compound contains an acetal/aminal-like group ( X-CH(R)-Y where X, Y are N, S, or O) that may be acid/base labile, releasing an aldehyde.

>  <s_lp_Force_Field>  (416) 
OPLS3e

>  <r_lp_Energy>  (416) 
197.104

>  <b_lp_Chiralities_Consistent>  (416) 
1

>  <s_lp_Variant>  (416) 
112:0-2

>  <s_i_glide_gridfile>  (416) 
pfpi4k_grid

>  <i_i_glide_lignum>  (416) 
35

>  <i_i_glide_rotatable_bonds>  (416) 
2

>  <r_i_docking_score>  (416) 
-3.67724

>  <r_i_glide_ligand_efficiency>  (416) 
-0.13133

>  <r_i_glide_ligand_efficiency_sa>  (416) 
-0.398796

>  <r_i_glide_ligand_efficiency_ln>  (416) 
-0.848816

>  <r_i_glide_gscore>  (416) 
-3.67724

>  <r_i_glide_lipo>  (416) 
-0.0216338

>  <r_i_glide_hbond>  (416) 
-0.368319

>  <r_i_glide_metal>  (416) 
-0

>  <r_i_glide_rewards>  (416) 
-0.787849

>  <r_i_glide_evdw>  (416) 
-12.6161

>  <r_i_glide_ecoul>  (416) 
-12.1582

>  <r_i_glide_erotb>  (416) 
0

>  <r_i_glide_esite>  (416) 
-0.0449099

>  <r_i_glide_emodel>  (416) 
-27.9211

>  <r_i_glide_energy>  (416) 
-24.7742

>  <r_i_glide_einternal>  (416) 
1.03873

>  <r_i_glide_intrahb_reward>  (416) 
-0

>  <i_i_glide_confnum>  (416) 
1

>  <i_i_glide_posenum>  (416) 
4

>  <r_i_glide_eff_state_penalty>  (416) 
0

>  <ligand_id>  (416) 
112

>  <original_smiles>  (416) 
CC12CN3CCC14c1cccc(O)c1C1(O)C(=O)C5CNCCN5C3C1C4O2

>  <smiles>  (416) 
[H]Oc1c([H])c([H])c([H])c2c1C1(O[H])C(=O)C3([H])N(C([H])([H])C([H])([H])N([H])C3([H])[H])C3([H])C1([H])C1([H])OC4(C([H])([H])[H])C21C([H])([H])C([H])([H])[N+]3([H])C4([H])[H]

$$$$
112:1:2
     RDKit          3D

 54 60  0  0  1  0  0  0  0  0999 V2000
    5.3787   -0.8957    6.1382 C   0  0  0  0  0  0  0  0  0  0  0  0
    4.6547   -2.1762    5.7194 C   0  0  1  0  0  0  0  0  0  0  0  0
    3.9350   -3.0175    6.8279 C   0  0  0  0  0  0  0  0  0  0  0  0
    2.6403   -3.6150    6.3146 N   0  0  1  0  0  0  0  0  0  0  0  0
    1.8474   -2.4010    5.9740 C   0  0  0  0  0  0  0  0  0  0  0  0
    2.4119   -1.7756    4.6611 C   0  0  0  0  0  0  0  0  0  0  0  0
    3.8962   -2.1526    4.3487 C   0  0  1  0  0  0  0  0  0  0  0  0
    3.9582   -2.0612    2.8258 C   0  0  0  0  0  0  0  0  0  0  0  0
    4.3429   -0.8391    2.2457 C   0  0  0  0  0  0  0  0  0  0  0  0
    4.2753   -0.6835    0.8600 C   0  0  0  0  0  0  0  0  0  0  0  0
    3.8214   -1.7577    0.0596 C   0  0  0  0  0  0  0  0  0  0  0  0
    3.4924   -3.0015    0.6231 C   0  0  0  0  0  0  0  0  0  0  0  0
    3.1704   -4.0116   -0.2485 O   0  0  0  0  0  0  0  0  0  0  0  0
    3.5403   -3.2124    2.0250 C   0  0  0  0  0  0  0  0  0  0  0  0
    3.4208   -4.6751    2.6889 C   0  0  2  0  0  0  0  0  0  0  0  0
    4.3678   -5.5215    2.0562 O   0  0  0  0  0  0  0  0  0  0  0  0
    2.0738   -5.4531    2.5263 C   0  0  0  0  0  0  0  0  0  0  0  0
    1.5521   -5.5199    1.4134 O   0  0  0  0  0  0  0  0  0  0  0  0
    1.3755   -6.1084    3.7872 C   0  0  1  0  0  0  0  0  0  0  0  0
    0.9988   -7.5776    3.5447 C   0  0  0  0  0  0  0  0  0  0  0  0
    0.1019   -8.0155    4.6170 N   0  0  0  0  0  0  0  0  0  0  0  0
    0.6571   -7.7897    5.9583 C   0  0  0  0  0  0  0  0  0  0  0  0
    1.0625   -6.3010    6.1687 C   0  0  0  0  0  0  0  0  0  0  0  0
    2.0005   -5.8961    5.1252 N   0  0  0  0  0  0  0  0  0  0  0  0
    2.6109   -4.5621    5.1136 C   0  0  2  0  0  0  0  0  0  0  0  0
    3.8580   -4.6702    4.1973 C   0  0  2  0  0  0  0  0  0  0  0  0
    4.7136   -3.4772    4.2923 C   0  0  2  0  0  0  0  0  0  0  0  0
    5.5356   -3.2189    5.4005 O   0  0  0  0  0  0  0  0  0  0  0  0
    4.6501   -0.1243    6.3842 H   0  0  0  0  0  0  0  0  0  0  0  0
    5.9445   -0.5043    5.2902 H   0  0  0  0  0  0  0  0  0  0  0  0
    6.0643   -1.0242    6.9772 H   0  0  0  0  0  0  0  0  0  0  0  0
    4.5736   -3.7730    7.2981 H   0  0  0  0  0  0  0  0  0  0  0  0
    3.6994   -2.3406    7.6450 H   0  0  0  0  0  0  0  0  0  0  0  0
    0.7913   -2.6507    5.8577 H   0  0  0  0  0  0  0  0  0  0  0  0
    1.8729   -1.6609    6.7791 H   0  0  0  0  0  0  0  0  0  0  0  0
    1.7692   -2.0758    3.8359 H   0  0  0  0  0  0  0  0  0  0  0  0
    2.3013   -0.6868    4.6982 H   0  0  0  0  0  0  0  0  0  0  0  0
    4.6799   -0.0304    2.8764 H   0  0  0  0  0  0  0  0  0  0  0  0
    4.5532    0.2568    0.4116 H   0  0  0  0  0  0  0  0  0  0  0  0
    3.7534   -1.6163   -1.0082 H   0  0  0  0  0  0  0  0  0  0  0  0
    3.0183   -4.8506    0.1573 H   0  0  0  0  0  0  0  0  0  0  0  0
    5.2289   -5.1598    2.1538 H   0  0  0  0  0  0  0  0  0  0  0  0
    0.4012   -5.6199    3.8237 H   0  0  0  0  0  0  0  0  0  0  0  0
    0.5218   -7.6983    2.5679 H   0  0  0  0  0  0  0  0  0  0  0  0
    1.9045   -8.1854    3.5173 H   0  0  0  0  0  0  0  0  0  0  0  0
   -0.1083   -9.0134    4.4967 H   0  0  0  0  0  0  0  0  0  0  0  0
   -0.0494   -8.1052    6.7240 H   0  0  0  0  0  0  0  0  0  0  0  0
    1.5383   -8.4191    6.0871 H   0  0  0  0  0  0  0  0  0  0  0  0
    0.1680   -5.6787    6.1618 H   0  0  0  0  0  0  0  0  0  0  0  0
    1.5223   -6.2029    7.1543 H   0  0  0  0  0  0  0  0  0  0  0  0
    1.8714   -4.0457    4.5189 H   0  0  0  0  0  0  0  0  0  0  0  0
    4.4055   -5.5791    4.4632 H   0  0  0  0  0  0  0  0  0  0  0  0
    5.4895   -3.5035    3.5228 H   0  0  0  0  0  0  0  0  0  0  0  0
    2.1989   -4.0827    7.0984 H   0  0  0  0  0  0  0  0  0  0  0  0
  2  1  1  1
  1 29  1  0
  1 30  1  0
  1 31  1  0
  2  7  1  0
  2 28  1  0
  2  3  1  0
  3  4  1  0
  3 32  1  0
  3 33  1  0
  4 25  1  0
  4  5  1  0
  4 54  1  1
  5  6  1  0
  5 34  1  0
  5 35  1  0
  6  7  1  0
  6 36  1  0
  6 37  1  0
  7 27  1  0
  7  8  1  6
  8 14  2  0
  8  9  1  0
  9 10  2  0
  9 38  1  0
 10 11  1  0
 10 39  1  0
 11 12  2  0
 11 40  1  0
 12 13  1  0
 12 14  1  0
 13 41  1  0
 14 15  1  0
 15 26  1  0
 15 16  1  6
 15 17  1  0
 16 42  1  0
 17 18  2  0
 17 19  1  0
 19 24  1  0
 19 20  1  0
 19 43  1  1
 20 21  1  0
 20 44  1  0
 20 45  1  0
 21 22  1  0
 21 46  1  0
 22 23  1  0
 22 47  1  0
 22 48  1  0
 23 24  1  0
 23 49  1  0
 23 50  1  0
 24 25  1  0
 25 26  1  0
 25 51  1  6
 26 27  1  0
 26 52  1  1
 27 28  1  0
 27 53  1  6
M  CHG  1   4   1
M  END
>  <i_m_ct_stereo_status>  (417) 
1

>  <s_m_source_file>  (417) 
/var/tmp/pbs.5076255.sched01/tmpnhftudgm/135squ2m_dv.sdf

>  <i_m_source_file_index>  (417) 
35

>  <i_lp_mmshare_version>  (417) 
48012

>  <i_f3d_flags>  (417) 
0

>  <s_epik_input>  (417) 
W0NIM11bQ0BdMShbQ0BAXTIzNClbQ0gyXU4oW0NIMl1bQ0gyXTIpW0NAQEhdNU42W0NASF0oW0NIMl1bTkhdW0NIMl1bQ0gyXTYpQyg9TylbQ0BdKFtPSF0pKFtDQEhdNVtDQEBIXTRPMSljN2MzW2NIXVtjSF1bY0hdYzdbT0hd

>  <s_epik_cmdline>  (417) 
J2VwaWtfcHl0aG9uJywgJy1waHQnLCAnMi4wJywgJy1waCcsICc3LjAnLCAnLXRuJywgJzgnLCAnLW1hJywgJzIwMCcsICctaW1hZScsICc8aW5maWxlLm1hZT4nLCAnLW9tYWUnLCAnPG91dGZpbGUubWFlPic=

>  <r_epik_Ionization_Penalty>  (417) 
0.63026

>  <r_epik_Ionization_Penalty_Charging>  (417) 
0.37003

>  <r_epik_Ionization_Penalty_Neutral>  (417) 
0.26023

>  <r_epik_State_Penalty>  (417) 
1.07514

>  <r_epik_Charging_Adjusted_Penalty>  (417) 
1.44516

>  <i_epik_Tot_Q>  (417) 
1

>  <i_epik_Tot_abs_Q>  (417) 
1

>  <s_epik_Chemistry_Notes>  (417) 
This compound contains an acetal/aminal-like group ( X-CH(R)-Y where X, Y are N, S, or O) that may be acid/base labile, releasing an aldehyde.

>  <s_lp_Force_Field>  (417) 
OPLS3e

>  <r_lp_Energy>  (417) 
197.104

>  <b_lp_Chiralities_Consistent>  (417) 
1

>  <s_lp_Variant>  (417) 
112:0-2

>  <s_i_glide_gridfile>  (417) 
pfpi4k_grid

>  <i_i_glide_lignum>  (417) 
35

>  <i_i_glide_rotatable_bonds>  (417) 
2

>  <r_i_docking_score>  (417) 
-2.83029

>  <r_i_glide_ligand_efficiency>  (417) 
-0.101082

>  <r_i_glide_ligand_efficiency_sa>  (417) 
-0.306944

>  <r_i_glide_ligand_efficiency_ln>  (417) 
-0.653315

>  <r_i_glide_gscore>  (417) 
-2.83029

>  <r_i_glide_lipo>  (417) 
-0.18613

>  <r_i_glide_hbond>  (417) 
-0.107892

>  <r_i_glide_metal>  (417) 
-0

>  <r_i_glide_rewards>  (417) 
-1.28785

>  <r_i_glide_evdw>  (417) 
-15.923

>  <r_i_glide_ecoul>  (417) 
-2.91332

>  <r_i_glide_erotb>  (417) 
0

>  <r_i_glide_esite>  (417) 
-0.0152738

>  <r_i_glide_emodel>  (417) 
-26.7619

>  <r_i_glide_energy>  (417) 
-18.8363

>  <r_i_glide_einternal>  (417) 
0.0690653

>  <r_i_glide_intrahb_reward>  (417) 
-0.5

>  <i_i_glide_confnum>  (417) 
1

>  <i_i_glide_posenum>  (417) 
1

>  <r_i_glide_eff_state_penalty>  (417) 
0

>  <ligand_id>  (417) 
112

>  <original_smiles>  (417) 
CC12CN3CCC14c1cccc(O)c1C1(O)C(=O)C5CNCCN5C3C1C4O2

>  <smiles>  (417) 
[H]Oc1c([H])c([H])c([H])c2c1C1(O[H])C(=O)C3([H])N(C([H])([H])C([H])([H])N([H])C3([H])[H])C3([H])C1([H])C1([H])OC4(C([H])([H])[H])C21C([H])([H])C([H])([H])[N+]3([H])C4([H])[H]

$$$$
112:3:0
     RDKit          3D

 53 59  0  0  1  0  0  0  0  0999 V2000
    4.9523   -7.2811    3.0336 C   0  0  0  0  0  0  0  0  0  0  0  0
    5.0102   -6.0926    2.0777 C   0  0  1  0  0  0  0  0  0  0  0  0
    4.7660   -6.3717    0.5600 C   0  0  0  0  0  0  0  0  0  0  0  0
    3.9816   -5.2909   -0.1160 N   0  0  0  0  0  0  0  0  0  0  0  0
    2.7138   -5.3304    0.6254 C   0  0  0  0  0  0  0  0  0  0  0  0
    2.9055   -4.7437    2.0632 C   0  0  0  0  0  0  0  0  0  0  0  0
    4.3795   -4.7466    2.5683 C   0  0  1  0  0  0  0  0  0  0  0  0
    4.4286   -3.5426    3.5040 C   0  0  0  0  0  0  0  0  0  0  0  0
    4.1581   -3.7648    4.8667 C   0  0  0  0  0  0  0  0  0  0  0  0
    4.0443   -2.6603    5.7268 C   0  0  0  0  0  0  0  0  0  0  0  0
    4.2047   -1.3639    5.2158 C   0  0  0  0  0  0  0  0  0  0  0  0
    4.5281   -1.1384    3.8644 C   0  0  0  0  0  0  0  0  0  0  0  0
    4.7447    0.1454    3.4736 O   0  0  0  0  0  0  0  0  0  0  0  0
    4.6556   -2.2238    2.9474 C   0  0  0  0  0  0  0  0  0  0  0  0
    5.2548   -2.0283    1.4725 C   0  0  2  0  0  0  0  0  0  0  0  0
    6.5094   -1.3969    1.5960 O   0  0  0  0  0  0  0  0  0  0  0  0
    4.4658   -1.1136    0.4760 C   0  0  0  0  0  0  0  0  0  0  0  0
    4.1059   -0.0022    0.8757 O   0  0  0  0  0  0  0  0  0  0  0  0
    4.1388   -1.6503   -0.9915 C   0  0  1  0  0  0  0  0  0  0  0  0
    4.5400   -0.6836   -2.1079 C   0  0  0  0  0  0  0  0  0  0  0  0
    3.9422   -1.1044   -3.3738 N   0  0  0  0  0  0  0  0  0  0  0  0
    4.2551   -2.4986   -3.7160 C   0  0  0  0  0  0  0  0  0  0  0  0
    3.9153   -3.4622   -2.5602 C   0  0  0  0  0  0  0  0  0  0  0  0
    4.5708   -3.0456   -1.3234 N   0  0  0  0  0  0  0  0  0  0  0  0
    4.4644   -3.8555   -0.1081 C   0  0  2  0  0  0  0  0  0  0  0  0
    5.6131   -3.4114    0.8176 C   0  0  2  0  0  0  0  0  0  0  0  0
    5.7512   -4.3170    1.9563 C   0  0  2  0  0  0  0  0  0  0  0  0
    6.3137   -5.6025    1.8847 O   0  0  0  0  0  0  0  0  0  0  0  0
    3.9187   -7.6186    3.1414 H   0  0  0  0  0  0  0  0  0  0  0  0
    5.2762   -6.9838    4.0385 H   0  0  0  0  0  0  0  0  0  0  0  0
    5.5619   -8.1343    2.7210 H   0  0  0  0  0  0  0  0  0  0  0  0
    5.7030   -6.5858    0.0492 H   0  0  0  0  0  0  0  0  0  0  0  0
    4.2173   -7.3099    0.4952 H   0  0  0  0  0  0  0  0  0  0  0  0
    1.9426   -4.7758    0.0802 H   0  0  0  0  0  0  0  0  0  0  0  0
    2.3501   -6.3560    0.6928 H   0  0  0  0  0  0  0  0  0  0  0  0
    2.4956   -3.7338    2.0649 H   0  0  0  0  0  0  0  0  0  0  0  0
    2.2609   -5.2750    2.7696 H   0  0  0  0  0  0  0  0  0  0  0  0
    4.0301   -4.7718    5.2451 H   0  0  0  0  0  0  0  0  0  0  0  0
    3.8200   -2.8211    6.7812 H   0  0  0  0  0  0  0  0  0  0  0  0
    4.1010   -0.5157    5.8974 H   0  0  0  0  0  0  0  0  0  0  0  0
    4.5034    0.3136    2.5629 H   0  0  0  0  0  0  0  0  0  0  0  0
    6.3717   -0.5494    2.0089 H   0  0  0  0  0  0  0  0  0  0  0  0
    3.0486   -1.6614   -1.0300 H   0  0  0  0  0  0  0  0  0  0  0  0
    4.2211    0.3307   -1.8883 H   0  0  0  0  0  0  0  0  0  0  0  0
    5.6241   -0.6658   -2.1821 H   0  0  0  0  0  0  0  0  0  0  0  0
    4.2039   -0.4738   -4.1179 H   0  0  0  0  0  0  0  0  0  0  0  0
    3.7374   -2.8096   -4.6201 H   0  0  0  0  0  0  0  0  0  0  0  0
    5.3183   -2.5873   -3.9076 H   0  0  0  0  0  0  0  0  0  0  0  0
    2.8413   -3.5367   -2.4173 H   0  0  0  0  0  0  0  0  0  0  0  0
    4.2927   -4.4348   -2.8489 H   0  0  0  0  0  0  0  0  0  0  0  0
    3.5900   -3.3670    0.3071 H   0  0  0  0  0  0  0  0  0  0  0  0
    6.5361   -3.3487    0.2333 H   0  0  0  0  0  0  0  0  0  0  0  0
    6.4575   -3.8722    2.6302 H   0  0  0  0  0  0  0  0  0  0  0  0
  2  1  1  1
  1 29  1  0
  1 30  1  0
  1 31  1  0
  2  7  1  0
  2 28  1  0
  2  3  1  0
  3  4  1  0
  3 32  1  0
  3 33  1  0
  4 25  1  0
  4  5  1  0
  5  6  1  0
  5 34  1  0
  5 35  1  0
  6  7  1  0
  6 36  1  0
  6 37  1  0
  7 27  1  0
  7  8  1  1
  8 14  2  0
  8  9  1  0
  9 10  2  0
  9 38  1  0
 10 11  1  0
 10 39  1  0
 11 12  2  0
 11 40  1  0
 12 13  1  0
 12 14  1  0
 13 41  1  0
 14 15  1  0
 15 26  1  0
 15 16  1  1
 15 17  1  0
 16 42  1  0
 17 18  2  0
 17 19  1  0
 19 24  1  0
 19 20  1  0
 19 43  1  1
 20 21  1  0
 20 44  1  0
 20 45  1  0
 21 22  1  0
 21 46  1  0
 22 23  1  0
 22 47  1  0
 22 48  1  0
 23 24  1  0
 23 49  1  0
 23 50  1  0
 24 25  1  0
 25 26  1  0
 25 51  1  1
 26 27  1  0
 26 52  1  6
 27 28  1  0
 27 53  1  1
M  END
>  <i_m_ct_stereo_status>  (418) 
1

>  <s_m_source_file>  (418) 
/var/tmp/pbs.5076255.sched01/tmpnhftudgm/135squ2m_dv.sdf

>  <i_m_source_file_index>  (418) 
37

>  <i_lp_mmshare_version>  (418) 
48012

>  <i_f3d_flags>  (418) 
0

>  <s_epik_input>  (418) 
W0NIM11bQ0BdMShbQ0BAXTIzNClbQ0gyXU4oW0NIMl1bQ0gyXTIpW0NAQEhdNU42W0NASF0oW0NIMl1bTkhdW0NIMl1bQ0gyXTYpQyg9TylbQ0BdKFtPSF0pKFtDQEhdNVtDQEBIXTRPMSljN2MzW2NIXVtjSF1bY0hdYzdbT0hd

>  <s_epik_cmdline>  (418) 
J2VwaWtfcHl0aG9uJywgJy1waHQnLCAnMi4wJywgJy1waCcsICc3LjAnLCAnLXRuJywgJzgnLCAnLW1hJywgJzIwMCcsICctaW1hZScsICc8aW5maWxlLm1hZT4nLCAnLW9tYWUnLCAnPG91dGZpbGUubWFlPic=

>  <r_lp_tautomer_probability>  (418) 
1

>  <r_epik_Ionization_Penalty>  (418) 
1.67358

>  <r_epik_Ionization_Penalty_Charging>  (418) 
0

>  <r_epik_Ionization_Penalty_Neutral>  (418) 
1.67358

>  <r_epik_State_Penalty>  (418) 
1.32871

>  <r_epik_Charging_Adjusted_Penalty>  (418) 
1.32871

>  <i_epik_Tot_Q>  (418) 
0

>  <i_epik_Tot_abs_Q>  (418) 
0

>  <s_epik_Chemistry_Notes>  (418) 
This compound contains an acetal/aminal-like group ( X-CH(R)-Y where X, Y are N, S, or O) that may be acid/base labile, releasing an aldehyde.

>  <s_lp_Force_Field>  (418) 
OPLS3e

>  <r_lp_Energy>  (418) 
198.533

>  <b_lp_Chiralities_Consistent>  (418) 
1

>  <s_lp_Variant>  (418) 
112:0-4

>  <s_i_glide_gridfile>  (418) 
pfpi4k_grid

>  <i_i_glide_lignum>  (418) 
37

>  <i_i_glide_rotatable_bonds>  (418) 
2

>  <r_i_docking_score>  (418) 
-2.74518

>  <r_i_glide_ligand_efficiency>  (418) 
-0.0980421

>  <r_i_glide_ligand_efficiency_sa>  (418) 
-0.297714

>  <r_i_glide_ligand_efficiency_ln>  (418) 
-0.633668

>  <r_i_glide_gscore>  (418) 
-2.74518

>  <r_i_glide_lipo>  (418) 
-0.558191

>  <r_i_glide_hbond>  (418) 
0

>  <r_i_glide_metal>  (418) 
-0

>  <r_i_glide_rewards>  (418) 
-1.34256

>  <r_i_glide_evdw>  (418) 
-21.259

>  <r_i_glide_ecoul>  (418) 
1.45682

>  <r_i_glide_erotb>  (418) 
0

>  <r_i_glide_esite>  (418) 
0

>  <r_i_glide_emodel>  (418) 
-26.4557

>  <r_i_glide_energy>  (418) 
-19.8022

>  <r_i_glide_einternal>  (418) 
1.9067

>  <r_i_glide_intrahb_reward>  (418) 
-0.5

>  <i_i_glide_confnum>  (418) 
1

>  <i_i_glide_posenum>  (418) 
11

>  <r_i_glide_eff_state_penalty>  (418) 
0

>  <ligand_id>  (418) 
112

>  <original_smiles>  (418) 
CC12CN3CCC14c1cccc(O)c1C1(O)C(=O)C5CNCCN5C3C1C4O2

>  <smiles>  (418) 
[H]Oc1c([H])c([H])c([H])c2c1C1(O[H])C(=O)C3([H])N(C([H])([H])C([H])([H])N([H])C3([H])[H])C3([H])N4C([H])([H])C([H])([H])C25C([H])(OC5(C([H])([H])[H])C4([H])[H])C13[H]

$$$$
112:3:1
     RDKit          3D

 53 59  0  0  1  0  0  0  0  0999 V2000
    4.9033   -7.2439    3.0992 C   0  0  0  0  0  0  0  0  0  0  0  0
    4.9736   -6.0627    2.1226 C   0  0  1  0  0  0  0  0  0  0  0  0
    4.7214   -6.3569    0.6073 C   0  0  0  0  0  0  0  0  0  0  0  0
    3.9403   -5.2791   -0.0829 N   0  0  0  0  0  0  0  0  0  0  0  0
    2.6812   -5.2931    0.6630 C   0  0  0  0  0  0  0  0  0  0  0  0
    2.8806   -4.6913    2.0899 C   0  0  0  0  0  0  0  0  0  0  0  0
    4.3632   -4.6938    2.5885 C   0  0  1  0  0  0  0  0  0  0  0  0
    4.4245   -3.4950    3.5238 C   0  0  0  0  0  0  0  0  0  0  0  0
    4.1527   -3.6903    4.8941 C   0  0  0  0  0  0  0  0  0  0  0  0
    4.0415   -2.5893    5.7400 C   0  0  0  0  0  0  0  0  0  0  0  0
    4.2053   -1.2896    5.2257 C   0  0  0  0  0  0  0  0  0  0  0  0
    4.5390   -1.0852    3.8713 C   0  0  0  0  0  0  0  0  0  0  0  0
    4.8004    0.1932    3.4949 O   0  0  0  0  0  0  0  0  0  0  0  0
    4.6485   -2.1735    2.9657 C   0  0  0  0  0  0  0  0  0  0  0  0
    5.2388   -1.9956    1.4739 C   0  0  2  0  0  0  0  0  0  0  0  0
    6.4912   -1.3486    1.5959 O   0  0  0  0  0  0  0  0  0  0  0  0
    4.4602   -1.0906    0.4558 C   0  0  0  0  0  0  0  0  0  0  0  0
    4.0859    0.0246    0.8059 O   0  0  0  0  0  0  0  0  0  0  0  0
    4.1301   -1.6424   -0.9967 C   0  0  1  0  0  0  0  0  0  0  0  0
    4.5301   -0.6819   -2.1236 C   0  0  0  0  0  0  0  0  0  0  0  0
    3.9233   -1.1166   -3.3855 N   0  0  0  0  0  0  0  0  0  0  0  0
    4.2313   -2.5149   -3.7085 C   0  0  0  0  0  0  0  0  0  0  0  0
    3.8893   -3.4654   -2.5416 C   0  0  0  0  0  0  0  0  0  0  0  0
    4.5559   -3.0379   -1.3178 N   0  0  0  0  0  0  0  0  0  0  0  0
    4.4373   -3.8422   -0.1006 C   0  0  2  0  0  0  0  0  0  0  0  0
    5.5856   -3.3839    0.8182 C   0  0  2  0  0  0  0  0  0  0  0  0
    5.7346   -4.2805    1.9704 C   0  0  2  0  0  0  0  0  0  0  0  0
    6.2869   -5.5823    1.9100 O   0  0  0  0  0  0  0  0  0  0  0  0
    3.8714   -7.5604    3.2052 H   0  0  0  0  0  0  0  0  0  0  0  0
    5.2356   -6.9284    4.0920 H   0  0  0  0  0  0  0  0  0  0  0  0
    5.5080   -8.0992    2.7856 H   0  0  0  0  0  0  0  0  0  0  0  0
    5.6490   -6.5888    0.0751 H   0  0  0  0  0  0  0  0  0  0  0  0
    4.1614   -7.2863    0.5555 H   0  0  0  0  0  0  0  0  0  0  0  0
    1.9129   -4.7402    0.1179 H   0  0  0  0  0  0  0  0  0  0  0  0
    2.3022   -6.3159    0.7455 H   0  0  0  0  0  0  0  0  0  0  0  0
    2.4844   -3.6752    2.0839 H   0  0  0  0  0  0  0  0  0  0  0  0
    2.2381   -5.2107    2.8133 H   0  0  0  0  0  0  0  0  0  0  0  0
    4.0224   -4.6905    5.2717 H   0  0  0  0  0  0  0  0  0  0  0  0
    3.8251   -2.7326    6.7906 H   0  0  0  0  0  0  0  0  0  0  0  0
    4.1109   -0.4529    5.8994 H   0  0  0  0  0  0  0  0  0  0  0  0
    4.5293    0.8344    4.1344 H   0  0  0  0  0  0  0  0  0  0  0  0
    6.3087   -0.5078    2.0001 H   0  0  0  0  0  0  0  0  0  0  0  0
    3.0376   -1.6542   -1.0278 H   0  0  0  0  0  0  0  0  0  0  0  0
    4.2301    0.3266   -1.9120 H   0  0  0  0  0  0  0  0  0  0  0  0
    5.6163   -0.6688   -2.2007 H   0  0  0  0  0  0  0  0  0  0  0  0
    4.1983   -0.4951   -4.1356 H   0  0  0  0  0  0  0  0  0  0  0  0
    3.7093   -2.8317   -4.6112 H   0  0  0  0  0  0  0  0  0  0  0  0
    5.2944   -2.6138   -3.9050 H   0  0  0  0  0  0  0  0  0  0  0  0
    2.8084   -3.5236   -2.3938 H   0  0  0  0  0  0  0  0  0  0  0  0
    4.2521   -4.4454   -2.8259 H   0  0  0  0  0  0  0  0  0  0  0  0
    3.5725   -3.3434    0.3218 H   0  0  0  0  0  0  0  0  0  0  0  0
    6.5190   -3.3371    0.2440 H   0  0  0  0  0  0  0  0  0  0  0  0
    6.4535   -3.8374    2.6431 H   0  0  0  0  0  0  0  0  0  0  0  0
  2  1  1  1
  1 29  1  0
  1 30  1  0
  1 31  1  0
  2  7  1  0
  2 28  1  0
  2  3  1  0
  3  4  1  0
  3 32  1  0
  3 33  1  0
  4 25  1  0
  4  5  1  0
  5  6  1  0
  5 34  1  0
  5 35  1  0
  6  7  1  0
  6 36  1  0
  6 37  1  0
  7 27  1  0
  7  8  1  1
  8 14  2  0
  8  9  1  0
  9 10  2  0
  9 38  1  0
 10 11  1  0
 10 39  1  0
 11 12  2  0
 11 40  1  0
 12 13  1  0
 12 14  1  0
 13 41  1  0
 14 15  1  0
 15 26  1  0
 15 16  1  1
 15 17  1  0
 16 42  1  0
 17 18  2  0
 17 19  1  0
 19 24  1  0
 19 20  1  0
 19 43  1  1
 20 21  1  0
 20 44  1  0
 20 45  1  0
 21 22  1  0
 21 46  1  0
 22 23  1  0
 22 47  1  0
 22 48  1  0
 23 24  1  0
 23 49  1  0
 23 50  1  0
 24 25  1  0
 25 26  1  0
 25 51  1  1
 26 27  1  0
 26 52  1  6
 27 28  1  0
 27 53  1  1
M  END
>  <i_m_ct_stereo_status>  (419) 
1

>  <s_m_source_file>  (419) 
/var/tmp/pbs.5076255.sched01/tmpnhftudgm/135squ2m_dv.sdf

>  <i_m_source_file_index>  (419) 
37

>  <i_lp_mmshare_version>  (419) 
48012

>  <i_f3d_flags>  (419) 
0

>  <s_epik_input>  (419) 
W0NIM11bQ0BdMShbQ0BAXTIzNClbQ0gyXU4oW0NIMl1bQ0gyXTIpW0NAQEhdNU42W0NASF0oW0NIMl1bTkhdW0NIMl1bQ0gyXTYpQyg9TylbQ0BdKFtPSF0pKFtDQEhdNVtDQEBIXTRPMSljN2MzW2NIXVtjSF1bY0hdYzdbT0hd

>  <s_epik_cmdline>  (419) 
J2VwaWtfcHl0aG9uJywgJy1waHQnLCAnMi4wJywgJy1waCcsICc3LjAnLCAnLXRuJywgJzgnLCAnLW1hJywgJzIwMCcsICctaW1hZScsICc8aW5maWxlLm1hZT4nLCAnLW9tYWUnLCAnPG91dGZpbGUubWFlPic=

>  <r_lp_tautomer_probability>  (419) 
1

>  <r_epik_Ionization_Penalty>  (419) 
1.67358

>  <r_epik_Ionization_Penalty_Charging>  (419) 
0

>  <r_epik_Ionization_Penalty_Neutral>  (419) 
1.67358

>  <r_epik_State_Penalty>  (419) 
1.32871

>  <r_epik_Charging_Adjusted_Penalty>  (419) 
1.32871

>  <i_epik_Tot_Q>  (419) 
0

>  <i_epik_Tot_abs_Q>  (419) 
0

>  <s_epik_Chemistry_Notes>  (419) 
This compound contains an acetal/aminal-like group ( X-CH(R)-Y where X, Y are N, S, or O) that may be acid/base labile, releasing an aldehyde.

>  <s_lp_Force_Field>  (419) 
OPLS3e

>  <r_lp_Energy>  (419) 
198.533

>  <b_lp_Chiralities_Consistent>  (419) 
1

>  <s_lp_Variant>  (419) 
112:0-4

>  <s_i_glide_gridfile>  (419) 
pfpi4k_grid

>  <i_i_glide_lignum>  (419) 
37

>  <i_i_glide_rotatable_bonds>  (419) 
2

>  <r_i_docking_score>  (419) 
-2.72957

>  <r_i_glide_ligand_efficiency>  (419) 
-0.0974848

>  <r_i_glide_ligand_efficiency_sa>  (419) 
-0.296021

>  <r_i_glide_ligand_efficiency_ln>  (419) 
-0.630066

>  <r_i_glide_gscore>  (419) 
-2.72957

>  <r_i_glide_lipo>  (419) 
-0.561409

>  <r_i_glide_hbond>  (419) 
0

>  <r_i_glide_metal>  (419) 
-0

>  <r_i_glide_rewards>  (419) 
-1.34564

>  <r_i_glide_evdw>  (419) 
-20.9188

>  <r_i_glide_ecoul>  (419) 
1.48945

>  <r_i_glide_erotb>  (419) 
0

>  <r_i_glide_esite>  (419) 
0

>  <r_i_glide_emodel>  (419) 
-26.457

>  <r_i_glide_energy>  (419) 
-19.4294

>  <r_i_glide_einternal>  (419) 
1.635

>  <r_i_glide_intrahb_reward>  (419) 
-0.5

>  <i_i_glide_confnum>  (419) 
2

>  <i_i_glide_posenum>  (419) 
13

>  <r_i_glide_eff_state_penalty>  (419) 
0

>  <ligand_id>  (419) 
112

>  <original_smiles>  (419) 
CC12CN3CCC14c1cccc(O)c1C1(O)C(=O)C5CNCCN5C3C1C4O2

>  <smiles>  (419) 
[H]Oc1c([H])c([H])c([H])c2c1C1(O[H])C(=O)C3([H])N(C([H])([H])C([H])([H])N([H])C3([H])[H])C3([H])N4C([H])([H])C([H])([H])C25C([H])(OC5(C([H])([H])[H])C4([H])[H])C13[H]

$$$$
112:3:2
     RDKit          3D

 53 59  0  0  1  0  0  0  0  0999 V2000
    5.2103   -7.2709    3.1682 C   0  0  0  0  0  0  0  0  0  0  0  0
    5.2075   -6.1036    2.1703 C   0  0  1  0  0  0  0  0  0  0  0  0
    5.0268   -6.4471    0.6539 C   0  0  0  0  0  0  0  0  0  0  0  0
    4.1791   -5.4586   -0.0848 N   0  0  0  0  0  0  0  0  0  0  0  0
    2.9026   -5.5652    0.6277 C   0  0  0  0  0  0  0  0  0  0  0  0
    3.0084   -4.9204    2.0488 C   0  0  0  0  0  0  0  0  0  0  0  0
    4.4681   -4.7854    2.5917 C   0  0  1  0  0  0  0  0  0  0  0  0
    4.3998   -3.5699    3.5098 C   0  0  0  0  0  0  0  0  0  0  0  0
    4.1062   -3.7663    4.8708 C   0  0  0  0  0  0  0  0  0  0  0  0
    3.8806   -2.6598    5.6947 C   0  0  0  0  0  0  0  0  0  0  0  0
    3.9476   -1.3608    5.1551 C   0  0  0  0  0  0  0  0  0  0  0  0
    4.2830   -1.1483    3.8052 C   0  0  0  0  0  0  0  0  0  0  0  0
    4.3928    0.1406    3.3918 O   0  0  0  0  0  0  0  0  0  0  0  0
    4.5286   -2.2433    2.9277 C   0  0  0  0  0  0  0  0  0  0  0  0
    5.1471   -2.0431    1.4527 C   0  0  2  0  0  0  0  0  0  0  0  0
    6.3385   -1.2829    1.5691 O   0  0  0  0  0  0  0  0  0  0  0  0
    4.3147   -1.2289    0.4090 C   0  0  0  0  0  0  0  0  0  0  0  0
    3.8442   -0.1449    0.7509 O   0  0  0  0  0  0  0  0  0  0  0  0
    4.0838   -1.8272   -1.0457 C   0  0  1  0  0  0  0  0  0  0  0  0
    4.4369   -0.8495   -2.1749 C   0  0  0  0  0  0  0  0  0  0  0  0
    3.9035   -1.3598   -3.4448 N   0  0  0  0  0  0  0  0  0  0  0  0
    4.3392   -2.7288   -3.7422 C   0  0  0  0  0  0  0  0  0  0  0  0
    4.0675   -3.6969   -2.5692 C   0  0  0  0  0  0  0  0  0  0  0  0
    4.6408   -3.1843   -1.3323 N   0  0  0  0  0  0  0  0  0  0  0  0
    4.5525   -3.9806   -0.1108 C   0  0  2  0  0  0  0  0  0  0  0  0
    5.6265   -3.4125    0.8325 C   0  0  2  0  0  0  0  0  0  0  0  0
    5.8165   -4.2683    2.0061 C   0  0  2  0  0  0  0  0  0  0  0  0
    6.4786   -5.5145    1.9914 O   0  0  0  0  0  0  0  0  0  0  0  0
    4.2048   -7.6762    3.2506 H   0  0  0  0  0  0  0  0  0  0  0  0
    5.4861   -6.9100    4.1642 H   0  0  0  0  0  0  0  0  0  0  0  0
    5.8976   -8.0741    2.8877 H   0  0  0  0  0  0  0  0  0  0  0  0
    5.9864   -6.5942    0.1536 H   0  0  0  0  0  0  0  0  0  0  0  0
    4.5527   -7.4255    0.5984 H   0  0  0  0  0  0  0  0  0  0  0  0
    2.1090   -5.0841    0.0505 H   0  0  0  0  0  0  0  0  0  0  0  0
    2.6084   -6.6154    0.7224 H   0  0  0  0  0  0  0  0  0  0  0  0
    2.5246   -3.9437    2.0144 H   0  0  0  0  0  0  0  0  0  0  0  0
    2.3913   -5.4818    2.7615 H   0  0  0  0  0  0  0  0  0  0  0  0
    4.0447   -4.7651    5.2690 H   0  0  0  0  0  0  0  0  0  0  0  0
    3.6407   -2.8042    6.7399 H   0  0  0  0  0  0  0  0  0  0  0  0
    3.7583   -0.5173    5.8025 H   0  0  0  0  0  0  0  0  0  0  0  0
    4.4103    0.2430    2.4477 H   0  0  0  0  0  0  0  0  0  0  0  0
    6.9250   -1.7170    2.1702 H   0  0  0  0  0  0  0  0  0  0  0  0
    2.9981   -1.9305   -1.1106 H   0  0  0  0  0  0  0  0  0  0  0  0
    4.0452    0.1470   -1.9753 H   0  0  0  0  0  0  0  0  0  0  0  0
    5.5170   -0.7440   -2.2278 H   0  0  0  0  0  0  0  0  0  0  0  0
    4.1480   -0.7283   -4.1961 H   0  0  0  0  0  0  0  0  0  0  0  0
    3.8738   -3.1048   -4.6518 H   0  0  0  0  0  0  0  0  0  0  0  0
    5.4101   -2.7389   -3.9121 H   0  0  0  0  0  0  0  0  0  0  0  0
    2.9909   -3.8556   -2.4519 H   0  0  0  0  0  0  0  0  0  0  0  0
    4.5361   -4.6407   -2.8096 H   0  0  0  0  0  0  0  0  0  0  0  0
    3.6361   -3.5546    0.2733 H   0  0  0  0  0  0  0  0  0  0  0  0
    6.5673   -3.2985    0.2832 H   0  0  0  0  0  0  0  0  0  0  0  0
    6.4679   -3.7459    2.6913 H   0  0  0  0  0  0  0  0  0  0  0  0
  2  1  1  1
  1 29  1  0
  1 30  1  0
  1 31  1  0
  2  7  1  0
  2 28  1  0
  2  3  1  0
  3  4  1  0
  3 32  1  0
  3 33  1  0
  4 25  1  0
  4  5  1  0
  5  6  1  0
  5 34  1  0
  5 35  1  0
  6  7  1  0
  6 36  1  0
  6 37  1  0
  7 27  1  0
  7  8  1  1
  8 14  2  0
  8  9  1  0
  9 10  2  0
  9 38  1  0
 10 11  1  0
 10 39  1  0
 11 12  2  0
 11 40  1  0
 12 13  1  0
 12 14  1  0
 13 41  1  0
 14 15  1  0
 15 26  1  0
 15 16  1  1
 15 17  1  0
 16 42  1  0
 17 18  2  0
 17 19  1  0
 19 24  1  0
 19 20  1  0
 19 43  1  1
 20 21  1  0
 20 44  1  0
 20 45  1  0
 21 22  1  0
 21 46  1  0
 22 23  1  0
 22 47  1  0
 22 48  1  0
 23 24  1  0
 23 49  1  0
 23 50  1  0
 24 25  1  0
 25 26  1  0
 25 51  1  1
 26 27  1  0
 26 52  1  6
 27 28  1  0
 27 53  1  1
M  END
>  <i_m_ct_stereo_status>  (420) 
1

>  <s_m_source_file>  (420) 
/var/tmp/pbs.5076255.sched01/tmpnhftudgm/135squ2m_dv.sdf

>  <i_m_source_file_index>  (420) 
37

>  <i_lp_mmshare_version>  (420) 
48012

>  <i_f3d_flags>  (420) 
0

>  <s_epik_input>  (420) 
W0NIM11bQ0BdMShbQ0BAXTIzNClbQ0gyXU4oW0NIMl1bQ0gyXTIpW0NAQEhdNU42W0NASF0oW0NIMl1bTkhdW0NIMl1bQ0gyXTYpQyg9TylbQ0BdKFtPSF0pKFtDQEhdNVtDQEBIXTRPMSljN2MzW2NIXVtjSF1bY0hdYzdbT0hd

>  <s_epik_cmdline>  (420) 
J2VwaWtfcHl0aG9uJywgJy1waHQnLCAnMi4wJywgJy1waCcsICc3LjAnLCAnLXRuJywgJzgnLCAnLW1hJywgJzIwMCcsICctaW1hZScsICc8aW5maWxlLm1hZT4nLCAnLW9tYWUnLCAnPG91dGZpbGUubWFlPic=

>  <r_lp_tautomer_probability>  (420) 
1

>  <r_epik_Ionization_Penalty>  (420) 
1.67358

>  <r_epik_Ionization_Penalty_Charging>  (420) 
0

>  <r_epik_Ionization_Penalty_Neutral>  (420) 
1.67358

>  <r_epik_State_Penalty>  (420) 
1.32871

>  <r_epik_Charging_Adjusted_Penalty>  (420) 
1.32871

>  <i_epik_Tot_Q>  (420) 
0

>  <i_epik_Tot_abs_Q>  (420) 
0

>  <s_epik_Chemistry_Notes>  (420) 
This compound contains an acetal/aminal-like group ( X-CH(R)-Y where X, Y are N, S, or O) that may be acid/base labile, releasing an aldehyde.

>  <s_lp_Force_Field>  (420) 
OPLS3e

>  <r_lp_Energy>  (420) 
198.533

>  <b_lp_Chiralities_Consistent>  (420) 
1

>  <s_lp_Variant>  (420) 
112:0-4

>  <s_i_glide_gridfile>  (420) 
pfpi4k_grid

>  <i_i_glide_lignum>  (420) 
37

>  <i_i_glide_rotatable_bonds>  (420) 
2

>  <r_i_docking_score>  (420) 
-2.49396

>  <r_i_glide_ligand_efficiency>  (420) 
-0.0890699

>  <r_i_glide_ligand_efficiency_sa>  (420) 
-0.270469

>  <r_i_glide_ligand_efficiency_ln>  (420) 
-0.575679

>  <r_i_glide_gscore>  (420) 
-2.49396

>  <r_i_glide_lipo>  (420) 
-0.493848

>  <r_i_glide_hbond>  (420) 
0

>  <r_i_glide_metal>  (420) 
-0

>  <r_i_glide_rewards>  (420) 
-1.32007

>  <r_i_glide_evdw>  (420) 
-20.6948

>  <r_i_glide_ecoul>  (420) 
2.41988

>  <r_i_glide_erotb>  (420) 
0

>  <r_i_glide_esite>  (420) 
-0.00827976

>  <r_i_glide_emodel>  (420) 
-25.4681

>  <r_i_glide_energy>  (420) 
-18.2749

>  <r_i_glide_einternal>  (420) 
0.161443

>  <r_i_glide_intrahb_reward>  (420) 
-0.5

>  <i_i_glide_confnum>  (420) 
2

>  <i_i_glide_posenum>  (420) 
23

>  <r_i_glide_eff_state_penalty>  (420) 
0

>  <ligand_id>  (420) 
112

>  <original_smiles>  (420) 
CC12CN3CCC14c1cccc(O)c1C1(O)C(=O)C5CNCCN5C3C1C4O2

>  <smiles>  (420) 
[H]Oc1c([H])c([H])c([H])c2c1C1(O[H])C(=O)C3([H])N(C([H])([H])C([H])([H])N([H])C3([H])[H])C3([H])N4C([H])([H])C([H])([H])C25C([H])(OC5(C([H])([H])[H])C4([H])[H])C13[H]

$$$$
113:0:0
     RDKit          3D

 50 54  0  0  1  0  0  0  0  0999 V2000
    2.6810   -2.7858   -1.8756 C   0  0  0  0  0  0  0  0  0  0  0  0
    3.6002   -2.7931   -0.6249 C   0  0  2  0  0  0  0  0  0  0  0  0
    4.9293   -1.9204   -0.9103 C   0  0  1  0  0  0  0  0  0  0  0  0
    4.5751   -0.7125   -1.5465 O   0  0  0  0  0  0  0  0  0  0  0  0
    6.1330   -1.5309    0.1114 C   0  0  0  0  0  0  0  0  0  0  0  0
    6.3291   -1.8507    1.6941 C   0  0  1  0  0  0  0  0  0  0  0  0
    6.5411   -0.6892    2.4536 O   0  0  0  0  0  0  0  0  0  0  0  0
    5.4110   -2.7911    2.5789 C   0  0  1  0  0  0  0  0  0  0  0  0
    3.7669   -2.9137    3.0499 C   0  0  2  0  0  0  0  0  0  0  0  0
    3.4917   -2.0446    4.2989 C   0  0  0  0  0  0  0  0  0  0  0  0
    2.6421   -4.1076    2.9788 C   0  0  1  0  0  0  0  0  0  0  0  0
    1.4054   -3.5480    3.3819 O   0  0  0  0  0  0  0  0  0  0  0  0
    2.3163   -5.0962    1.7344 C   0  0  0  0  0  0  0  0  0  0  0  0
    1.4630   -5.9540    1.9611 O   0  0  0  0  0  0  0  0  0  0  0  0
    2.8600   -5.0424    0.3713 O   0  0  0  0  0  0  0  0  0  0  0  0
    3.9306   -4.2819   -0.3216 C   0  0  2  0  0  0  0  0  0  0  0  0
    5.2130   -4.4747    0.4484 C   0  0  1  0  0  0  0  0  0  0  0  0
    6.4641   -4.2843   -0.1798 O   0  0  0  0  0  0  0  0  0  0  0  0
    4.9291   -3.8204    1.7813 C   0  0  1  0  0  0  0  0  0  0  0  0
    5.2145   -5.1023    2.7119 C   0  0  0  0  0  0  0  0  0  0  0  0
    3.8201   -2.4658    1.7460 C   0  0  2  0  0  0  0  0  0  0  0  0
    3.7795   -0.8418    1.7217 C   0  0  0  0  0  0  0  0  0  0  0  0
    2.5161   -0.8982    0.9534 C   0  0  0  0  0  0  0  0  0  0  0  0
    2.8397   -2.3405    0.5891 C   0  0  1  0  0  0  0  0  0  0  0  0
    2.2774   -1.8040   -2.1050 H   0  0  0  0  0  0  0  0  0  0  0  0
    1.8298   -3.4534   -1.7502 H   0  0  0  0  0  0  0  0  0  0  0  0
    3.2214   -3.1175   -2.7616 H   0  0  0  0  0  0  0  0  0  0  0  0
    5.4107   -2.4494   -1.7288 H   0  0  0  0  0  0  0  0  0  0  0  0
    3.6331   -0.6338   -1.5270 H   0  0  0  0  0  0  0  0  0  0  0  0
    7.0374   -1.8895   -0.3705 H   0  0  0  0  0  0  0  0  0  0  0  0
    6.3073   -0.4561    0.0153 H   0  0  0  0  0  0  0  0  0  0  0  0
    7.2832   -2.3794    1.6738 H   0  0  0  0  0  0  0  0  0  0  0  0
    7.1966   -0.1061    2.0492 H   0  0  0  0  0  0  0  0  0  0  0  0
    5.9817   -3.0868    3.4618 H   0  0  0  0  0  0  0  0  0  0  0  0
    2.5626   -1.4789    4.2339 H   0  0  0  0  0  0  0  0  0  0  0  0
    4.2933   -1.3185    4.4573 H   0  0  0  0  0  0  0  0  0  0  0  0
    3.4482   -2.6454    5.2047 H   0  0  0  0  0  0  0  0  0  0  0  0
    2.8661   -4.7939    3.7997 H   0  0  0  0  0  0  0  0  0  0  0  0
    1.1492   -2.9229    2.7238 H   0  0  0  0  0  0  0  0  0  0  0  0
    4.0960   -4.7636   -1.2815 H   0  0  0  0  0  0  0  0  0  0  0  0
    5.2628   -5.5640    0.4984 H   0  0  0  0  0  0  0  0  0  0  0  0
    6.5388   -3.3911   -0.4569 H   0  0  0  0  0  0  0  0  0  0  0  0
    4.6622   -6.0084    2.4409 H   0  0  0  0  0  0  0  0  0  0  0  0
    5.0231   -4.9693    3.7804 H   0  0  0  0  0  0  0  0  0  0  0  0
    6.2672   -5.3830    2.6528 H   0  0  0  0  0  0  0  0  0  0  0  0
    3.6205   -0.2811    2.6363 H   0  0  0  0  0  0  0  0  0  0  0  0
    4.4239   -0.2403    1.1031 H   0  0  0  0  0  0  0  0  0  0  0  0
    1.6254   -0.8091    1.5712 H   0  0  0  0  0  0  0  0  0  0  0  0
    2.5435   -0.2439    0.0932 H   0  0  0  0  0  0  0  0  0  0  0  0
    1.8784   -2.8417    0.7071 H   0  0  0  0  0  0  0  0  0  0  0  0
  2  1  1  6
  1 25  1  0
  1 26  1  0
  1 27  1  0
  2 16  1  0
  2 24  1  0
  2  3  1  0
  3  4  1  0
  3  5  1  0
  3 28  1  6
  4 29  1  0
  5  6  1  0
  5 30  1  0
  5 31  1  0
  6  7  1  0
  6  8  1  0
  6 32  1  6
  7 33  1  0
  8 19  1  0
  8  9  1  0
  8 34  1  1
  9 21  1  0
  9 10  1  1
  9 11  1  0
 10 35  1  0
 10 36  1  0
 10 37  1  0
 11 12  1  0
 11 13  1  0
 11 38  1  1
 12 39  1  0
 13 14  2  0
 13 15  1  0
 15 16  1  0
 16 17  1  0
 16 40  1  6
 17 18  1  0
 17 19  1  0
 17 41  1  1
 18 42  1  0
 19 20  1  1
 19 21  1  0
 20 43  1  0
 20 44  1  0
 20 45  1  0
 21 24  1  0
 21 22  1  1
 22 23  1  0
 22 46  1  0
 22 47  1  0
 23 24  1  0
 23 48  1  0
 23 49  1  0
 24 50  1  1
M  END
>  <i_m_ct_stereo_status>  (421) 
1

>  <s_m_source_file>  (421) 
/var/tmp/pbs.5076255.sched01/tmpnhftudgm/135squ2m_dv.sdf

>  <i_m_source_file_index>  (421) 
38

>  <i_lp_mmshare_version>  (421) 
48012

>  <i_f3d_flags>  (421) 
0

>  <s_epik_input>  (421) 
W09IXVtDQEBIXTFbQ0gyXVtDQEhdKFtPSF0pW0NAXShbQ0gzXSkoW0NAQEhdMltDSDJdW0NIMl0zKVtDQEhdKE9DKD1PKVtDQEBIXTRbT0hdKVtDQEBIXShbT0hdKVtDQEBdNShbQ0gzXSlbQ0BASF0xW0NAXTQoW0NAQF0yMzUpW0NIM10=

>  <s_epik_cmdline>  (421) 
J2VwaWtfcHl0aG9uJywgJy1waHQnLCAnMi4wJywgJy1waCcsICc3LjAnLCAnLXRuJywgJzgnLCAnLW1hJywgJzIwMCcsICctaW1hZScsICc8aW5maWxlLm1hZT4nLCAnLW9tYWUnLCAnPG91dGZpbGUubWFlPic=

>  <r_lp_tautomer_probability>  (421) 
1

>  <r_epik_Ionization_Penalty>  (421) 
1.07298e-05

>  <r_epik_Ionization_Penalty_Charging>  (421) 
0

>  <r_epik_Ionization_Penalty_Neutral>  (421) 
1.07298e-05

>  <r_epik_State_Penalty>  (421) 
-0

>  <r_epik_Charging_Adjusted_Penalty>  (421) 
0

>  <i_epik_Tot_Q>  (421) 
0

>  <i_epik_Tot_abs_Q>  (421) 
0

>  <s_epik_Chemistry_Notes>  (421) 
This compound has an ester and may undergo hydrolysis at high or low pH.

>  <s_lp_Force_Field>  (421) 
OPLS3e

>  <r_lp_Energy>  (421) 
322.919

>  <b_lp_Chiralities_Consistent>  (421) 
1

>  <s_lp_Variant>  (421) 
113:0-1

>  <s_i_glide_gridfile>  (421) 
pfpi4k_grid

>  <i_i_glide_lignum>  (421) 
38

>  <i_i_glide_rotatable_bonds>  (421) 
4

>  <r_i_docking_score>  (421) 
-3.31646

>  <r_i_glide_ligand_efficiency>  (421) 
-0.138186

>  <r_i_glide_ligand_efficiency_sa>  (421) 
-0.398597

>  <r_i_glide_ligand_efficiency_ln>  (421) 
-0.793782

>  <r_i_glide_gscore>  (421) 
-3.31646

>  <r_i_glide_lipo>  (421) 
-0.258825

>  <r_i_glide_hbond>  (421) 
-0.341471

>  <r_i_glide_metal>  (421) 
-0

>  <r_i_glide_rewards>  (421) 
-1.10185

>  <r_i_glide_evdw>  (421) 
-9.18523

>  <r_i_glide_ecoul>  (421) 
-7.53576

>  <r_i_glide_erotb>  (421) 
0

>  <r_i_glide_esite>  (421) 
-0.0246947

>  <r_i_glide_emodel>  (421) 
-18.5926

>  <r_i_glide_energy>  (421) 
-16.721

>  <r_i_glide_einternal>  (421) 
2.96566

>  <r_i_glide_intrahb_reward>  (421) 
-0

>  <i_i_glide_confnum>  (421) 
2

>  <i_i_glide_posenum>  (421) 
7

>  <r_i_glide_eff_state_penalty>  (421) 
0

>  <ligand_id>  (421) 
113

>  <original_smiles>  (421) 
CC12C(O)CC(O)C3C4(C)C(O)C(=O)OC1C(O)C3(C)C41CCC21

>  <smiles>  (421) 
[H]OC1([H])C(=O)OC2([H])C([H])(O[H])C3(C([H])([H])[H])C4([H])C([H])(O[H])C([H])([H])C([H])(O[H])C2(C([H])([H])[H])C2([H])C([H])([H])C([H])([H])C23C14C([H])([H])[H]

$$$$
113:0:1
     RDKit          3D

 50 54  0  0  1  0  0  0  0  0999 V2000
    1.9240   -3.4103   -1.7372 C   0  0  0  0  0  0  0  0  0  0  0  0
    3.1888   -3.4285   -0.8443 C   0  0  2  0  0  0  0  0  0  0  0  0
    4.5204   -3.4276   -1.7632 C   0  0  1  0  0  0  0  0  0  0  0  0
    4.3682   -2.4972   -2.8235 O   0  0  0  0  0  0  0  0  0  0  0  0
    6.0739   -3.3027   -1.3205 C   0  0  0  0  0  0  0  0  0  0  0  0
    6.7787   -3.0798    0.1105 C   0  0  1  0  0  0  0  0  0  0  0  0
    7.6836   -1.9876    0.0772 O   0  0  0  0  0  0  0  0  0  0  0  0
    6.0089   -3.0982    1.5113 C   0  0  1  0  0  0  0  0  0  0  0  0
    4.7326   -2.2443    2.2859 C   0  0  2  0  0  0  0  0  0  0  0  0
    5.2711   -0.9641    2.9664 C   0  0  0  0  0  0  0  0  0  0  0  0
    3.3476   -2.7077    3.0419 C   0  0  1  0  0  0  0  0  0  0  0  0
    2.5986   -1.5345    3.3366 O   0  0  0  0  0  0  0  0  0  0  0  0
    2.2598   -3.8174    2.5584 C   0  0  0  0  0  0  0  0  0  0  0  0
    1.3801   -4.0671    3.3733 O   0  0  0  0  0  0  0  0  0  0  0  0
    2.2109   -4.5322    1.2789 O   0  0  0  0  0  0  0  0  0  0  0  0
    3.0925   -4.6687    0.0975 C   0  0  2  0  0  0  0  0  0  0  0  0
    4.4293   -5.1421    0.5941 C   0  0  1  0  0  0  0  0  0  0  0  0
    5.2999   -5.7933   -0.2810 O   0  0  0  0  0  0  0  0  0  0  0  0
    4.9377   -3.9928    1.4418 C   0  0  1  0  0  0  0  0  0  0  0  0
    5.1276   -4.8143    2.8176 C   0  0  0  0  0  0  0  0  0  0  0  0
    4.4050   -2.3958    0.9469 C   0  0  2  0  0  0  0  0  0  0  0  0
    4.8671   -1.0842    0.1122 C   0  0  0  0  0  0  0  0  0  0  0  0
    3.4428   -0.8554   -0.2744 C   0  0  0  0  0  0  0  0  0  0  0  0
    3.1472   -2.2742    0.1211 C   0  0  1  0  0  0  0  0  0  0  0  0
    1.8248   -2.4859   -2.3082 H   0  0  0  0  0  0  0  0  0  0  0  0
    1.0185   -3.5121   -1.1373 H   0  0  0  0  0  0  0  0  0  0  0  0
    1.9092   -4.2078   -2.4619 H   0  0  0  0  0  0  0  0  0  0  0  0
    4.4682   -4.3693   -2.2995 H   0  0  0  0  0  0  0  0  0  0  0  0
    3.4706   -2.5238   -3.1073 H   0  0  0  0  0  0  0  0  0  0  0  0
    6.5025   -4.2237   -1.6796 H   0  0  0  0  0  0  0  0  0  0  0  0
    6.5665   -2.6072   -2.0032 H   0  0  0  0  0  0  0  0  0  0  0  0
    7.4659   -3.9225    0.1865 H   0  0  0  0  0  0  0  0  0  0  0  0
    8.2036   -2.0096    0.8651 H   0  0  0  0  0  0  0  0  0  0  0  0
    6.7314   -3.3291    2.2638 H   0  0  0  0  0  0  0  0  0  0  0  0
    4.6328   -0.0972    2.8076 H   0  0  0  0  0  0  0  0  0  0  0  0
    6.2541   -0.7053    2.5839 H   0  0  0  0  0  0  0  0  0  0  0  0
    5.3937   -1.0997    4.0381 H   0  0  0  0  0  0  0  0  0  0  0  0
    3.6351   -3.0587    4.0328 H   0  0  0  0  0  0  0  0  0  0  0  0
    3.1838   -0.8899    3.6989 H   0  0  0  0  0  0  0  0  0  0  0  0
    2.6699   -5.4806   -0.4892 H   0  0  0  0  0  0  0  0  0  0  0  0
    4.1411   -6.0223    1.1761 H   0  0  0  0  0  0  0  0  0  0  0  0
    4.7933   -6.2606   -0.9398 H   0  0  0  0  0  0  0  0  0  0  0  0
    4.2561   -5.3813    3.1455 H   0  0  0  0  0  0  0  0  0  0  0  0
    5.4267   -4.2302    3.6834 H   0  0  0  0  0  0  0  0  0  0  0  0
    5.9185   -5.5588    2.6993 H   0  0  0  0  0  0  0  0  0  0  0  0
    5.2644   -0.2236    0.6437 H   0  0  0  0  0  0  0  0  0  0  0  0
    5.4069   -1.1229   -0.8264 H   0  0  0  0  0  0  0  0  0  0  0  0
    2.9413   -0.1382    0.3885 H   0  0  0  0  0  0  0  0  0  0  0  0
    3.2605   -0.6931   -1.3366 H   0  0  0  0  0  0  0  0  0  0  0  0
    2.2124   -2.1805    0.6560 H   0  0  0  0  0  0  0  0  0  0  0  0
  2  1  1  6
  1 25  1  0
  1 26  1  0
  1 27  1  0
  2 16  1  0
  2 24  1  0
  2  3  1  0
  3  4  1  0
  3  5  1  0
  3 28  1  6
  4 29  1  0
  5  6  1  0
  5 30  1  0
  5 31  1  0
  6  7  1  0
  6  8  1  0
  6 32  1  1
  7 33  1  0
  8 19  1  0
  8  9  1  0
  8 34  1  1
  9 21  1  0
  9 10  1  6
  9 11  1  0
 10 35  1  0
 10 36  1  0
 10 37  1  0
 11 12  1  0
 11 13  1  0
 11 38  1  1
 12 39  1  0
 13 14  2  0
 13 15  1  0
 15 16  1  0
 16 17  1  0
 16 40  1  6
 17 18  1  0
 17 19  1  0
 17 41  1  1
 18 42  1  0
 19 20  1  1
 19 21  1  0
 20 43  1  0
 20 44  1  0
 20 45  1  0
 21 24  1  0
 21 22  1  6
 22 23  1  0
 22 46  1  0
 22 47  1  0
 23 24  1  0
 23 48  1  0
 23 49  1  0
 24 50  1  1
M  END
>  <i_m_ct_stereo_status>  (422) 
1

>  <s_m_source_file>  (422) 
/var/tmp/pbs.5076255.sched01/tmpnhftudgm/135squ2m_dv.sdf

>  <i_m_source_file_index>  (422) 
38

>  <i_lp_mmshare_version>  (422) 
48012

>  <i_f3d_flags>  (422) 
0

>  <s_epik_input>  (422) 
W09IXVtDQEBIXTFbQ0gyXVtDQEhdKFtPSF0pW0NAXShbQ0gzXSkoW0NAQEhdMltDSDJdW0NIMl0zKVtDQEhdKE9DKD1PKVtDQEBIXTRbT0hdKVtDQEBIXShbT0hdKVtDQEBdNShbQ0gzXSlbQ0BASF0xW0NAXTQoW0NAQF0yMzUpW0NIM10=

>  <s_epik_cmdline>  (422) 
J2VwaWtfcHl0aG9uJywgJy1waHQnLCAnMi4wJywgJy1waCcsICc3LjAnLCAnLXRuJywgJzgnLCAnLW1hJywgJzIwMCcsICctaW1hZScsICc8aW5maWxlLm1hZT4nLCAnLW9tYWUnLCAnPG91dGZpbGUubWFlPic=

>  <r_lp_tautomer_probability>  (422) 
1

>  <r_epik_Ionization_Penalty>  (422) 
1.07298e-05

>  <r_epik_Ionization_Penalty_Charging>  (422) 
0

>  <r_epik_Ionization_Penalty_Neutral>  (422) 
1.07298e-05

>  <r_epik_State_Penalty>  (422) 
-0

>  <r_epik_Charging_Adjusted_Penalty>  (422) 
0

>  <i_epik_Tot_Q>  (422) 
0

>  <i_epik_Tot_abs_Q>  (422) 
0

>  <s_epik_Chemistry_Notes>  (422) 
This compound has an ester and may undergo hydrolysis at high or low pH.

>  <s_lp_Force_Field>  (422) 
OPLS3e

>  <r_lp_Energy>  (422) 
322.919

>  <b_lp_Chiralities_Consistent>  (422) 
1

>  <s_lp_Variant>  (422) 
113:0-1

>  <s_i_glide_gridfile>  (422) 
pfpi4k_grid

>  <i_i_glide_lignum>  (422) 
38

>  <i_i_glide_rotatable_bonds>  (422) 
4

>  <r_i_docking_score>  (422) 
-3.20948

>  <r_i_glide_ligand_efficiency>  (422) 
-0.133728

>  <r_i_glide_ligand_efficiency_sa>  (422) 
-0.385739

>  <r_i_glide_ligand_efficiency_ln>  (422) 
-0.768175

>  <r_i_glide_gscore>  (422) 
-3.20948

>  <r_i_glide_lipo>  (422) 
-0.733667

>  <r_i_glide_hbond>  (422) 
-0.0729943

>  <r_i_glide_metal>  (422) 
-0

>  <r_i_glide_rewards>  (422) 
-1.10185

>  <r_i_glide_evdw>  (422) 
-14.7361

>  <r_i_glide_ecoul>  (422) 
-3.72517

>  <r_i_glide_erotb>  (422) 
0

>  <r_i_glide_esite>  (422) 
-0.00538537

>  <r_i_glide_emodel>  (422) 
-20.7567

>  <r_i_glide_energy>  (422) 
-18.4613

>  <r_i_glide_einternal>  (422) 
1.604

>  <r_i_glide_intrahb_reward>  (422) 
-0

>  <i_i_glide_confnum>  (422) 
2

>  <i_i_glide_posenum>  (422) 
28

>  <r_i_glide_eff_state_penalty>  (422) 
0

>  <ligand_id>  (422) 
113

>  <original_smiles>  (422) 
CC12C(O)CC(O)C3C4(C)C(O)C(=O)OC1C(O)C3(C)C41CCC21

>  <smiles>  (422) 
[H]OC1([H])C(=O)OC2([H])C([H])(O[H])C3(C([H])([H])[H])C4([H])C([H])(O[H])C([H])([H])C([H])(O[H])C2(C([H])([H])[H])C2([H])C([H])([H])C([H])([H])C23C14C([H])([H])[H]

$$$$
113:0:2
     RDKit          3D

 50 54  0  0  1  0  0  0  0  0999 V2000
    2.5713   -2.9933   -1.7151 C   0  0  0  0  0  0  0  0  0  0  0  0
    3.4767   -2.9878   -0.4637 C   0  0  2  0  0  0  0  0  0  0  0  0
    4.8701   -2.2579   -0.7903 C   0  0  1  0  0  0  0  0  0  0  0  0
    4.6268   -1.0602   -1.5042 O   0  0  0  0  0  0  0  0  0  0  0  0
    6.0791   -1.8934    0.2165 C   0  0  0  0  0  0  0  0  0  0  0  0
    6.2202   -2.0647    1.8134 C   0  0  1  0  0  0  0  0  0  0  0  0
    6.5098   -0.8277    2.4503 O   0  0  0  0  0  0  0  0  0  0  0  0
    5.2350   -2.8679    2.7806 C   0  0  1  0  0  0  0  0  0  0  0  0
    3.5786   -2.8102    3.2269 C   0  0  2  0  0  0  0  0  0  0  0  0
    3.3731   -1.8272    4.3987 C   0  0  0  0  0  0  0  0  0  0  0  0
    2.3674   -3.9156    3.2407 C   0  0  1  0  0  0  0  0  0  0  0  0
    1.1659   -3.2210    3.5712 O   0  0  0  0  0  0  0  0  0  0  0  0
    1.9875   -4.9925    2.0808 C   0  0  0  0  0  0  0  0  0  0  0  0
    1.0838   -5.7690    2.3748 O   0  0  0  0  0  0  0  0  0  0  0  0
    2.5211   -5.0652    0.7155 O   0  0  0  0  0  0  0  0  0  0  0  0
    3.6648   -4.4705   -0.0213 C   0  0  2  0  0  0  0  0  0  0  0  0
    4.9165   -4.7055    0.7769 C   0  0  1  0  0  0  0  0  0  0  0  0
    6.1733   -4.7076    0.1463 O   0  0  0  0  0  0  0  0  0  0  0  0
    4.6801   -3.9117    2.0521 C   0  0  1  0  0  0  0  0  0  0  0  0
    4.8433   -5.1383    3.0884 C   0  0  0  0  0  0  0  0  0  0  0  0
    3.6879   -2.4754    1.8821 C   0  0  2  0  0  0  0  0  0  0  0  0
    3.7850   -0.8598    1.7345 C   0  0  0  0  0  0  0  0  0  0  0  0
    2.5557   -0.8772    0.9301 C   0  0  0  0  0  0  0  0  0  0  0  0
    2.7512   -2.3595    0.7107 C   0  0  1  0  0  0  0  0  0  0  0  0
    2.2607   -1.9924   -2.0109 H   0  0  0  0  0  0  0  0  0  0  0  0
    1.6594   -3.5641   -1.5484 H   0  0  0  0  0  0  0  0  0  0  0  0
    3.0825   -3.4396   -2.5640 H   0  0  0  0  0  0  0  0  0  0  0  0
    5.3192   -2.8794   -1.5587 H   0  0  0  0  0  0  0  0  0  0  0  0
    4.0605   -0.5114   -0.9783 H   0  0  0  0  0  0  0  0  0  0  0  0
    6.9649   -2.3764   -0.1995 H   0  0  0  0  0  0  0  0  0  0  0  0
    6.3643   -0.8579    0.0305 H   0  0  0  0  0  0  0  0  0  0  0  0
    7.0953   -2.6899    1.8442 H   0  0  0  0  0  0  0  0  0  0  0  0
    7.2479   -0.4059    2.0312 H   0  0  0  0  0  0  0  0  0  0  0  0
    5.7732   -3.1326    3.6781 H   0  0  0  0  0  0  0  0  0  0  0  0
    2.4976   -1.1903    4.2736 H   0  0  0  0  0  0  0  0  0  0  0  0
    4.2310   -1.1700    4.5080 H   0  0  0  0  0  0  0  0  0  0  0  0
    3.2693   -2.3491    5.3456 H   0  0  0  0  0  0  0  0  0  0  0  0
    2.5199   -4.5374    4.1170 H   0  0  0  0  0  0  0  0  0  0  0  0
    0.9864   -2.6215    2.8628 H   0  0  0  0  0  0  0  0  0  0  0  0
    3.7886   -5.0527   -0.9317 H   0  0  0  0  0  0  0  0  0  0  0  0
    4.8615   -5.7907    0.9237 H   0  0  0  0  0  0  0  0  0  0  0  0
    6.3602   -3.8398   -0.1736 H   0  0  0  0  0  0  0  0  0  0  0  0
    4.2233   -6.0113    2.8801 H   0  0  0  0  0  0  0  0  0  0  0  0
    4.6551   -4.9031    4.1343 H   0  0  0  0  0  0  0  0  0  0  0  0
    5.8702   -5.5115    3.0636 H   0  0  0  0  0  0  0  0  0  0  0  0
    3.6578   -0.2161    2.5996 H   0  0  0  0  0  0  0  0  0  0  0  0
    4.4961   -0.3643    1.0845 H   0  0  0  0  0  0  0  0  0  0  0  0
    1.6576   -0.6473    1.5151 H   0  0  0  0  0  0  0  0  0  0  0  0
    2.6268   -0.2609    0.0460 H   0  0  0  0  0  0  0  0  0  0  0  0
    1.7729   -2.7634    0.8610 H   0  0  0  0  0  0  0  0  0  0  0  0
  2  1  1  6
  1 25  1  0
  1 26  1  0
  1 27  1  0
  2 16  1  0
  2 24  1  0
  2  3  1  0
  3  4  1  0
  3  5  1  0
  3 28  1  6
  4 29  1  0
  5  6  1  0
  5 30  1  0
  5 31  1  0
  6  7  1  0
  6  8  1  0
  6 32  1  6
  7 33  1  0
  8 19  1  0
  8  9  1  0
  8 34  1  1
  9 21  1  0
  9 10  1  1
  9 11  1  0
 10 35  1  0
 10 36  1  0
 10 37  1  0
 11 12  1  0
 11 13  1  0
 11 38  1  1
 12 39  1  0
 13 14  2  0
 13 15  1  0
 15 16  1  0
 16 17  1  0
 16 40  1  6
 17 18  1  0
 17 19  1  0
 17 41  1  1
 18 42  1  0
 19 20  1  1
 19 21  1  0
 20 43  1  0
 20 44  1  0
 20 45  1  0
 21 24  1  0
 21 22  1  1
 22 23  1  0
 22 46  1  0
 22 47  1  0
 23 24  1  0
 23 48  1  0
 23 49  1  0
 24 50  1  1
M  END
>  <i_m_ct_stereo_status>  (423) 
1

>  <s_m_source_file>  (423) 
/var/tmp/pbs.5076255.sched01/tmpnhftudgm/135squ2m_dv.sdf

>  <i_m_source_file_index>  (423) 
38

>  <i_lp_mmshare_version>  (423) 
48012

>  <i_f3d_flags>  (423) 
0

>  <s_epik_input>  (423) 
W09IXVtDQEBIXTFbQ0gyXVtDQEhdKFtPSF0pW0NAXShbQ0gzXSkoW0NAQEhdMltDSDJdW0NIMl0zKVtDQEhdKE9DKD1PKVtDQEBIXTRbT0hdKVtDQEBIXShbT0hdKVtDQEBdNShbQ0gzXSlbQ0BASF0xW0NAXTQoW0NAQF0yMzUpW0NIM10=

>  <s_epik_cmdline>  (423) 
J2VwaWtfcHl0aG9uJywgJy1waHQnLCAnMi4wJywgJy1waCcsICc3LjAnLCAnLXRuJywgJzgnLCAnLW1hJywgJzIwMCcsICctaW1hZScsICc8aW5maWxlLm1hZT4nLCAnLW9tYWUnLCAnPG91dGZpbGUubWFlPic=

>  <r_lp_tautomer_probability>  (423) 
1

>  <r_epik_Ionization_Penalty>  (423) 
1.07298e-05

>  <r_epik_Ionization_Penalty_Charging>  (423) 
0

>  <r_epik_Ionization_Penalty_Neutral>  (423) 
1.07298e-05

>  <r_epik_State_Penalty>  (423) 
-0

>  <r_epik_Charging_Adjusted_Penalty>  (423) 
0

>  <i_epik_Tot_Q>  (423) 
0

>  <i_epik_Tot_abs_Q>  (423) 
0

>  <s_epik_Chemistry_Notes>  (423) 
This compound has an ester and may undergo hydrolysis at high or low pH.

>  <s_lp_Force_Field>  (423) 
OPLS3e

>  <r_lp_Energy>  (423) 
322.919

>  <b_lp_Chiralities_Consistent>  (423) 
1

>  <s_lp_Variant>  (423) 
113:0-1

>  <s_i_glide_gridfile>  (423) 
pfpi4k_grid

>  <i_i_glide_lignum>  (423) 
38

>  <i_i_glide_rotatable_bonds>  (423) 
4

>  <r_i_docking_score>  (423) 
-3.07783

>  <r_i_glide_ligand_efficiency>  (423) 
-0.128243

>  <r_i_glide_ligand_efficiency_sa>  (423) 
-0.369917

>  <r_i_glide_ligand_efficiency_ln>  (423) 
-0.736666

>  <r_i_glide_gscore>  (423) 
-3.07783

>  <r_i_glide_lipo>  (423) 
-0.261179

>  <r_i_glide_hbond>  (423) 
-0.285094

>  <r_i_glide_metal>  (423) 
-0

>  <r_i_glide_rewards>  (423) 
-1.10185

>  <r_i_glide_evdw>  (423) 
-9.82304

>  <r_i_glide_ecoul>  (423) 
-6.07903

>  <r_i_glide_erotb>  (423) 
0

>  <r_i_glide_esite>  (423) 
-0.0267013

>  <r_i_glide_emodel>  (423) 
-17.779

>  <r_i_glide_energy>  (423) 
-15.9021

>  <r_i_glide_einternal>  (423) 
1.76744

>  <r_i_glide_intrahb_reward>  (423) 
-0

>  <i_i_glide_confnum>  (423) 
2

>  <i_i_glide_posenum>  (423) 
18

>  <r_i_glide_eff_state_penalty>  (423) 
0

>  <ligand_id>  (423) 
113

>  <original_smiles>  (423) 
CC12C(O)CC(O)C3C4(C)C(O)C(=O)OC1C(O)C3(C)C41CCC21

>  <smiles>  (423) 
[H]OC1([H])C(=O)OC2([H])C([H])(O[H])C3(C([H])([H])[H])C4([H])C([H])(O[H])C([H])([H])C([H])(O[H])C2(C([H])([H])[H])C2([H])C([H])([H])C([H])([H])C23C14C([H])([H])[H]

$$$$
114:0:0
     RDKit          3D

 32 34  0  0  1  0  0  0  0  0999 V2000
    0.6394   -8.0929    2.7600 N   0  0  0  0  0  0  0  0  0  0  0  0
    1.6721   -7.2466    2.6752 C   0  0  0  0  0  0  0  0  0  0  0  0
    2.5905   -7.2119    3.6642 N   0  0  0  0  0  0  0  0  0  0  0  0
    3.6156   -6.3596    3.5762 C   0  0  0  0  0  0  0  0  0  0  0  0
    3.8901   -5.4759    2.6013 N   0  0  0  0  0  0  0  0  0  0  0  0
    2.9583   -5.5177    1.6070 C   0  0  0  0  0  0  0  0  0  0  0  0
    1.8320   -6.3770    1.5719 C   0  0  0  0  0  0  0  0  0  0  0  0
    1.1022   -6.1716    0.4227 N   0  0  0  0  0  0  0  0  0  0  0  0
    1.8058   -5.2784   -0.2203 C   0  0  0  0  0  0  0  0  0  0  0  0
    2.8924   -4.7617    0.4532 N   0  0  0  0  0  0  0  0  0  0  0  0
    3.8746   -3.7452   -0.0227 C   0  0  2  0  0  0  0  0  0  0  0  0
    4.1803   -2.8641    1.0185 O   0  0  0  0  0  0  0  0  0  0  0  0
    4.0689   -1.5036    0.5901 C   0  0  1  0  0  0  0  0  0  0  0  0
    5.2487   -0.6674    1.1180 C   0  0  0  0  0  0  0  0  0  0  0  0
    5.0293   -0.2648    2.4529 O   0  0  0  0  0  0  0  0  0  0  0  0
    3.9972   -1.5756   -0.9430 C   0  0  1  0  0  0  0  0  0  0  0  0
    5.3016   -1.6177   -1.5075 O   0  0  0  0  0  0  0  0  0  0  0  0
    3.2757   -2.8932   -1.1418 C   0  0  1  0  0  0  0  0  0  0  0  0
    3.4871   -3.4371   -2.4320 O   0  0  0  0  0  0  0  0  0  0  0  0
    0.5897   -8.7382    3.5331 H   0  0  0  0  0  0  0  0  0  0  0  0
    0.0104   -8.1655    1.9737 H   0  0  0  0  0  0  0  0  0  0  0  0
    4.3165   -6.3823    4.3980 H   0  0  0  0  0  0  0  0  0  0  0  0
    1.4583   -4.9278   -1.1840 H   0  0  0  0  0  0  0  0  0  0  0  0
    4.7640   -4.3104   -0.3015 H   0  0  0  0  0  0  0  0  0  0  0  0
    3.1165   -1.1148    0.9614 H   0  0  0  0  0  0  0  0  0  0  0  0
    6.1887   -1.2158    1.0335 H   0  0  0  0  0  0  0  0  0  0  0  0
    5.3500    0.2364    0.5170 H   0  0  0  0  0  0  0  0  0  0  0  0
    4.2283    0.2400    2.4827 H   0  0  0  0  0  0  0  0  0  0  0  0
    3.4356   -0.7373   -1.3648 H   0  0  0  0  0  0  0  0  0  0  0  0
    5.6792   -2.4508   -1.2691 H   0  0  0  0  0  0  0  0  0  0  0  0
    2.2205   -2.7037   -0.9361 H   0  0  0  0  0  0  0  0  0  0  0  0
    3.1962   -4.3468   -2.4508 H   0  0  0  0  0  0  0  0  0  0  0  0
  1  2  1  0
  1 21  1  0
  1 20  1  0
  2  3  2  0
  2  7  1  0
  3  4  1  0
  4 22  1  0
  4  5  2  0
  5  6  1  0
  6 10  1  0
  6  7  2  0
  7  8  1  0
  8  9  2  0
  9 23  1  0
  9 10  1  0
 10 11  1  0
 11 18  1  0
 11 12  1  0
 11 24  1  6
 12 13  1  0
 13 14  1  0
 13 16  1  0
 13 25  1  1
 14 15  1  0
 14 26  1  0
 14 27  1  0
 15 28  1  0
 16 17  1  0
 16 18  1  0
 16 29  1  6
 17 30  1  0
 18 19  1  0
 18 31  1  1
 19 32  1  0
M  END
>  <i_m_ct_stereo_status>  (424) 
1

>  <s_m_source_file>  (424) 
/var/tmp/pbs.5076255.sched01/tmpnhftudgm/135squ2m_dv.sdf

>  <i_m_source_file_index>  (424) 
39

>  <i_lp_mmshare_version>  (424) 
48012

>  <i_f3d_flags>  (424) 
0

>  <s_epik_input>  (424) 
bjFbY0hdW25IXVxjKD1OXFtIXSljKGMxMiluW2NIXW4yW0NAQEhdM09bQ0BASF0oW0NIMl1bT0hdKVtDQEBIXShbT0hdKVtDQEhdM1tPSF0=

>  <s_epik_cmdline>  (424) 
J2VwaWtfcHl0aG9uJywgJy1waHQnLCAnMi4wJywgJy1waCcsICc3LjAnLCAnLXRuJywgJzgnLCAnLW1hJywgJzIwMCcsICctaW1hZScsICc8aW5maWxlLm1hZT4nLCAnLW9tYWUnLCAnPG91dGZpbGUubWFlPic=

>  <r_lp_tautomer_probability>  (424) 
1

>  <r_epik_Ionization_Penalty>  (424) 
0.000428445

>  <r_epik_Ionization_Penalty_Charging>  (424) 
0

>  <r_epik_Ionization_Penalty_Neutral>  (424) 
0.000428445

>  <r_epik_State_Penalty>  (424) 
-0

>  <r_epik_Charging_Adjusted_Penalty>  (424) 
0

>  <i_epik_Tot_Q>  (424) 
0

>  <i_epik_Tot_abs_Q>  (424) 
0

>  <s_epik_Chemistry_Notes>  (424) 
This compound contains an acetal/aminal-like group ( X-CH(R)-Y where X, Y are N, S, or O) that may be acid/base labile, releasing an aldehyde.

>  <s_lp_Force_Field>  (424) 
OPLS3e

>  <r_lp_Energy>  (424) 
18.2998

>  <b_lp_Chiralities_Consistent>  (424) 
1

>  <s_lp_Variant>  (424) 
114:0-1

>  <s_i_glide_gridfile>  (424) 
pfpi4k_grid

>  <i_i_glide_lignum>  (424) 
39

>  <i_i_glide_rotatable_bonds>  (424) 
5

>  <r_i_docking_score>  (424) 
-4.16285

>  <r_i_glide_ligand_efficiency>  (424) 
-0.219098

>  <r_i_glide_ligand_efficiency_sa>  (424) 
-0.58464

>  <r_i_glide_ligand_efficiency_ln>  (424) 
-1.05537

>  <r_i_glide_gscore>  (424) 
-4.16285

>  <r_i_glide_lipo>  (424) 
-0.142185

>  <r_i_glide_hbond>  (424) 
-0.203774

>  <r_i_glide_metal>  (424) 
-0

>  <r_i_glide_rewards>  (424) 
-1.58796

>  <r_i_glide_evdw>  (424) 
-15.8814

>  <r_i_glide_ecoul>  (424) 
-11.8119

>  <r_i_glide_erotb>  (424) 
0.499276

>  <r_i_glide_esite>  (424) 
-0.162363

>  <r_i_glide_emodel>  (424) 
-36.1462

>  <r_i_glide_energy>  (424) 
-27.6932

>  <r_i_glide_einternal>  (424) 
2.08758

>  <r_i_glide_intrahb_reward>  (424) 
-0

>  <i_i_glide_confnum>  (424) 
3

>  <i_i_glide_posenum>  (424) 
38

>  <r_i_glide_eff_state_penalty>  (424) 
0

>  <ligand_id>  (424) 
114

>  <original_smiles>  (424) 
N=c1[nH]cnc2c1ncn2C1OC(CO)C(O)C1O

>  <smiles>  (424) 
[H]OC([H])([H])C1([H])OC([H])(n2c([H])nc3c(N([H])[H])nc([H])nc32)C([H])(O[H])C1([H])O[H]

$$$$
114:0:1
     RDKit          3D

 32 34  0  0  1  0  0  0  0  0999 V2000
    7.8101   -6.5850    1.2906 N   0  0  0  0  0  0  0  0  0  0  0  0
    6.5100   -6.8206    1.4946 C   0  0  0  0  0  0  0  0  0  0  0  0
    5.6538   -5.7788    1.4356 N   0  0  0  0  0  0  0  0  0  0  0  0
    4.3475   -6.0024    1.6349 C   0  0  0  0  0  0  0  0  0  0  0  0
    3.7300   -7.1555    1.8953 N   0  0  0  0  0  0  0  0  0  0  0  0
    4.5955   -8.2075    1.9374 C   0  0  0  0  0  0  0  0  0  0  0  0
    6.0021   -8.1153    1.7463 C   0  0  0  0  0  0  0  0  0  0  0  0
    6.5789   -9.3778    1.8503 N   0  0  0  0  0  0  0  0  0  0  0  0
    5.5628  -10.1662    2.0733 C   0  0  0  0  0  0  0  0  0  0  0  0
    4.3350   -9.5425    2.1575 N   0  0  0  0  0  0  0  0  0  0  0  0
    3.0246  -10.2226    2.3846 C   0  0  2  0  0  0  0  0  0  0  0  0
    1.9655   -9.3634    2.0825 O   0  0  0  0  0  0  0  0  0  0  0  0
    1.0278   -9.3372    3.1584 C   0  0  1  0  0  0  0  0  0  0  0  0
   -0.4115   -9.2613    2.6089 C   0  0  0  0  0  0  0  0  0  0  0  0
   -1.3320   -8.9938    3.6519 O   0  0  0  0  0  0  0  0  0  0  0  0
    1.3771  -10.5653    4.0198 C   0  0  1  0  0  0  0  0  0  0  0  0
    0.7671  -11.7323    3.4776 O   0  0  0  0  0  0  0  0  0  0  0  0
    2.8860  -10.6384    3.8552 C   0  0  1  0  0  0  0  0  0  0  0  0
    3.3515  -11.9488    4.1010 O   0  0  0  0  0  0  0  0  0  0  0  0
    8.1116   -5.6386    1.1258 H   0  0  0  0  0  0  0  0  0  0  0  0
    8.4656   -7.3594    1.3401 H   0  0  0  0  0  0  0  0  0  0  0  0
    3.6985   -5.1366    1.5636 H   0  0  0  0  0  0  0  0  0  0  0  0
    5.6674  -11.2405    2.1875 H   0  0  0  0  0  0  0  0  0  0  0  0
    3.0181  -11.0490    1.6937 H   0  0  0  0  0  0  0  0  0  0  0  0
    1.2604   -8.4345    3.7265 H   0  0  0  0  0  0  0  0  0  0  0  0
   -0.4772   -8.4563    1.8752 H   0  0  0  0  0  0  0  0  0  0  0  0
   -0.6947  -10.1658    2.0676 H   0  0  0  0  0  0  0  0  0  0  0  0
   -1.4452   -9.7832    4.1827 H   0  0  0  0  0  0  0  0  0  0  0  0
    1.0840  -10.4444    5.0663 H   0  0  0  0  0  0  0  0  0  0  0  0
    1.0924  -12.4976    3.9288 H   0  0  0  0  0  0  0  0  0  0  0  0
    3.3871   -9.9015    4.4876 H   0  0  0  0  0  0  0  0  0  0  0  0
    2.9246  -12.5505    3.5054 H   0  0  0  0  0  0  0  0  0  0  0  0
  1  2  1  0
  1 21  1  0
  1 20  1  0
  2  3  2  0
  2  7  1  0
  3  4  1  0
  4 22  1  0
  4  5  2  0
  5  6  1  0
  6 10  1  0
  6  7  2  0
  7  8  1  0
  8  9  2  0
  9 23  1  0
  9 10  1  0
 10 11  1  0
 11 18  1  0
 11 12  1  0
 11 24  1  6
 12 13  1  0
 13 14  1  0
 13 16  1  0
 13 25  1  1
 14 15  1  0
 14 26  1  0
 14 27  1  0
 15 28  1  0
 16 17  1  0
 16 18  1  0
 16 29  1  1
 17 30  1  0
 18 19  1  0
 18 31  1  1
 19 32  1  0
M  END
>  <i_m_ct_stereo_status>  (425) 
1

>  <s_m_source_file>  (425) 
/var/tmp/pbs.5076255.sched01/tmpnhftudgm/135squ2m_dv.sdf

>  <i_m_source_file_index>  (425) 
39

>  <i_lp_mmshare_version>  (425) 
48012

>  <i_f3d_flags>  (425) 
0

>  <s_epik_input>  (425) 
bjFbY0hdW25IXVxjKD1OXFtIXSljKGMxMiluW2NIXW4yW0NAQEhdM09bQ0BASF0oW0NIMl1bT0hdKVtDQEBIXShbT0hdKVtDQEhdM1tPSF0=

>  <s_epik_cmdline>  (425) 
J2VwaWtfcHl0aG9uJywgJy1waHQnLCAnMi4wJywgJy1waCcsICc3LjAnLCAnLXRuJywgJzgnLCAnLW1hJywgJzIwMCcsICctaW1hZScsICc8aW5maWxlLm1hZT4nLCAnLW9tYWUnLCAnPG91dGZpbGUubWFlPic=

>  <r_lp_tautomer_probability>  (425) 
1

>  <r_epik_Ionization_Penalty>  (425) 
0.000428445

>  <r_epik_Ionization_Penalty_Charging>  (425) 
0

>  <r_epik_Ionization_Penalty_Neutral>  (425) 
0.000428445

>  <r_epik_State_Penalty>  (425) 
-0

>  <r_epik_Charging_Adjusted_Penalty>  (425) 
0

>  <i_epik_Tot_Q>  (425) 
0

>  <i_epik_Tot_abs_Q>  (425) 
0

>  <s_epik_Chemistry_Notes>  (425) 
This compound contains an acetal/aminal-like group ( X-CH(R)-Y where X, Y are N, S, or O) that may be acid/base labile, releasing an aldehyde.

>  <s_lp_Force_Field>  (425) 
OPLS3e

>  <r_lp_Energy>  (425) 
18.2998

>  <b_lp_Chiralities_Consistent>  (425) 
1

>  <s_lp_Variant>  (425) 
114:0-1

>  <s_i_glide_gridfile>  (425) 
pfpi4k_grid

>  <i_i_glide_lignum>  (425) 
39

>  <i_i_glide_rotatable_bonds>  (425) 
5

>  <r_i_docking_score>  (425) 
-3.92563

>  <r_i_glide_ligand_efficiency>  (425) 
-0.206612

>  <r_i_glide_ligand_efficiency_sa>  (425) 
-0.551324

>  <r_i_glide_ligand_efficiency_ln>  (425) 
-0.995232

>  <r_i_glide_gscore>  (425) 
-3.92563

>  <r_i_glide_lipo>  (425) 
-0.195757

>  <r_i_glide_hbond>  (425) 
-0.00373387

>  <r_i_glide_metal>  (425) 
-0

>  <r_i_glide_rewards>  (425) 
-1.64771

>  <r_i_glide_evdw>  (425) 
-19.888

>  <r_i_glide_ecoul>  (425) 
-9.27148

>  <r_i_glide_erotb>  (425) 
0.499276

>  <r_i_glide_esite>  (425) 
-0.192582

>  <r_i_glide_emodel>  (425) 
-37.2661

>  <r_i_glide_energy>  (425) 
-29.1595

>  <r_i_glide_einternal>  (425) 
2.49117

>  <r_i_glide_intrahb_reward>  (425) 
-0

>  <i_i_glide_confnum>  (425) 
6

>  <i_i_glide_posenum>  (425) 
2

>  <r_i_glide_eff_state_penalty>  (425) 
0

>  <ligand_id>  (425) 
114

>  <original_smiles>  (425) 
N=c1[nH]cnc2c1ncn2C1OC(CO)C(O)C1O

>  <smiles>  (425) 
[H]OC([H])([H])C1([H])OC([H])(n2c([H])nc3c(N([H])[H])nc([H])nc32)C([H])(O[H])C1([H])O[H]

$$$$
114:0:2
     RDKit          3D

 32 34  0  0  1  0  0  0  0  0999 V2000
    7.8095   -7.0506    1.3335 N   0  0  0  0  0  0  0  0  0  0  0  0
    6.5208   -7.2123    1.6533 C   0  0  0  0  0  0  0  0  0  0  0  0
    5.7059   -6.1380    1.6038 N   0  0  0  0  0  0  0  0  0  0  0  0
    4.4123   -6.2851    1.9207 C   0  0  0  0  0  0  0  0  0  0  0  0
    3.7636   -7.3930    2.2893 N   0  0  0  0  0  0  0  0  0  0  0  0
    4.5834   -8.4842    2.3072 C   0  0  0  0  0  0  0  0  0  0  0  0
    5.9762   -8.4676    2.0085 C   0  0  0  0  0  0  0  0  0  0  0  0
    6.5023   -9.7504    2.1380 N   0  0  0  0  0  0  0  0  0  0  0  0
    5.4689  -10.4816    2.4674 C   0  0  0  0  0  0  0  0  0  0  0  0
    4.2760   -9.7988    2.5917 N   0  0  0  0  0  0  0  0  0  0  0  0
    2.9552  -10.3823    2.9698 C   0  0  2  0  0  0  0  0  0  0  0  0
    1.9341   -9.6513    2.3625 O   0  0  0  0  0  0  0  0  0  0  0  0
    0.9387   -9.2949    3.3276 C   0  0  1  0  0  0  0  0  0  0  0  0
   -0.4667   -9.4172    2.7104 C   0  0  0  0  0  0  0  0  0  0  0  0
   -1.4595   -9.0239    3.6460 O   0  0  0  0  0  0  0  0  0  0  0  0
    1.2348  -10.1801    4.5523 C   0  0  1  0  0  0  0  0  0  0  0  0
    0.6101  -11.4484    4.4318 O   0  0  0  0  0  0  0  0  0  0  0  0
    2.7497  -10.3019    4.4894 C   0  0  1  0  0  0  0  0  0  0  0  0
    3.2049  -11.4428    5.1981 O   0  0  0  0  0  0  0  0  0  0  0  0
    8.1409   -6.1344    1.0866 H   0  0  0  0  0  0  0  0  0  0  0  0
    8.4388   -7.8463    1.3731 H   0  0  0  0  0  0  0  0  0  0  0  0
    3.8045   -5.3913    1.8493 H   0  0  0  0  0  0  0  0  0  0  0  0
    5.5379  -11.5490    2.6334 H   0  0  0  0  0  0  0  0  0  0  0  0
    2.9496  -11.3916    2.5566 H   0  0  0  0  0  0  0  0  0  0  0  0
    1.1382   -8.2552    3.6001 H   0  0  0  0  0  0  0  0  0  0  0  0
   -0.5385   -8.7766    1.8316 H   0  0  0  0  0  0  0  0  0  0  0  0
   -0.6320  -10.4289    2.3477 H   0  0  0  0  0  0  0  0  0  0  0  0
   -1.6385   -9.7480    4.2496 H   0  0  0  0  0  0  0  0  0  0  0  0
    0.9015   -9.7196    5.4847 H   0  0  0  0  0  0  0  0  0  0  0  0
   -0.3297  -11.3555    4.5805 H   0  0  0  0  0  0  0  0  0  0  0  0
    3.2151   -9.3934    4.8756 H   0  0  0  0  0  0  0  0  0  0  0  0
    2.6025  -11.6367    5.9084 H   0  0  0  0  0  0  0  0  0  0  0  0
  1  2  1  0
  1 21  1  0
  1 20  1  0
  2  3  2  0
  2  7  1  0
  3  4  1  0
  4 22  1  0
  4  5  2  0
  5  6  1  0
  6 10  1  0
  6  7  2  0
  7  8  1  0
  8  9  2  0
  9 23  1  0
  9 10  1  0
 10 11  1  0
 11 18  1  0
 11 12  1  0
 11 24  1  6
 12 13  1  0
 13 14  1  0
 13 16  1  0
 13 25  1  1
 14 15  1  0
 14 26  1  0
 14 27  1  0
 15 28  1  0
 16 17  1  0
 16 18  1  0
 16 29  1  1
 17 30  1  0
 18 19  1  0
 18 31  1  1
 19 32  1  0
M  END
>  <i_m_ct_stereo_status>  (426) 
1

>  <s_m_source_file>  (426) 
/var/tmp/pbs.5076255.sched01/tmpnhftudgm/135squ2m_dv.sdf

>  <i_m_source_file_index>  (426) 
39

>  <i_lp_mmshare_version>  (426) 
48012

>  <i_f3d_flags>  (426) 
0

>  <s_epik_input>  (426) 
bjFbY0hdW25IXVxjKD1OXFtIXSljKGMxMiluW2NIXW4yW0NAQEhdM09bQ0BASF0oW0NIMl1bT0hdKVtDQEBIXShbT0hdKVtDQEhdM1tPSF0=

>  <s_epik_cmdline>  (426) 
J2VwaWtfcHl0aG9uJywgJy1waHQnLCAnMi4wJywgJy1waCcsICc3LjAnLCAnLXRuJywgJzgnLCAnLW1hJywgJzIwMCcsICctaW1hZScsICc8aW5maWxlLm1hZT4nLCAnLW9tYWUnLCAnPG91dGZpbGUubWFlPic=

>  <r_lp_tautomer_probability>  (426) 
1

>  <r_epik_Ionization_Penalty>  (426) 
0.000428445

>  <r_epik_Ionization_Penalty_Charging>  (426) 
0

>  <r_epik_Ionization_Penalty_Neutral>  (426) 
0.000428445

>  <r_epik_State_Penalty>  (426) 
-0

>  <r_epik_Charging_Adjusted_Penalty>  (426) 
0

>  <i_epik_Tot_Q>  (426) 
0

>  <i_epik_Tot_abs_Q>  (426) 
0

>  <s_epik_Chemistry_Notes>  (426) 
This compound contains an acetal/aminal-like group ( X-CH(R)-Y where X, Y are N, S, or O) that may be acid/base labile, releasing an aldehyde.

>  <s_lp_Force_Field>  (426) 
OPLS3e

>  <r_lp_Energy>  (426) 
18.2998

>  <b_lp_Chiralities_Consistent>  (426) 
1

>  <s_lp_Variant>  (426) 
114:0-1

>  <s_i_glide_gridfile>  (426) 
pfpi4k_grid

>  <i_i_glide_lignum>  (426) 
39

>  <i_i_glide_rotatable_bonds>  (426) 
5

>  <r_i_docking_score>  (426) 
-3.84522

>  <r_i_glide_ligand_efficiency>  (426) 
-0.20238

>  <r_i_glide_ligand_efficiency_sa>  (426) 
-0.540032

>  <r_i_glide_ligand_efficiency_ln>  (426) 
-0.974847

>  <r_i_glide_gscore>  (426) 
-3.84522

>  <r_i_glide_lipo>  (426) 
-0.140289

>  <r_i_glide_hbond>  (426) 
-0.010129

>  <r_i_glide_metal>  (426) 
-0

>  <r_i_glide_rewards>  (426) 
-1.62957

>  <r_i_glide_evdw>  (426) 
-19.7499

>  <r_i_glide_ecoul>  (426) 
-9.29844

>  <r_i_glide_erotb>  (426) 
0.499276

>  <r_i_glide_esite>  (426) 
-0.182252

>  <r_i_glide_emodel>  (426) 
-36.7757

>  <r_i_glide_energy>  (426) 
-29.0483

>  <r_i_glide_einternal>  (426) 
2.51135

>  <r_i_glide_intrahb_reward>  (426) 
-0

>  <i_i_glide_confnum>  (426) 
6

>  <i_i_glide_posenum>  (426) 
18

>  <r_i_glide_eff_state_penalty>  (426) 
0

>  <ligand_id>  (426) 
114

>  <original_smiles>  (426) 
N=c1[nH]cnc2c1ncn2C1OC(CO)C(O)C1O

>  <smiles>  (426) 
[H]OC([H])([H])C1([H])OC([H])(n2c([H])nc3c(N([H])[H])nc([H])nc32)C([H])(O[H])C1([H])O[H]

$$$$
115:0:0
     RDKit          3D

 31 33  0  0  1  0  0  0  0  0999 V2000
    1.1967   -6.6948    0.9516 C   0  0  0  0  0  0  0  0  0  0  0  0
    1.4635   -5.6179    0.0701 O   0  0  0  0  0  0  0  0  0  0  0  0
    2.6982   -4.9716    0.3752 C   0  0  0  0  0  0  0  0  0  0  0  0
    3.0693   -3.9565   -0.6815 C   0  0  2  0  0  0  0  0  0  0  0  0
    4.5223   -3.6964   -1.0141 C   0  0  1  0  0  0  0  0  0  0  0  0
    4.9196   -3.1120   -2.3375 C   0  0  0  0  0  0  0  0  0  0  0  0
    4.2292   -1.8238   -2.4786 N   0  0  0  0  0  0  0  0  0  0  0  0
    3.9324   -1.2734   -3.6730 C   0  0  0  0  0  0  0  0  0  0  0  0
    4.2216   -1.8172   -4.7187 O   0  0  0  0  0  0  0  0  0  0  0  0
    3.2804    0.0643   -3.7042 C   0  0  0  0  0  0  0  0  0  0  0  0
    2.4862    0.4533   -4.9351 C   0  0  0  0  0  0  0  0  0  0  0  0
    3.8066    1.1139   -4.6613 C   0  0  0  0  0  0  0  0  0  0  0  0
    3.6525   -1.4476   -1.1920 C   0  0  0  0  0  0  0  0  0  0  0  0
    3.7252   -2.6497   -0.2958 C   0  0  1  0  0  0  0  0  0  0  0  0
    0.2497   -7.1553    0.6675 H   0  0  0  0  0  0  0  0  0  0  0  0
    1.1317   -6.3488    1.9858 H   0  0  0  0  0  0  0  0  0  0  0  0
    1.9801   -7.4517    0.8842 H   0  0  0  0  0  0  0  0  0  0  0  0
    2.6167   -4.4660    1.3383 H   0  0  0  0  0  0  0  0  0  0  0  0
    3.5031   -5.7054    0.4551 H   0  0  0  0  0  0  0  0  0  0  0  0
    2.3714   -3.9403   -1.5125 H   0  0  0  0  0  0  0  0  0  0  0  0
    5.2917   -4.2390   -0.4678 H   0  0  0  0  0  0  0  0  0  0  0  0
    5.9975   -2.9603   -2.3608 H   0  0  0  0  0  0  0  0  0  0  0  0
    4.6710   -3.8163   -3.1308 H   0  0  0  0  0  0  0  0  0  0  0  0
    2.8984    0.3951   -2.7585 H   0  0  0  0  0  0  0  0  0  0  0  0
    2.4529   -0.2441   -5.7760 H   0  0  0  0  0  0  0  0  0  0  0  0
    1.5846    1.0458   -4.7633 H   0  0  0  0  0  0  0  0  0  0  0  0
    3.8177    2.1470   -4.3096 H   0  0  0  0  0  0  0  0  0  0  0  0
    4.6203    0.8456   -5.3284 H   0  0  0  0  0  0  0  0  0  0  0  0
    4.1679   -0.5827   -0.7589 H   0  0  0  0  0  0  0  0  0  0  0  0
    2.6145   -1.1969   -1.3483 H   0  0  0  0  0  0  0  0  0  0  0  0
    3.8913   -2.4760    0.7616 H   0  0  0  0  0  0  0  0  0  0  0  0
  1  2  1  0
  1 15  1  0
  1 16  1  0
  1 17  1  0
  2  3  1  0
  3  4  1  0
  3 18  1  0
  3 19  1  0
  4 14  1  0
  4  5  1  0
  4 20  1  6
  5 14  1  0
  5  6  1  0
  5 21  1  1
  6  7  1  0
  6 22  1  0
  6 23  1  0
  7  8  1  0
  7 13  1  0
  8  9  2  0
  8 10  1  0
 10 12  1  0
 10 11  1  0
 10 24  1  0
 11 12  1  0
 11 25  1  0
 11 26  1  0
 12 27  1  0
 12 28  1  0
 13 14  1  0
 13 29  1  0
 13 30  1  0
 14 31  1  1
M  END
>  <i_m_ct_stereo_status>  (427) 
1

>  <s_m_source_file>  (427) 
/var/tmp/pbs.5076255.sched01/tmpnhftudgm/135squ2m_dv.sdf

>  <i_m_source_file_index>  (427) 
40

>  <i_lp_mmshare_version>  (427) 
48012

>  <i_f3d_flags>  (427) 
0

>  <s_epik_input>  (427) 
W0NIM11PW0NIMl1bQ0BIXTFbQ0BASF0oW0NAQEhdMTIpW0NIMl1OKFtDSDJdMilDKD1PKVtDSF0zW0NIMl1bQ0gyXTM=

>  <s_epik_cmdline>  (427) 
J2VwaWtfcHl0aG9uJywgJy1waHQnLCAnMi4wJywgJy1waCcsICc3LjAnLCAnLXRuJywgJzgnLCAnLW1hJywgJzIwMCcsICctaW1hZScsICc8aW5maWxlLm1hZT4nLCAnLW9tYWUnLCAnPG91dGZpbGUubWFlPic=

>  <r_lp_tautomer_probability>  (427) 
1

>  <r_epik_Ionization_Penalty>  (427) 
3.91252e-07

>  <r_epik_Ionization_Penalty_Charging>  (427) 
0

>  <r_epik_Ionization_Penalty_Neutral>  (427) 
3.91252e-07

>  <r_epik_State_Penalty>  (427) 
-0

>  <r_epik_Charging_Adjusted_Penalty>  (427) 
0

>  <i_epik_Tot_Q>  (427) 
0

>  <i_epik_Tot_abs_Q>  (427) 
0

>  <s_lp_Force_Field>  (427) 
OPLS3e

>  <r_lp_Energy>  (427) 
23.5433

>  <b_lp_Chiralities_Consistent>  (427) 
1

>  <s_lp_Variant>  (427) 
115:0-1

>  <s_i_glide_gridfile>  (427) 
pfpi4k_grid

>  <i_i_glide_lignum>  (427) 
40

>  <i_i_glide_rotatable_bonds>  (427) 
4

>  <r_i_docking_score>  (427) 
-3.53924

>  <r_i_glide_ligand_efficiency>  (427) 
-0.252803

>  <r_i_glide_ligand_efficiency_sa>  (427) 
-0.609292

>  <r_i_glide_ligand_efficiency_ln>  (427) 
-0.972572

>  <r_i_glide_gscore>  (427) 
-3.53924

>  <r_i_glide_lipo>  (427) 
-0.167578

>  <r_i_glide_hbond>  (427) 
-0.446233

>  <r_i_glide_metal>  (427) 
-0

>  <r_i_glide_rewards>  (427) 
-2.37089

>  <r_i_glide_evdw>  (427) 
-12.0156

>  <r_i_glide_ecoul>  (427) 
-8.12857

>  <r_i_glide_erotb>  (427) 
1.2749

>  <r_i_glide_esite>  (427) 
-0.00938222

>  <r_i_glide_emodel>  (427) 
-24.288

>  <r_i_glide_energy>  (427) 
-20.1442

>  <r_i_glide_einternal>  (427) 
1.52813

>  <r_i_glide_intrahb_reward>  (427) 
-0

>  <i_i_glide_confnum>  (427) 
2

>  <i_i_glide_posenum>  (427) 
18

>  <r_i_glide_eff_state_penalty>  (427) 
0

>  <ligand_id>  (427) 
115

>  <original_smiles>  (427) 
COCC1C2CN(C(=O)C3CC3)CC12

>  <smiles>  (427) 
[H]C([H])([H])OC([H])([H])C1([H])C2([H])C([H])([H])N(C(=O)C3([H])C([H])([H])C3([H])[H])C([H])([H])C12[H]

$$$$
115:0:1
     RDKit          3D

 31 33  0  0  1  0  0  0  0  0999 V2000
    2.9796   -6.1457    0.9972 C   0  0  0  0  0  0  0  0  0  0  0  0
    2.1202   -5.0972    1.4211 O   0  0  0  0  0  0  0  0  0  0  0  0
    2.7794   -3.8536    1.5735 C   0  0  0  0  0  0  0  0  0  0  0  0
    3.1153   -3.2446    0.2306 C   0  0  2  0  0  0  0  0  0  0  0  0
    4.5071   -3.3692   -0.3423 C   0  0  1  0  0  0  0  0  0  0  0  0
    4.7513   -3.2481   -1.8142 C   0  0  0  0  0  0  0  0  0  0  0  0
    4.3094   -1.9092   -2.2091 N   0  0  0  0  0  0  0  0  0  0  0  0
    3.9117   -1.6207   -3.4571 C   0  0  0  0  0  0  0  0  0  0  0  0
    3.8726   -2.4941   -4.3249 O   0  0  0  0  0  0  0  0  0  0  0  0
    3.5727   -0.1860   -3.7643 C   0  0  0  0  0  0  0  0  0  0  0  0
    2.3200    0.0680   -4.5722 C   0  0  0  0  0  0  0  0  0  0  0  0
    3.6458    0.2517   -5.2227 C   0  0  0  0  0  0  0  0  0  0  0  0
    4.0250   -1.1123   -1.0269 C   0  0  0  0  0  0  0  0  0  0  0  0
    4.0395   -2.0416    0.1578 C   0  0  1  0  0  0  0  0  0  0  0  0
    2.4183   -7.0774    0.8943 H   0  0  0  0  0  0  0  0  0  0  0  0
    3.7799   -6.2991    1.7219 H   0  0  0  0  0  0  0  0  0  0  0  0
    3.4288   -5.9282    0.0285 H   0  0  0  0  0  0  0  0  0  0  0  0
    2.1128   -3.1672    2.0856 H   0  0  0  0  0  0  0  0  0  0  0  0
    3.6754   -3.9566    2.1820 H   0  0  0  0  0  0  0  0  0  0  0  0
    2.2811   -3.2309   -0.4768 H   0  0  0  0  0  0  0  0  0  0  0  0
    5.2463   -3.9442    0.2279 H   0  0  0  0  0  0  0  0  0  0  0  0
    5.8179   -3.3529   -2.0183 H   0  0  0  0  0  0  0  0  0  0  0  0
    4.2319   -4.0608   -2.3328 H   0  0  0  0  0  0  0  0  0  0  0  0
    3.8408    0.5675   -3.0321 H   0  0  0  0  0  0  0  0  0  0  0  0
    1.7648   -0.7968   -4.8883 H   0  0  0  0  0  0  0  0  0  0  0  0
    1.7258    0.9400   -4.3414 H   0  0  0  0  0  0  0  0  0  0  0  0
    3.9722    1.2734   -5.4275 H   0  0  0  0  0  0  0  0  0  0  0  0
    3.8220   -0.4865   -6.0012 H   0  0  0  0  0  0  0  0  0  0  0  0
    4.7682   -0.3174   -0.9235 H   0  0  0  0  0  0  0  0  0  0  0  0
    3.0357   -0.6625   -1.1034 H   0  0  0  0  0  0  0  0  0  0  0  0
    4.4322   -1.6553    1.0952 H   0  0  0  0  0  0  0  0  0  0  0  0
  1  2  1  0
  1 15  1  0
  1 16  1  0
  1 17  1  0
  2  3  1  0
  3  4  1  0
  3 18  1  0
  3 19  1  0
  4 14  1  0
  4  5  1  0
  4 20  1  6
  5 14  1  0
  5  6  1  0
  5 21  1  1
  6  7  1  0
  6 22  1  0
  6 23  1  0
  7  8  1  0
  7 13  1  0
  8  9  2  0
  8 10  1  0
 10 12  1  0
 10 11  1  0
 10 24  1  0
 11 12  1  0
 11 25  1  0
 11 26  1  0
 12 27  1  0
 12 28  1  0
 13 14  1  0
 13 29  1  0
 13 30  1  0
 14 31  1  1
M  END
>  <i_m_ct_stereo_status>  (428) 
1

>  <s_m_source_file>  (428) 
/var/tmp/pbs.5076255.sched01/tmpnhftudgm/135squ2m_dv.sdf

>  <i_m_source_file_index>  (428) 
40

>  <i_lp_mmshare_version>  (428) 
48012

>  <i_f3d_flags>  (428) 
0

>  <s_epik_input>  (428) 
W0NIM11PW0NIMl1bQ0BIXTFbQ0BASF0oW0NAQEhdMTIpW0NIMl1OKFtDSDJdMilDKD1PKVtDSF0zW0NIMl1bQ0gyXTM=

>  <s_epik_cmdline>  (428) 
J2VwaWtfcHl0aG9uJywgJy1waHQnLCAnMi4wJywgJy1waCcsICc3LjAnLCAnLXRuJywgJzgnLCAnLW1hJywgJzIwMCcsICctaW1hZScsICc8aW5maWxlLm1hZT4nLCAnLW9tYWUnLCAnPG91dGZpbGUubWFlPic=

>  <r_lp_tautomer_probability>  (428) 
1

>  <r_epik_Ionization_Penalty>  (428) 
3.91252e-07

>  <r_epik_Ionization_Penalty_Charging>  (428) 
0

>  <r_epik_Ionization_Penalty_Neutral>  (428) 
3.91252e-07

>  <r_epik_State_Penalty>  (428) 
-0

>  <r_epik_Charging_Adjusted_Penalty>  (428) 
0

>  <i_epik_Tot_Q>  (428) 
0

>  <i_epik_Tot_abs_Q>  (428) 
0

>  <s_lp_Force_Field>  (428) 
OPLS3e

>  <r_lp_Energy>  (428) 
23.5433

>  <b_lp_Chiralities_Consistent>  (428) 
1

>  <s_lp_Variant>  (428) 
115:0-1

>  <s_i_glide_gridfile>  (428) 
pfpi4k_grid

>  <i_i_glide_lignum>  (428) 
40

>  <i_i_glide_rotatable_bonds>  (428) 
4

>  <r_i_docking_score>  (428) 
-3.27676

>  <r_i_glide_ligand_efficiency>  (428) 
-0.234054

>  <r_i_glide_ligand_efficiency_sa>  (428) 
-0.564104

>  <r_i_glide_ligand_efficiency_ln>  (428) 
-0.900442

>  <r_i_glide_gscore>  (428) 
-3.27676

>  <r_i_glide_lipo>  (428) 
-0.382805

>  <r_i_glide_hbond>  (428) 
-0.336501

>  <r_i_glide_metal>  (428) 
-0

>  <r_i_glide_rewards>  (428) 
-2.32115

>  <r_i_glide_evdw>  (428) 
-17.9827

>  <r_i_glide_ecoul>  (428) 
-3.99642

>  <r_i_glide_erotb>  (428) 
1.2749

>  <r_i_glide_esite>  (428) 
-0.012601

>  <r_i_glide_emodel>  (428) 
-25.8401

>  <r_i_glide_energy>  (428) 
-21.9791

>  <r_i_glide_einternal>  (428) 
1.48747

>  <r_i_glide_intrahb_reward>  (428) 
-0

>  <i_i_glide_confnum>  (428) 
3

>  <i_i_glide_posenum>  (428) 
1

>  <r_i_glide_eff_state_penalty>  (428) 
0

>  <ligand_id>  (428) 
115

>  <original_smiles>  (428) 
COCC1C2CN(C(=O)C3CC3)CC12

>  <smiles>  (428) 
[H]C([H])([H])OC([H])([H])C1([H])C2([H])C([H])([H])N(C(=O)C3([H])C([H])([H])C3([H])[H])C([H])([H])C12[H]

$$$$
115:0:2
     RDKit          3D

 31 33  0  0  1  0  0  0  0  0999 V2000
    3.4126    0.0374   -5.5140 C   0  0  0  0  0  0  0  0  0  0  0  0
    3.7376   -0.8905   -4.5090 O   0  0  0  0  0  0  0  0  0  0  0  0
    3.5852   -0.3684   -3.2077 C   0  0  0  0  0  0  0  0  0  0  0  0
    3.6674   -1.4999   -2.2181 C   0  0  2  0  0  0  0  0  0  0  0  0
    4.2307   -2.8639   -2.6025 C   0  0  1  0  0  0  0  0  0  0  0  0
    4.7500   -3.7845   -1.5372 C   0  0  0  0  0  0  0  0  0  0  0  0
    3.6546   -4.0258   -0.5806 N   0  0  0  0  0  0  0  0  0  0  0  0
    3.7563   -4.5453    0.6698 C   0  0  0  0  0  0  0  0  0  0  0  0
    2.7984   -4.5840    1.4469 O   0  0  0  0  0  0  0  0  0  0  0  0
    5.1021   -5.0828    1.0766 C   0  0  0  0  0  0  0  0  0  0  0  0
    5.0944   -6.1984    2.0872 C   0  0  0  0  0  0  0  0  0  0  0  0
    5.5663   -4.8234    2.4894 C   0  0  0  0  0  0  0  0  0  0  0  0
    2.3947   -3.5524   -1.1690 C   0  0  0  0  0  0  0  0  0  0  0  0
    2.7530   -2.7003   -2.3727 C   0  0  1  0  0  0  0  0  0  0  0  0
    3.5253   -0.4554   -6.4768 H   0  0  0  0  0  0  0  0  0  0  0  0
    4.0694    0.9069   -5.4896 H   0  0  0  0  0  0  0  0  0  0  0  0
    2.3758    0.3688   -5.4448 H   0  0  0  0  0  0  0  0  0  0  0  0
    4.3559    0.3653   -2.9858 H   0  0  0  0  0  0  0  0  0  0  0  0
    2.6292    0.1318   -3.0761 H   0  0  0  0  0  0  0  0  0  0  0  0
    3.7727   -1.1512   -1.1880 H   0  0  0  0  0  0  0  0  0  0  0  0
    4.6203   -3.0396   -3.6143 H   0  0  0  0  0  0  0  0  0  0  0  0
    5.0038   -4.7284   -2.0184 H   0  0  0  0  0  0  0  0  0  0  0  0
    5.6533   -3.3375   -1.1076 H   0  0  0  0  0  0  0  0  0  0  0  0
    5.8527   -5.1926    0.3017 H   0  0  0  0  0  0  0  0  0  0  0  0
    4.1340   -6.5385    2.4748 H   0  0  0  0  0  0  0  0  0  0  0  0
    5.8501   -6.9679    1.9702 H   0  0  0  0  0  0  0  0  0  0  0  0
    6.6365   -4.6602    2.6078 H   0  0  0  0  0  0  0  0  0  0  0  0
    4.9110   -4.2310    3.1295 H   0  0  0  0  0  0  0  0  0  0  0  0
    1.8276   -4.4213   -1.4759 H   0  0  0  0  0  0  0  0  0  0  0  0
    1.7702   -3.0209   -0.4550 H   0  0  0  0  0  0  0  0  0  0  0  0
    2.0761   -2.7038   -3.2256 H   0  0  0  0  0  0  0  0  0  0  0  0
  1  2  1  0
  1 15  1  0
  1 16  1  0
  1 17  1  0
  2  3  1  0
  3  4  1  0
  3 18  1  0
  3 19  1  0
  4 14  1  0
  4  5  1  0
  4 20  1  1
  5 14  1  0
  5  6  1  0
  5 21  1  6
  6  7  1  0
  6 22  1  0
  6 23  1  0
  7  8  1  0
  7 13  1  0
  8  9  2  0
  8 10  1  0
 10 12  1  0
 10 11  1  0
 10 24  1  0
 11 12  1  0
 11 25  1  0
 11 26  1  0
 12 27  1  0
 12 28  1  0
 13 14  1  0
 13 29  1  0
 13 30  1  0
 14 31  1  6
M  END
>  <i_m_ct_stereo_status>  (429) 
1

>  <s_m_source_file>  (429) 
/var/tmp/pbs.5076255.sched01/tmpnhftudgm/135squ2m_dv.sdf

>  <i_m_source_file_index>  (429) 
40

>  <i_lp_mmshare_version>  (429) 
48012

>  <i_f3d_flags>  (429) 
0

>  <s_epik_input>  (429) 
W0NIM11PW0NIMl1bQ0BIXTFbQ0BASF0oW0NAQEhdMTIpW0NIMl1OKFtDSDJdMilDKD1PKVtDSF0zW0NIMl1bQ0gyXTM=

>  <s_epik_cmdline>  (429) 
J2VwaWtfcHl0aG9uJywgJy1waHQnLCAnMi4wJywgJy1waCcsICc3LjAnLCAnLXRuJywgJzgnLCAnLW1hJywgJzIwMCcsICctaW1hZScsICc8aW5maWxlLm1hZT4nLCAnLW9tYWUnLCAnPG91dGZpbGUubWFlPic=

>  <r_lp_tautomer_probability>  (429) 
1

>  <r_epik_Ionization_Penalty>  (429) 
3.91252e-07

>  <r_epik_Ionization_Penalty_Charging>  (429) 
0

>  <r_epik_Ionization_Penalty_Neutral>  (429) 
3.91252e-07

>  <r_epik_State_Penalty>  (429) 
-0

>  <r_epik_Charging_Adjusted_Penalty>  (429) 
0

>  <i_epik_Tot_Q>  (429) 
0

>  <i_epik_Tot_abs_Q>  (429) 
0

>  <s_lp_Force_Field>  (429) 
OPLS3e

>  <r_lp_Energy>  (429) 
23.5433

>  <b_lp_Chiralities_Consistent>  (429) 
1

>  <s_lp_Variant>  (429) 
115:0-1

>  <s_i_glide_gridfile>  (429) 
pfpi4k_grid

>  <i_i_glide_lignum>  (429) 
40

>  <i_i_glide_rotatable_bonds>  (429) 
4

>  <r_i_docking_score>  (429) 
-2.4351

>  <r_i_glide_ligand_efficiency>  (429) 
-0.173936

>  <r_i_glide_ligand_efficiency_sa>  (429) 
-0.41921

>  <r_i_glide_ligand_efficiency_ln>  (429) 
-0.669157

>  <r_i_glide_gscore>  (429) 
-2.4351

>  <r_i_glide_lipo>  (429) 
-0.330699

>  <r_i_glide_hbond>  (429) 
-0.125566

>  <r_i_glide_metal>  (429) 
-0

>  <r_i_glide_rewards>  (429) 
-2.0846

>  <r_i_glide_evdw>  (429) 
-19.069

>  <r_i_glide_ecoul>  (429) 
-1.30566

>  <r_i_glide_erotb>  (429) 
1.2749

>  <r_i_glide_esite>  (429) 
-0.0198401

>  <r_i_glide_emodel>  (429) 
-22.7132

>  <r_i_glide_energy>  (429) 
-20.3746

>  <r_i_glide_einternal>  (429) 
1.65435

>  <r_i_glide_intrahb_reward>  (429) 
-0

>  <i_i_glide_confnum>  (429) 
4

>  <i_i_glide_posenum>  (429) 
6

>  <r_i_glide_eff_state_penalty>  (429) 
0

>  <ligand_id>  (429) 
115

>  <original_smiles>  (429) 
COCC1C2CN(C(=O)C3CC3)CC12

>  <smiles>  (429) 
[H]C([H])([H])OC([H])([H])C1([H])C2([H])C([H])([H])N(C(=O)C3([H])C([H])([H])C3([H])[H])C([H])([H])C12[H]

$$$$
115:1:0
     RDKit          3D

 31 33  0  0  1  0  0  0  0  0999 V2000
    3.5718    0.0577   -5.4392 C   0  0  0  0  0  0  0  0  0  0  0  0
    2.6091    0.1399   -4.4156 O   0  0  0  0  0  0  0  0  0  0  0  0
    2.9139   -0.6721   -3.2934 C   0  0  0  0  0  0  0  0  0  0  0  0
    2.5529   -2.1265   -3.5784 C   0  0  1  0  0  0  0  0  0  0  0  0
    3.5763   -3.2355   -3.5520 C   0  0  1  0  0  0  0  0  0  0  0  0
    4.9196   -3.0563   -2.9063 C   0  0  0  0  0  0  0  0  0  0  0  0
    4.6915   -2.7457   -1.4895 N   0  0  0  0  0  0  0  0  0  0  0  0
    5.6147   -2.1425   -0.6989 C   0  0  0  0  0  0  0  0  0  0  0  0
    6.7327   -1.8594   -1.1258 O   0  0  0  0  0  0  0  0  0  0  0  0
    5.2137   -1.8280    0.7088 C   0  0  0  0  0  0  0  0  0  0  0  0
    5.4038   -0.3986    1.1728 C   0  0  0  0  0  0  0  0  0  0  0  0
    6.3229   -1.4724    1.6786 C   0  0  0  0  0  0  0  0  0  0  0  0
    3.2716   -2.9318   -1.1680 C   0  0  0  0  0  0  0  0  0  0  0  0
    2.5439   -3.1476   -2.4652 C   0  0  1  0  0  0  0  0  0  0  0  0
    3.2842    0.6997   -6.2739 H   0  0  0  0  0  0  0  0  0  0  0  0
    3.6443   -0.9655   -5.7921 H   0  0  0  0  0  0  0  0  0  0  0  0
    4.5510    0.3782   -5.0769 H   0  0  0  0  0  0  0  0  0  0  0  0
    3.9543   -0.5149   -2.9922 H   0  0  0  0  0  0  0  0  0  0  0  0
    2.2903   -0.3280   -2.4610 H   0  0  0  0  0  0  0  0  0  0  0  0
    1.7101   -2.2485   -4.2612 H   0  0  0  0  0  0  0  0  0  0  0  0
    3.4831   -4.0088   -4.3116 H   0  0  0  0  0  0  0  0  0  0  0  0
    5.5119   -3.9622   -3.0036 H   0  0  0  0  0  0  0  0  0  0  0  0
    5.4162   -2.2465   -3.4320 H   0  0  0  0  0  0  0  0  0  0  0  0
    4.3574   -2.3573    1.1283 H   0  0  0  0  0  0  0  0  0  0  0  0
    5.8332    0.3226    0.4816 H   0  0  0  0  0  0  0  0  0  0  0  0
    4.6725    0.0055    1.8682 H   0  0  0  0  0  0  0  0  0  0  0  0
    6.2015   -1.8136    2.7066 H   0  0  0  0  0  0  0  0  0  0  0  0
    7.3477   -1.4538    1.3049 H   0  0  0  0  0  0  0  0  0  0  0  0
    3.1486   -3.7961   -0.5209 H   0  0  0  0  0  0  0  0  0  0  0  0
    2.8351   -2.0629   -0.6737 H   0  0  0  0  0  0  0  0  0  0  0  0
    1.7445   -3.8831   -2.4577 H   0  0  0  0  0  0  0  0  0  0  0  0
  1  2  1  0
  1 15  1  0
  1 16  1  0
  1 17  1  0
  2  3  1  0
  3  4  1  0
  3 18  1  0
  3 19  1  0
  4 14  1  0
  4  5  1  0
  4 20  1  6
  5 14  1  0
  5  6  1  0
  5 21  1  6
  6  7  1  0
  6 22  1  0
  6 23  1  0
  7  8  1  0
  7 13  1  0
  8  9  2  0
  8 10  1  0
 10 12  1  0
 10 11  1  0
 10 24  1  0
 11 12  1  0
 11 25  1  0
 11 26  1  0
 12 27  1  0
 12 28  1  0
 13 14  1  0
 13 29  1  0
 13 30  1  0
 14 31  1  1
M  END
>  <i_m_ct_stereo_status>  (430) 
1

>  <s_m_source_file>  (430) 
/var/tmp/pbs.5076255.sched01/tmpnhftudgm/135squ2m_dv.sdf

>  <i_m_source_file_index>  (430) 
41

>  <i_lp_mmshare_version>  (430) 
48012

>  <i_f3d_flags>  (430) 
0

>  <s_epik_input>  (430) 
W0NIM11PW0NIMl1bQ0BIXTFbQ0BASF0oW0NAQEhdMTIpW0NIMl1OKFtDSDJdMilDKD1PKVtDSF0zW0NIMl1bQ0gyXTM=

>  <s_epik_cmdline>  (430) 
J2VwaWtfcHl0aG9uJywgJy1waHQnLCAnMi4wJywgJy1waCcsICc3LjAnLCAnLXRuJywgJzgnLCAnLW1hJywgJzIwMCcsICctaW1hZScsICc8aW5maWxlLm1hZT4nLCAnLW9tYWUnLCAnPG91dGZpbGUubWFlPic=

>  <r_lp_tautomer_probability>  (430) 
1

>  <r_epik_Ionization_Penalty>  (430) 
3.91252e-07

>  <r_epik_Ionization_Penalty_Charging>  (430) 
0

>  <r_epik_Ionization_Penalty_Neutral>  (430) 
3.91252e-07

>  <r_epik_State_Penalty>  (430) 
-0

>  <r_epik_Charging_Adjusted_Penalty>  (430) 
0

>  <i_epik_Tot_Q>  (430) 
0

>  <i_epik_Tot_abs_Q>  (430) 
0

>  <s_lp_Force_Field>  (430) 
OPLS3e

>  <r_lp_Energy>  (430) 
26.0998

>  <b_lp_Chiralities_Consistent>  (430) 
1

>  <s_lp_Variant>  (430) 
115:0-2

>  <s_i_glide_gridfile>  (430) 
pfpi4k_grid

>  <i_i_glide_lignum>  (430) 
41

>  <i_i_glide_rotatable_bonds>  (430) 
4

>  <r_i_docking_score>  (430) 
-3.53555

>  <r_i_glide_ligand_efficiency>  (430) 
-0.252539

>  <r_i_glide_ligand_efficiency_sa>  (430) 
-0.608656

>  <r_i_glide_ligand_efficiency_ln>  (430) 
-0.971557

>  <r_i_glide_gscore>  (430) 
-3.53555

>  <r_i_glide_lipo>  (430) 
-1.12839

>  <r_i_glide_hbond>  (430) 
-0.16

>  <r_i_glide_metal>  (430) 
-0

>  <r_i_glide_rewards>  (430) 
-2.07779

>  <r_i_glide_evdw>  (430) 
-19.9725

>  <r_i_glide_ecoul>  (430) 
-2.72359

>  <r_i_glide_erotb>  (430) 
1.2749

>  <r_i_glide_esite>  (430) 
-0.0371114

>  <r_i_glide_emodel>  (430) 
-27.704

>  <r_i_glide_energy>  (430) 
-22.6961

>  <r_i_glide_einternal>  (430) 
1.9881

>  <r_i_glide_intrahb_reward>  (430) 
-0

>  <i_i_glide_confnum>  (430) 
6

>  <i_i_glide_posenum>  (430) 
38

>  <r_i_glide_eff_state_penalty>  (430) 
0

>  <ligand_id>  (430) 
115

>  <original_smiles>  (430) 
COCC1C2CN(C(=O)C3CC3)CC12

>  <smiles>  (430) 
[H]C([H])([H])OC([H])([H])C1([H])C2([H])C([H])([H])N(C(=O)C3([H])C([H])([H])C3([H])[H])C([H])([H])C12[H]

$$$$
115:1:1
     RDKit          3D

 31 33  0  0  1  0  0  0  0  0999 V2000
    2.5909    0.2379   -5.1136 C   0  0  0  0  0  0  0  0  0  0  0  0
    3.8717   -0.2926   -4.8635 O   0  0  0  0  0  0  0  0  0  0  0  0
    3.9559   -0.9665   -3.6273 C   0  0  0  0  0  0  0  0  0  0  0  0
    3.5003   -2.4141   -3.7599 C   0  0  1  0  0  0  0  0  0  0  0  0
    4.3224   -3.5470   -3.1994 C   0  0  1  0  0  0  0  0  0  0  0  0
    5.4144   -3.3214   -2.1888 C   0  0  0  0  0  0  0  0  0  0  0  0
    4.8101   -2.7149   -0.9977 N   0  0  0  0  0  0  0  0  0  0  0  0
    5.5182   -2.0382   -0.0704 C   0  0  0  0  0  0  0  0  0  0  0  0
    6.7257   -1.8413   -0.2101 O   0  0  0  0  0  0  0  0  0  0  0  0
    4.7650   -1.5371    1.1271 C   0  0  0  0  0  0  0  0  0  0  0  0
    4.9280   -0.0749    1.4797 C   0  0  0  0  0  0  0  0  0  0  0  0
    5.5796   -1.1245    2.3420 C   0  0  0  0  0  0  0  0  0  0  0  0
    3.3503   -2.7433   -1.1329 C   0  0  0  0  0  0  0  0  0  0  0  0
    3.0257   -3.1790   -2.5420 C   0  0  1  0  0  0  0  0  0  0  0  0
    2.6093    0.7560   -6.0704 H   0  0  0  0  0  0  0  0  0  0  0  0
    2.3176    0.9468   -4.3345 H   0  0  0  0  0  0  0  0  0  0  0  0
    1.8358   -0.5424   -5.1192 H   0  0  0  0  0  0  0  0  0  0  0  0
    5.0012   -0.9229   -3.3236 H   0  0  0  0  0  0  0  0  0  0  0  0
    3.3769   -0.4547   -2.8555 H   0  0  0  0  0  0  0  0  0  0  0  0
    2.9583   -2.6405   -4.6767 H   0  0  0  0  0  0  0  0  0  0  0  0
    4.3773   -4.4671   -3.7791 H   0  0  0  0  0  0  0  0  0  0  0  0
    5.8504   -4.2670   -1.8969 H   0  0  0  0  0  0  0  0  0  0  0  0
    6.2031   -2.7102   -2.6302 H   0  0  0  0  0  0  0  0  0  0  0  0
    3.7923   -1.9756    1.3253 H   0  0  0  0  0  0  0  0  0  0  0  0
    5.5780    0.5343    0.8579 H   0  0  0  0  0  0  0  0  0  0  0  0
    4.0648    0.4401    1.8915 H   0  0  0  0  0  0  0  0  0  0  0  0
    5.1471   -1.3241    3.3211 H   0  0  0  0  0  0  0  0  0  0  0  0
    6.6627   -1.1898    2.2894 H   0  0  0  0  0  0  0  0  0  0  0  0
    2.9018   -3.4308   -0.4167 H   0  0  0  0  0  0  0  0  0  0  0  0
    2.9291   -1.7528   -0.9650 H   0  0  0  0  0  0  0  0  0  0  0  0
    2.1666   -3.8391   -2.6701 H   0  0  0  0  0  0  0  0  0  0  0  0
  1  2  1  0
  1 15  1  0
  1 16  1  0
  1 17  1  0
  2  3  1  0
  3  4  1  0
  3 18  1  0
  3 19  1  0
  4 14  1  0
  4  5  1  0
  4 20  1  6
  5 14  1  0
  5  6  1  0
  5 21  1  6
  6  7  1  0
  6 22  1  0
  6 23  1  0
  7  8  1  0
  7 13  1  0
  8  9  2  0
  8 10  1  0
 10 12  1  0
 10 11  1  0
 10 24  1  0
 11 12  1  0
 11 25  1  0
 11 26  1  0
 12 27  1  0
 12 28  1  0
 13 14  1  0
 13 29  1  0
 13 30  1  0
 14 31  1  1
M  END
>  <i_m_ct_stereo_status>  (431) 
1

>  <s_m_source_file>  (431) 
/var/tmp/pbs.5076255.sched01/tmpnhftudgm/135squ2m_dv.sdf

>  <i_m_source_file_index>  (431) 
41

>  <i_lp_mmshare_version>  (431) 
48012

>  <i_f3d_flags>  (431) 
0

>  <s_epik_input>  (431) 
W0NIM11PW0NIMl1bQ0BIXTFbQ0BASF0oW0NAQEhdMTIpW0NIMl1OKFtDSDJdMilDKD1PKVtDSF0zW0NIMl1bQ0gyXTM=

>  <s_epik_cmdline>  (431) 
J2VwaWtfcHl0aG9uJywgJy1waHQnLCAnMi4wJywgJy1waCcsICc3LjAnLCAnLXRuJywgJzgnLCAnLW1hJywgJzIwMCcsICctaW1hZScsICc8aW5maWxlLm1hZT4nLCAnLW9tYWUnLCAnPG91dGZpbGUubWFlPic=

>  <r_lp_tautomer_probability>  (431) 
1

>  <r_epik_Ionization_Penalty>  (431) 
3.91252e-07

>  <r_epik_Ionization_Penalty_Charging>  (431) 
0

>  <r_epik_Ionization_Penalty_Neutral>  (431) 
3.91252e-07

>  <r_epik_State_Penalty>  (431) 
-0

>  <r_epik_Charging_Adjusted_Penalty>  (431) 
0

>  <i_epik_Tot_Q>  (431) 
0

>  <i_epik_Tot_abs_Q>  (431) 
0

>  <s_lp_Force_Field>  (431) 
OPLS3e

>  <r_lp_Energy>  (431) 
26.0998

>  <b_lp_Chiralities_Consistent>  (431) 
1

>  <s_lp_Variant>  (431) 
115:0-2

>  <s_i_glide_gridfile>  (431) 
pfpi4k_grid

>  <i_i_glide_lignum>  (431) 
41

>  <i_i_glide_rotatable_bonds>  (431) 
4

>  <r_i_docking_score>  (431) 
-3.46276

>  <r_i_glide_ligand_efficiency>  (431) 
-0.24734

>  <r_i_glide_ligand_efficiency_sa>  (431) 
-0.596124

>  <r_i_glide_ligand_efficiency_ln>  (431) 
-0.951553

>  <r_i_glide_gscore>  (431) 
-3.46276

>  <r_i_glide_lipo>  (431) 
-0.911661

>  <r_i_glide_hbond>  (431) 
-0.0894929

>  <r_i_glide_metal>  (431) 
-0

>  <r_i_glide_rewards>  (431) 
-2.07779

>  <r_i_glide_evdw>  (431) 
-20.7001

>  <r_i_glide_ecoul>  (431) 
-4.09441

>  <r_i_glide_erotb>  (431) 
1.2749

>  <r_i_glide_esite>  (431) 
-0.00955164

>  <r_i_glide_emodel>  (431) 
-29.6125

>  <r_i_glide_energy>  (431) 
-24.7945

>  <r_i_glide_einternal>  (431) 
2.16914

>  <r_i_glide_intrahb_reward>  (431) 
-0

>  <i_i_glide_confnum>  (431) 
5

>  <i_i_glide_posenum>  (431) 
19

>  <r_i_glide_eff_state_penalty>  (431) 
0

>  <ligand_id>  (431) 
115

>  <original_smiles>  (431) 
COCC1C2CN(C(=O)C3CC3)CC12

>  <smiles>  (431) 
[H]C([H])([H])OC([H])([H])C1([H])C2([H])C([H])([H])N(C(=O)C3([H])C([H])([H])C3([H])[H])C([H])([H])C12[H]

$$$$
115:1:2
     RDKit          3D

 31 33  0  0  1  0  0  0  0  0999 V2000
    3.2997    0.9912   -4.8414 C   0  0  0  0  0  0  0  0  0  0  0  0
    3.7922   -0.3232   -4.9817 O   0  0  0  0  0  0  0  0  0  0  0  0
    3.7425   -1.0170   -3.7560 C   0  0  0  0  0  0  0  0  0  0  0  0
    3.6559   -2.5057   -4.0483 C   0  0  1  0  0  0  0  0  0  0  0  0
    4.5022   -3.5185   -3.3059 C   0  0  1  0  0  0  0  0  0  0  0  0
    5.2108   -3.1819   -2.0120 C   0  0  0  0  0  0  0  0  0  0  0  0
    4.1877   -2.7873   -1.0380 N   0  0  0  0  0  0  0  0  0  0  0  0
    4.4571   -2.0516    0.0714 C   0  0  0  0  0  0  0  0  0  0  0  0
    5.6110   -1.7164    0.3497 O   0  0  0  0  0  0  0  0  0  0  0  0
    3.2989   -1.6447    0.9409 C   0  0  0  0  0  0  0  0  0  0  0  0
    3.2603   -0.2117    1.4214 C   0  0  0  0  0  0  0  0  0  0  0  0
    3.5881   -1.3154    2.3927 C   0  0  0  0  0  0  0  0  0  0  0  0
    2.8651   -3.0986   -1.5886 C   0  0  0  0  0  0  0  0  0  0  0  0
    3.0225   -3.4505   -3.0468 C   0  0  1  0  0  0  0  0  0  0  0  0
    3.3882    1.5346   -5.7788 H   0  0  0  0  0  0  0  0  0  0  0  0
    3.8415    1.5411   -4.0709 H   0  0  0  0  0  0  0  0  0  0  0  0
    2.2415    0.9478   -4.5815 H   0  0  0  0  0  0  0  0  0  0  0  0
    4.6312   -0.7424   -3.1851 H   0  0  0  0  0  0  0  0  0  0  0  0
    2.8721   -0.7255   -3.1672 H   0  0  0  0  0  0  0  0  0  0  0  0
    3.3929   -2.7327   -5.0802 H   0  0  0  0  0  0  0  0  0  0  0  0
    4.8885   -4.3707   -3.8653 H   0  0  0  0  0  0  0  0  0  0  0  0
    5.7470   -4.0542   -1.6363 H   0  0  0  0  0  0  0  0  0  0  0  0
    5.9357   -2.3860   -2.1970 H   0  0  0  0  0  0  0  0  0  0  0  0
    2.3364   -2.1129    0.7492 H   0  0  0  0  0  0  0  0  0  0  0  0
    4.0689    0.4534    1.1200 H   0  0  0  0  0  0  0  0  0  0  0  0
    2.2802    0.2560    1.4985 H   0  0  0  0  0  0  0  0  0  0  0  0
    2.8291   -1.5976    3.1205 H   0  0  0  0  0  0  0  0  0  0  0  0
    4.6189   -1.3863    2.7449 H   0  0  0  0  0  0  0  0  0  0  0  0
    2.3895   -3.9151   -1.0415 H   0  0  0  0  0  0  0  0  0  0  0  0
    2.2194   -2.2408   -1.5536 H   0  0  0  0  0  0  0  0  0  0  0  0
    2.3567   -4.2128   -3.4562 H   0  0  0  0  0  0  0  0  0  0  0  0
  1  2  1  0
  1 15  1  0
  1 16  1  0
  1 17  1  0
  2  3  1  0
  3  4  1  0
  3 18  1  0
  3 19  1  0
  4 14  1  0
  4  5  1  0
  4 20  1  6
  5 14  1  0
  5  6  1  0
  5 21  1  6
  6  7  1  0
  6 22  1  0
  6 23  1  0
  7  8  1  0
  7 13  1  0
  8  9  2  0
  8 10  1  0
 10 12  1  0
 10 11  1  0
 10 24  1  0
 11 12  1  0
 11 25  1  0
 11 26  1  0
 12 27  1  0
 12 28  1  0
 13 14  1  0
 13 29  1  0
 13 30  1  0
 14 31  1  6
M  END
>  <i_m_ct_stereo_status>  (432) 
1

>  <s_m_source_file>  (432) 
/var/tmp/pbs.5076255.sched01/tmpnhftudgm/135squ2m_dv.sdf

>  <i_m_source_file_index>  (432) 
41

>  <i_lp_mmshare_version>  (432) 
48012

>  <i_f3d_flags>  (432) 
0

>  <s_epik_input>  (432) 
W0NIM11PW0NIMl1bQ0BIXTFbQ0BASF0oW0NAQEhdMTIpW0NIMl1OKFtDSDJdMilDKD1PKVtDSF0zW0NIMl1bQ0gyXTM=

>  <s_epik_cmdline>  (432) 
J2VwaWtfcHl0aG9uJywgJy1waHQnLCAnMi4wJywgJy1waCcsICc3LjAnLCAnLXRuJywgJzgnLCAnLW1hJywgJzIwMCcsICctaW1hZScsICc8aW5maWxlLm1hZT4nLCAnLW9tYWUnLCAnPG91dGZpbGUubWFlPic=

>  <r_lp_tautomer_probability>  (432) 
1

>  <r_epik_Ionization_Penalty>  (432) 
3.91252e-07

>  <r_epik_Ionization_Penalty_Charging>  (432) 
0

>  <r_epik_Ionization_Penalty_Neutral>  (432) 
3.91252e-07

>  <r_epik_State_Penalty>  (432) 
-0

>  <r_epik_Charging_Adjusted_Penalty>  (432) 
0

>  <i_epik_Tot_Q>  (432) 
0

>  <i_epik_Tot_abs_Q>  (432) 
0

>  <s_lp_Force_Field>  (432) 
OPLS3e

>  <r_lp_Energy>  (432) 
26.0998

>  <b_lp_Chiralities_Consistent>  (432) 
1

>  <s_lp_Variant>  (432) 
115:0-2

>  <s_i_glide_gridfile>  (432) 
pfpi4k_grid

>  <i_i_glide_lignum>  (432) 
41

>  <i_i_glide_rotatable_bonds>  (432) 
4

>  <r_i_docking_score>  (432) 
-2.73137

>  <r_i_glide_ligand_efficiency>  (432) 
-0.195098

>  <r_i_glide_ligand_efficiency_sa>  (432) 
-0.470214

>  <r_i_glide_ligand_efficiency_ln>  (432) 
-0.750571

>  <r_i_glide_gscore>  (432) 
-2.73137

>  <r_i_glide_lipo>  (432) 
-0.513014

>  <r_i_glide_hbond>  (432) 
-0.0159255

>  <r_i_glide_metal>  (432) 
-0

>  <r_i_glide_rewards>  (432) 
-2.07779

>  <r_i_glide_evdw>  (432) 
-19.7033

>  <r_i_glide_ecoul>  (432) 
-2.60551

>  <r_i_glide_erotb>  (432) 
1.2749

>  <r_i_glide_esite>  (432) 
-0.0235542

>  <r_i_glide_emodel>  (432) 
-25.7023

>  <r_i_glide_energy>  (432) 
-22.3088

>  <r_i_glide_einternal>  (432) 
2.16495

>  <r_i_glide_intrahb_reward>  (432) 
-0

>  <i_i_glide_confnum>  (432) 
6

>  <i_i_glide_posenum>  (432) 
36

>  <r_i_glide_eff_state_penalty>  (432) 
0

>  <ligand_id>  (432) 
115

>  <original_smiles>  (432) 
COCC1C2CN(C(=O)C3CC3)CC12

>  <smiles>  (432) 
[H]C([H])([H])OC([H])([H])C1([H])C2([H])C([H])([H])N(C(=O)C3([H])C([H])([H])C3([H])[H])C([H])([H])C12[H]

$$$$
