0:0:0
     RDKit          3D

 28 30  0  0  1  0  0  0  0  0999 V2000
    2.2277   -2.6792   -3.6807 C   0  0  0  0  0  0  0  0  0  0  0  0
    3.2589   -2.0542   -2.7434 C   0  0  2  0  0  0  0  0  0  0  0  0
    4.5130   -1.4507   -3.3933 C   0  0  0  0  0  0  0  0  0  0  0  0
    5.2181   -2.7763   -3.0858 C   0  0  0  0  0  0  0  0  0  0  0  0
    4.2130   -2.9565   -1.9242 C   0  0  1  0  0  0  0  0  0  0  0  0
    4.7022   -2.4976   -0.5587 C   0  0  0  0  0  0  0  0  0  0  0  0
    5.5405   -1.3812   -0.3802 N   0  0  0  0  0  0  0  0  0  0  0  0
    5.7430   -1.2264    0.9378 C   0  0  0  0  0  0  0  0  0  0  0  0
    5.0812   -2.2122    1.6078 N   0  0  0  0  0  0  0  0  0  0  0  0
    5.0811   -2.3523    2.9243 N   0  0  0  0  0  0  0  0  0  0  0  0
    4.3398   -3.4188    3.3097 C   0  0  0  0  0  0  0  0  0  0  0  0
    3.6171   -4.2901    2.5266 N   0  0  0  0  0  0  0  0  0  0  0  0
    3.6299   -4.0985    1.1868 C   0  0  0  0  0  0  0  0  0  0  0  0
    2.8439   -4.9856    0.4330 N   0  0  0  0  0  0  0  0  0  0  0  0
    4.4099   -3.0167    0.6880 C   0  0  0  0  0  0  0  0  0  0  0  0
    2.6895   -3.4070   -4.3424 H   0  0  0  0  0  0  0  0  0  0  0  0
    1.7842   -1.9212   -4.3170 H   0  0  0  0  0  0  0  0  0  0  0  0
    1.4359   -3.1803   -3.1283 H   0  0  0  0  0  0  0  0  0  0  0  0
    2.7929   -1.3214   -2.0842 H   0  0  0  0  0  0  0  0  0  0  0  0
    4.4109   -1.1904   -4.4462 H   0  0  0  0  0  0  0  0  0  0  0  0
    4.9022   -0.6032   -2.8229 H   0  0  0  0  0  0  0  0  0  0  0  0
    5.0925   -3.5054   -3.8884 H   0  0  0  0  0  0  0  0  0  0  0  0
    6.2592   -2.6895   -2.7730 H   0  0  0  0  0  0  0  0  0  0  0  0
    3.8343   -3.9817   -1.9118 H   0  0  0  0  0  0  0  0  0  0  0  0
    6.3390   -0.4379    1.3768 H   0  0  0  0  0  0  0  0  0  0  0  0
    4.3247   -3.5891    4.3782 H   0  0  0  0  0  0  0  0  0  0  0  0
    2.8513   -5.0164   -0.5746 H   0  0  0  0  0  0  0  0  0  0  0  0
    2.4208   -5.7916    0.8773 H   0  0  0  0  0  0  0  0  0  0  0  0
  1  2  1  0
  1 16  1  0
  1 17  1  0
  1 18  1  0
  2  5  1  0
  2  3  1  0
  2 19  1  1
  3  4  1  0
  3 20  1  0
  3 21  1  0
  4  5  1  0
  4 22  1  0
  4 23  1  0
  5  6  1  0
  5 24  1  1
  6 15  2  0
  6  7  1  0
  7  8  2  0
  8  9  1  0
  8 25  1  0
  9 15  1  0
  9 10  1  0
 10 11  2  0
 11 12  1  0
 11 26  1  0
 12 13  2  0
 13 14  1  0
 13 15  1  0
 14 27  1  0
 14 28  1  0
M  END
>  <i_m_ct_stereo_status>  (1) 
1

>  <s_m_source_file>  (1) 
/var/tmp/pbs.5076255.sched01/tmpi0kgw23q/0rwfjwt46.sdf

>  <i_m_source_file_index>  (1) 
1

>  <i_lp_mmshare_version>  (1) 
48012

>  <i_f3d_flags>  (1) 
0

>  <s_epik_input>  (1) 
W0NIM11bQ0BASF0xW0NIMl1bQ0gyXVtDQEhdMWMobltjSF0yKWMobjIzKWMoPU5cW0hdKVxbbkhdW2NIXW4z

>  <s_epik_cmdline>  (1) 
J2VwaWtfcHl0aG9uJywgJy1waHQnLCAnMi4wJywgJy1waCcsICc3LjAnLCAnLXRuJywgJzgnLCAnLW1hJywgJzIwMCcsICctaW1hZScsICc8aW5maWxlLm1hZT4nLCAnLW9tYWUnLCAnPG91dGZpbGUubWFlPic=

>  <r_epik_Ionization_Penalty>  (1) 
0.0095065

>  <r_epik_Ionization_Penalty_Charging>  (1) 
0

>  <r_epik_Ionization_Penalty_Neutral>  (1) 
0.0095065

>  <r_epik_State_Penalty>  (1) 
0.00708881

>  <r_epik_Charging_Adjusted_Penalty>  (1) 
0.00708881

>  <i_epik_Tot_Q>  (1) 
0

>  <i_epik_Tot_abs_Q>  (1) 
0

>  <s_lp_Force_Field>  (1) 
OPLS3e

>  <r_lp_Energy>  (1) 
16.9137

>  <b_lp_Chiralities_Consistent>  (1) 
1

>  <s_lp_Variant>  (1) 
0:0-1

>  <s_i_glide_gridfile>  (1) 
pfpi4k_grid

>  <i_i_glide_lignum>  (1) 
1

>  <i_i_glide_rotatable_bonds>  (1) 
1

>  <r_i_docking_score>  (1) 
-3.83

>  <r_i_glide_ligand_efficiency>  (1) 
-0.255333

>  <r_i_glide_ligand_efficiency_sa>  (1) 
-0.629706

>  <r_i_glide_ligand_efficiency_ln>  (1) 
-1.03289

>  <r_i_glide_gscore>  (1) 
-3.83

>  <r_i_glide_lipo>  (1) 
-0.490481

>  <r_i_glide_hbond>  (1) 
-0.105127

>  <r_i_glide_metal>  (1) 
-0

>  <r_i_glide_rewards>  (1) 
-2.28555

>  <r_i_glide_evdw>  (1) 
-19.3743

>  <r_i_glide_ecoul>  (1) 
-2.301

>  <r_i_glide_erotb>  (1) 
0.397518

>  <r_i_glide_esite>  (1) 
-0.0324902

>  <r_i_glide_emodel>  (1) 
-26.1147

>  <r_i_glide_energy>  (1) 
-21.6753

>  <r_i_glide_einternal>  (1) 
0.278225

>  <r_i_glide_intrahb_reward>  (1) 
-0

>  <i_i_glide_confnum>  (1) 
5

>  <i_i_glide_posenum>  (1) 
6

>  <r_i_glide_eff_state_penalty>  (1) 
0

>  <ligand_id>  (1) 
0

>  <original_smiles>  (1) 
CC1CCC1c1ncn2nc[nH]c(=N)c12

>  <smiles>  (1) 
[H]c1nc(N([H])[H])c2c(C3([H])C([H])([H])C([H])([H])C3([H])C([H])([H])[H])nc([H])n2n1

$$$$
0:0:1
     RDKit          3D

 28 30  0  0  1  0  0  0  0  0999 V2000
   -3.8794    3.2290    9.0206 C   0  0  0  0  0  0  0  0  0  0  0  0
   -2.6354    2.5348    8.4493 C   0  0  2  0  0  0  0  0  0  0  0  0
   -1.2718    2.9559    9.0094 C   0  0  0  0  0  0  0  0  0  0  0  0
   -1.1337    3.8651    7.7851 C   0  0  0  0  0  0  0  0  0  0  0  0
   -2.0880    2.8946    7.0559 C   0  0  1  0  0  0  0  0  0  0  0  0
   -1.5066    1.7521    6.2358 C   0  0  0  0  0  0  0  0  0  0  0  0
   -0.9538    0.5885    6.7894 N   0  0  0  0  0  0  0  0  0  0  0  0
   -0.3782   -0.1145    5.8015 C   0  0  0  0  0  0  0  0  0  0  0  0
   -0.5674    0.5411    4.6235 N   0  0  0  0  0  0  0  0  0  0  0  0
   -0.1220    0.1205    3.4394 N   0  0  0  0  0  0  0  0  0  0  0  0
   -0.4617    0.9722    2.4507 C   0  0  0  0  0  0  0  0  0  0  0  0
   -1.1488    2.1523    2.5458 N   0  0  0  0  0  0  0  0  0  0  0  0
   -1.5458    2.5636    3.7682 C   0  0  0  0  0  0  0  0  0  0  0  0
   -2.1863    3.8143    3.8213 N   0  0  0  0  0  0  0  0  0  0  0  0
   -1.2703    1.7062    4.8793 C   0  0  0  0  0  0  0  0  0  0  0  0
   -3.7894    4.3101    8.9646 H   0  0  0  0  0  0  0  0  0  0  0  0
   -4.0064    2.9705   10.0750 H   0  0  0  0  0  0  0  0  0  0  0  0
   -4.7963    2.9443    8.4997 H   0  0  0  0  0  0  0  0  0  0  0  0
   -2.7231    1.4654    8.5376 H   0  0  0  0  0  0  0  0  0  0  0  0
   -1.3154    3.4423    9.9890 H   0  0  0  0  0  0  0  0  0  0  0  0
   -0.5493    2.1360    9.0201 H   0  0  0  0  0  0  0  0  0  0  0  0
   -1.5712    4.8422    7.9757 H   0  0  0  0  0  0  0  0  0  0  0  0
   -0.1273    3.9325    7.3733 H   0  0  0  0  0  0  0  0  0  0  0  0
   -2.8614    3.4501    6.4969 H   0  0  0  0  0  0  0  0  0  0  0  0
    0.1530   -1.0546    5.9319 H   0  0  0  0  0  0  0  0  0  0  0  0
   -0.1584    0.6780    1.4589 H   0  0  0  0  0  0  0  0  0  0  0  0
   -2.5598    4.2014    4.6634 H   0  0  0  0  0  0  0  0  0  0  0  0
   -2.3588    4.2931    2.9532 H   0  0  0  0  0  0  0  0  0  0  0  0
  1  2  1  0
  1 16  1  0
  1 17  1  0
  1 18  1  0
  2  5  1  0
  2  3  1  0
  2 19  1  6
  3  4  1  0
  3 20  1  0
  3 21  1  0
  4  5  1  0
  4 22  1  0
  4 23  1  0
  5  6  1  0
  5 24  1  6
  6 15  2  0
  6  7  1  0
  7  8  2  0
  8  9  1  0
  8 25  1  0
  9 15  1  0
  9 10  1  0
 10 11  2  0
 11 12  1  0
 11 26  1  0
 12 13  2  0
 13 14  1  0
 13 15  1  0
 14 27  1  0
 14 28  1  0
M  END
>  <i_m_ct_stereo_status>  (2) 
1

>  <s_m_source_file>  (2) 
/var/tmp/pbs.5076255.sched01/tmpi0kgw23q/0rwfjwt46.sdf

>  <i_m_source_file_index>  (2) 
1

>  <i_lp_mmshare_version>  (2) 
48012

>  <i_f3d_flags>  (2) 
0

>  <s_epik_input>  (2) 
W0NIM11bQ0BASF0xW0NIMl1bQ0gyXVtDQEhdMWMobltjSF0yKWMobjIzKWMoPU5cW0hdKVxbbkhdW2NIXW4z

>  <s_epik_cmdline>  (2) 
J2VwaWtfcHl0aG9uJywgJy1waHQnLCAnMi4wJywgJy1waCcsICc3LjAnLCAnLXRuJywgJzgnLCAnLW1hJywgJzIwMCcsICctaW1hZScsICc8aW5maWxlLm1hZT4nLCAnLW9tYWUnLCAnPG91dGZpbGUubWFlPic=

>  <r_epik_Ionization_Penalty>  (2) 
0.0095065

>  <r_epik_Ionization_Penalty_Charging>  (2) 
0

>  <r_epik_Ionization_Penalty_Neutral>  (2) 
0.0095065

>  <r_epik_State_Penalty>  (2) 
0.00708881

>  <r_epik_Charging_Adjusted_Penalty>  (2) 
0.00708881

>  <i_epik_Tot_Q>  (2) 
0

>  <i_epik_Tot_abs_Q>  (2) 
0

>  <s_lp_Force_Field>  (2) 
OPLS3e

>  <r_lp_Energy>  (2) 
16.9137

>  <b_lp_Chiralities_Consistent>  (2) 
1

>  <s_lp_Variant>  (2) 
0:0-1

>  <s_i_glide_gridfile>  (2) 
pfpi4k_grid

>  <i_i_glide_lignum>  (2) 
1

>  <i_i_glide_rotatable_bonds>  (2) 
1

>  <r_i_docking_score>  (2) 
-2.97898

>  <r_i_glide_ligand_efficiency>  (2) 
-0.198599

>  <r_i_glide_ligand_efficiency_sa>  (2) 
-0.489787

>  <r_i_glide_ligand_efficiency_ln>  (2) 
-0.803382

>  <r_i_glide_gscore>  (2) 
-2.97898

>  <r_i_glide_lipo>  (2) 
-0.154385

>  <r_i_glide_hbond>  (2) 
-0.0585305

>  <r_i_glide_metal>  (2) 
-0

>  <r_i_glide_rewards>  (2) 
-2.02334

>  <r_i_glide_evdw>  (2) 
-18.1097

>  <r_i_glide_ecoul>  (2) 
-0.419119

>  <r_i_glide_erotb>  (2) 
0.397518

>  <r_i_glide_esite>  (2) 
-0.171895

>  <r_i_glide_emodel>  (2) 
-21.4574

>  <r_i_glide_energy>  (2) 
-18.5288

>  <r_i_glide_einternal>  (2) 
0.948862

>  <r_i_glide_intrahb_reward>  (2) 
-0

>  <i_i_glide_confnum>  (2) 
6

>  <i_i_glide_posenum>  (2) 
1

>  <r_i_glide_eff_state_penalty>  (2) 
0

>  <ligand_id>  (2) 
0

>  <original_smiles>  (2) 
CC1CCC1c1ncn2nc[nH]c(=N)c12

>  <smiles>  (2) 
[H]c1nc(N([H])[H])c2c(C3([H])C([H])([H])C([H])([H])C3([H])C([H])([H])[H])nc([H])n2n1

$$$$
0:0:2
     RDKit          3D

 28 30  0  0  1  0  0  0  0  0999 V2000
   -2.7460    2.7491    9.8276 C   0  0  0  0  0  0  0  0  0  0  0  0
   -1.7327    2.4275    8.7418 C   0  0  2  0  0  0  0  0  0  0  0  0
   -0.8594    3.5908    8.2727 C   0  0  0  0  0  0  0  0  0  0  0  0
   -1.8530    3.8010    7.1382 C   0  0  0  0  0  0  0  0  0  0  0  0
   -2.2161    2.3049    7.2670 C   0  0  1  0  0  0  0  0  0  0  0  0
   -1.5048    1.3101    6.3779 C   0  0  0  0  0  0  0  0  0  0  0  0
   -0.9732    0.0972    6.8379 N   0  0  0  0  0  0  0  0  0  0  0  0
   -0.3400   -0.4956    5.7992 C   0  0  0  0  0  0  0  0  0  0  0  0
   -0.4700    0.2798    4.6842 N   0  0  0  0  0  0  0  0  0  0  0  0
    0.0460   -0.0094    3.4828 N   0  0  0  0  0  0  0  0  0  0  0  0
   -0.2697    0.9423    2.5680 C   0  0  0  0  0  0  0  0  0  0  0  0
   -1.0101    2.0777    2.7391 N   0  0  0  0  0  0  0  0  0  0  0  0
   -1.5196    2.3200    3.9698 C   0  0  0  0  0  0  0  0  0  0  0  0
   -2.3035    3.4597    4.0941 N   0  0  0  0  0  0  0  0  0  0  0  0
   -1.2290    1.3952    5.0197 C   0  0  0  0  0  0  0  0  0  0  0  0
   -3.3919    3.5908    9.5560 H   0  0  0  0  0  0  0  0  0  0  0  0
   -2.2426    3.0177   10.7539 H   0  0  0  0  0  0  0  0  0  0  0  0
   -3.3824    1.9004   10.0556 H   0  0  0  0  0  0  0  0  0  0  0  0
   -1.1053    1.5724    9.0251 H   0  0  0  0  0  0  0  0  0  0  0  0
   -0.7620    4.4229    8.9745 H   0  0  0  0  0  0  0  0  0  0  0  0
    0.1057    3.2541    7.8931 H   0  0  0  0  0  0  0  0  0  0  0  0
   -2.6962    4.4374    7.4395 H   0  0  0  0  0  0  0  0  0  0  0  0
   -1.3307    4.1508    6.2406 H   0  0  0  0  0  0  0  0  0  0  0  0
   -3.3024    2.1280    7.2283 H   0  0  0  0  0  0  0  0  0  0  0  0
    0.2029   -1.4265    5.8528 H   0  0  0  0  0  0  0  0  0  0  0  0
    0.0836    0.7700    1.5668 H   0  0  0  0  0  0  0  0  0  0  0  0
   -2.6128    3.8105    4.9925 H   0  0  0  0  0  0  0  0  0  0  0  0
   -2.3310    4.1038    3.3076 H   0  0  0  0  0  0  0  0  0  0  0  0
  1  2  1  0
  1 16  1  0
  1 17  1  0
  1 18  1  0
  2  5  1  0
  2  3  1  0
  2 19  1  1
  3  4  1  0
  3 20  1  0
  3 21  1  0
  4  5  1  0
  4 22  1  0
  4 23  1  0
  5  6  1  0
  5 24  1  1
  6 15  2  0
  6  7  1  0
  7  8  2  0
  8  9  1  0
  8 25  1  0
  9 15  1  0
  9 10  1  0
 10 11  2  0
 11 12  1  0
 11 26  1  0
 12 13  2  0
 13 14  1  0
 13 15  1  0
 14 27  1  0
 14 28  1  0
M  END
>  <i_m_ct_stereo_status>  (3) 
1

>  <s_m_source_file>  (3) 
/var/tmp/pbs.5076255.sched01/tmpi0kgw23q/0rwfjwt46.sdf

>  <i_m_source_file_index>  (3) 
1

>  <i_lp_mmshare_version>  (3) 
48012

>  <i_f3d_flags>  (3) 
0

>  <s_epik_input>  (3) 
W0NIM11bQ0BASF0xW0NIMl1bQ0gyXVtDQEhdMWMobltjSF0yKWMobjIzKWMoPU5cW0hdKVxbbkhdW2NIXW4z

>  <s_epik_cmdline>  (3) 
J2VwaWtfcHl0aG9uJywgJy1waHQnLCAnMi4wJywgJy1waCcsICc3LjAnLCAnLXRuJywgJzgnLCAnLW1hJywgJzIwMCcsICctaW1hZScsICc8aW5maWxlLm1hZT4nLCAnLW9tYWUnLCAnPG91dGZpbGUubWFlPic=

>  <r_epik_Ionization_Penalty>  (3) 
0.0095065

>  <r_epik_Ionization_Penalty_Charging>  (3) 
0

>  <r_epik_Ionization_Penalty_Neutral>  (3) 
0.0095065

>  <r_epik_State_Penalty>  (3) 
0.00708881

>  <r_epik_Charging_Adjusted_Penalty>  (3) 
0.00708881

>  <i_epik_Tot_Q>  (3) 
0

>  <i_epik_Tot_abs_Q>  (3) 
0

>  <s_lp_Force_Field>  (3) 
OPLS3e

>  <r_lp_Energy>  (3) 
16.9137

>  <b_lp_Chiralities_Consistent>  (3) 
1

>  <s_lp_Variant>  (3) 
0:0-1

>  <s_i_glide_gridfile>  (3) 
pfpi4k_grid

>  <i_i_glide_lignum>  (3) 
1

>  <i_i_glide_rotatable_bonds>  (3) 
1

>  <r_i_docking_score>  (3) 
-2.93962

>  <r_i_glide_ligand_efficiency>  (3) 
-0.195975

>  <r_i_glide_ligand_efficiency_sa>  (3) 
-0.483315

>  <r_i_glide_ligand_efficiency_ln>  (3) 
-0.792766

>  <r_i_glide_gscore>  (3) 
-2.93962

>  <r_i_glide_lipo>  (3) 
-0.0568155

>  <r_i_glide_hbond>  (3) 
-0.122499

>  <r_i_glide_metal>  (3) 
-0

>  <r_i_glide_rewards>  (3) 
-2.02334

>  <r_i_glide_evdw>  (3) 
-15.7732

>  <r_i_glide_ecoul>  (3) 
-1.31094

>  <r_i_glide_erotb>  (3) 
0.397518

>  <r_i_glide_esite>  (3) 
-0.149184

>  <r_i_glide_emodel>  (3) 
-19.9827

>  <r_i_glide_energy>  (3) 
-17.0841

>  <r_i_glide_einternal>  (3) 
1.37471

>  <r_i_glide_intrahb_reward>  (3) 
-0

>  <i_i_glide_confnum>  (3) 
6

>  <i_i_glide_posenum>  (3) 
10

>  <r_i_glide_eff_state_penalty>  (3) 
0

>  <ligand_id>  (3) 
0

>  <original_smiles>  (3) 
CC1CCC1c1ncn2nc[nH]c(=N)c12

>  <smiles>  (3) 
[H]c1nc(N([H])[H])c2c(C3([H])C([H])([H])C([H])([H])C3([H])C([H])([H])[H])nc([H])n2n1

$$$$
0:1:0
     RDKit          3D

 29 31  0  0  1  0  0  0  0  0999 V2000
   -0.0158    5.9368    4.6087 C   0  0  0  0  0  0  0  0  0  0  0  0
   -0.2750    4.6901    3.7679 C   0  0  2  0  0  0  0  0  0  0  0  0
   -1.6900    4.4209    3.2333 C   0  0  0  0  0  0  0  0  0  0  0  0
   -1.8933    3.5011    4.4350 C   0  0  0  0  0  0  0  0  0  0  0  0
   -0.3697    3.2918    4.4126 C   0  0  1  0  0  0  0  0  0  0  0  0
    0.1979    2.1464    3.6396 C   0  0  0  0  0  0  0  0  0  0  0  0
    0.4056    2.1375    2.2745 N   0  0  0  0  0  0  0  0  0  0  0  0
    0.7976    0.9253    1.8966 C   0  0  0  0  0  0  0  0  0  0  0  0
    0.8339    0.1787    3.0055 N   0  0  0  0  0  0  0  0  0  0  0  0
    1.1713   -1.0977    3.0033 N   0  0  0  0  0  0  0  0  0  0  0  0
    1.1567   -1.7298    4.1976 C   0  0  0  0  0  0  0  0  0  0  0  0
    0.7971   -1.1997    5.3829 N   0  0  0  0  0  0  0  0  0  0  0  0
    0.4475    0.1006    5.3587 C   0  0  0  0  0  0  0  0  0  0  0  0
    0.0354    0.6316    6.5775 N   0  0  0  0  0  0  0  0  0  0  0  0
    0.4617    0.8874    4.1393 C   0  0  0  0  0  0  0  0  0  0  0  0
   -0.7105    5.9948    5.4373 H   0  0  0  0  0  0  0  0  0  0  0  0
   -0.1312    6.8244    3.9892 H   0  0  0  0  0  0  0  0  0  0  0  0
    0.9976    5.9710    5.0135 H   0  0  0  0  0  0  0  0  0  0  0  0
    0.4359    4.6795    2.9541 H   0  0  0  0  0  0  0  0  0  0  0  0
   -2.3087    5.3058    3.1457 H   0  0  0  0  0  0  0  0  0  0  0  0
   -1.7146    3.8751    2.2937 H   0  0  0  0  0  0  0  0  0  0  0  0
   -2.2169    4.0577    5.3110 H   0  0  0  0  0  0  0  0  0  0  0  0
   -2.5062    2.6176    4.2510 H   0  0  0  0  0  0  0  0  0  0  0  0
    0.0851    3.2656    5.3969 H   0  0  0  0  0  0  0  0  0  0  0  0
    1.0234    0.5890    0.9013 H   0  0  0  0  0  0  0  0  0  0  0  0
    1.4578   -2.7627    4.1736 H   0  0  0  0  0  0  0  0  0  0  0  0
   -0.1137    1.6219    6.6674 H   0  0  0  0  0  0  0  0  0  0  0  0
    0.2154    0.1410    7.4440 H   0  0  0  0  0  0  0  0  0  0  0  0
    0.2452    2.9580    1.6639 H   0  0  0  0  0  0  0  0  0  0  0  0
  1  2  1  0
  1 16  1  0
  1 17  1  0
  1 18  1  0
  2  5  1  0
  2  3  1  0
  2 19  1  6
  3  4  1  0
  3 20  1  0
  3 21  1  0
  4  5  1  0
  4 22  1  0
  4 23  1  0
  5  6  1  0
  5 24  1  1
  6 15  2  0
  6  7  1  0
  7  8  2  0
  7 29  1  0
  8  9  1  0
  8 25  1  0
  9 15  1  0
  9 10  1  0
 10 11  2  0
 11 12  1  0
 11 26  1  0
 12 13  2  0
 13 14  1  0
 13 15  1  0
 14 27  1  0
 14 28  1  0
M  CHG  1   7   1
M  END
>  <i_m_ct_stereo_status>  (4) 
1

>  <s_m_source_file>  (4) 
/var/tmp/pbs.5076255.sched01/tmpi0kgw23q/0rwfjwt46.sdf

>  <i_m_source_file_index>  (4) 
2

>  <i_lp_mmshare_version>  (4) 
48012

>  <i_f3d_flags>  (4) 
0

>  <s_epik_input>  (4) 
W0NIM11bQ0BASF0xW0NIMl1bQ0gyXVtDQEhdMWMobltjSF0yKWMobjIzKWMoPU5cW0hdKVxbbkhdW2NIXW4z

>  <s_epik_cmdline>  (4) 
J2VwaWtfcHl0aG9uJywgJy1waHQnLCAnMi4wJywgJy1waCcsICc3LjAnLCAnLXRuJywgJzgnLCAnLW1hJywgJzIwMCcsICctaW1hZScsICc8aW5maWxlLm1hZT4nLCAnLW9tYWUnLCAnPG91dGZpbGUubWFlPic=

>  <r_epik_Ionization_Penalty>  (4) 
2.46345

>  <r_epik_Ionization_Penalty_Charging>  (4) 
2.4634

>  <r_epik_Ionization_Penalty_Neutral>  (4) 
4.43244e-05

>  <r_epik_State_Penalty>  (4) 
2.62577

>  <r_epik_Charging_Adjusted_Penalty>  (4) 
5.08917

>  <i_epik_Tot_Q>  (4) 
1

>  <i_epik_Tot_abs_Q>  (4) 
1

>  <s_lp_Force_Field>  (4) 
OPLS3e

>  <r_lp_Energy>  (4) 
20.2449

>  <b_lp_Chiralities_Consistent>  (4) 
1

>  <s_lp_Variant>  (4) 
0:0-2

>  <s_i_glide_gridfile>  (4) 
pfpi4k_grid

>  <i_i_glide_lignum>  (4) 
2

>  <i_i_glide_rotatable_bonds>  (4) 
1

>  <r_i_docking_score>  (4) 
-3.52777

>  <r_i_glide_ligand_efficiency>  (4) 
-0.235184

>  <r_i_glide_ligand_efficiency_sa>  (4) 
-0.580015

>  <r_i_glide_ligand_efficiency_ln>  (4) 
-0.95138

>  <r_i_glide_gscore>  (4) 
-3.52777

>  <r_i_glide_lipo>  (4) 
0

>  <r_i_glide_hbond>  (4) 
-0.2

>  <r_i_glide_metal>  (4) 
-0

>  <r_i_glide_rewards>  (4) 
-2.01878

>  <r_i_glide_evdw>  (4) 
-11.7685

>  <r_i_glide_ecoul>  (4) 
-6.03223

>  <r_i_glide_erotb>  (4) 
0.394246

>  <r_i_glide_esite>  (4) 
-0.209967

>  <r_i_glide_emodel>  (4) 
-22.5166

>  <r_i_glide_energy>  (4) 
-17.8008

>  <r_i_glide_einternal>  (4) 
0.56612

>  <r_i_glide_intrahb_reward>  (4) 
-0

>  <i_i_glide_confnum>  (4) 
5

>  <i_i_glide_posenum>  (4) 
34

>  <r_i_glide_eff_state_penalty>  (4) 
0

>  <ligand_id>  (4) 
0

>  <original_smiles>  (4) 
CC1CCC1c1ncn2nc[nH]c(=N)c12

>  <smiles>  (4) 
[H]c1nc(N([H])[H])c2c(C3([H])C([H])([H])C([H])([H])C3([H])C([H])([H])[H])[n+]([H])c([H])n2n1

$$$$
0:1:1
     RDKit          3D

 29 31  0  0  1  0  0  0  0  0999 V2000
   -2.1184    4.9211    3.4771 C   0  0  0  0  0  0  0  0  0  0  0  0
   -1.8381    3.5228    3.0655 C   0  0  2  0  0  0  0  0  0  0  0  0
   -2.9778    2.5486    3.1368 C   0  0  0  0  0  0  0  0  0  0  0  0
   -2.3982    2.1042    4.4802 C   0  0  0  0  0  0  0  0  0  0  0  0
   -1.0362    2.5773    3.9576 C   0  0  1  0  0  0  0  0  0  0  0  0
   -0.1120    1.6256    3.2637 C   0  0  0  0  0  0  0  0  0  0  0  0
    0.4297    1.7744    2.0131 N   0  0  0  0  0  0  0  0  0  0  0  0
    1.1348    0.6853    1.7027 C   0  0  0  0  0  0  0  0  0  0  0  0
    1.0424   -0.1199    2.7483 N   0  0  0  0  0  0  0  0  0  0  0  0
    1.6177   -1.3176    2.7990 N   0  0  0  0  0  0  0  0  0  0  0  0
    1.4448   -2.0250    3.9315 C   0  0  0  0  0  0  0  0  0  0  0  0
    0.7348   -1.6473    5.0133 N   0  0  0  0  0  0  0  0  0  0  0  0
    0.1623   -0.4312    4.9350 C   0  0  0  0  0  0  0  0  0  0  0  0
   -0.5731   -0.0460    6.0454 N   0  0  0  0  0  0  0  0  0  0  0  0
    0.2905    0.4039    3.7764 C   0  0  0  0  0  0  0  0  0  0  0  0
   -2.5161    4.9144    4.4855 H   0  0  0  0  0  0  0  0  0  0  0  0
   -2.8732    5.3399    2.8025 H   0  0  0  0  0  0  0  0  0  0  0  0
   -1.2087    5.5312    3.4392 H   0  0  0  0  0  0  0  0  0  0  0  0
   -1.4331    3.5335    2.0708 H   0  0  0  0  0  0  0  0  0  0  0  0
   -3.9795    2.9808    3.1688 H   0  0  0  0  0  0  0  0  0  0  0  0
   -2.8185    1.8742    2.2994 H   0  0  0  0  0  0  0  0  0  0  0  0
   -2.7576    2.7167    5.3123 H   0  0  0  0  0  0  0  0  0  0  0  0
   -2.4940    1.0355    4.6687 H   0  0  0  0  0  0  0  0  0  0  0  0
   -0.4584    3.1381    4.6797 H   0  0  0  0  0  0  0  0  0  0  0  0
    1.6686    0.4934    0.8077 H   0  0  0  0  0  0  0  0  0  0  0  0
    1.9357   -2.9883    3.9722 H   0  0  0  0  0  0  0  0  0  0  0  0
   -0.9750    0.8774    6.0943 H   0  0  0  0  0  0  0  0  0  0  0  0
   -0.5456   -0.5939    6.8943 H   0  0  0  0  0  0  0  0  0  0  0  0
    0.2857    2.5964    1.4132 H   0  0  0  0  0  0  0  0  0  0  0  0
  1  2  1  0
  1 16  1  0
  1 17  1  0
  1 18  1  0
  2  5  1  0
  2  3  1  0
  2 19  1  6
  3  4  1  0
  3 20  1  0
  3 21  1  0
  4  5  1  0
  4 22  1  0
  4 23  1  0
  5  6  1  0
  5 24  1  1
  6 15  2  0
  6  7  1  0
  7  8  2  0
  7 29  1  0
  8  9  1  0
  8 25  1  0
  9 15  1  0
  9 10  1  0
 10 11  2  0
 11 12  1  0
 11 26  1  0
 12 13  2  0
 13 14  1  0
 13 15  1  0
 14 27  1  0
 14 28  1  0
M  CHG  1   7   1
M  END
>  <i_m_ct_stereo_status>  (5) 
1

>  <s_m_source_file>  (5) 
/var/tmp/pbs.5076255.sched01/tmpi0kgw23q/0rwfjwt46.sdf

>  <i_m_source_file_index>  (5) 
2

>  <i_lp_mmshare_version>  (5) 
48012

>  <i_f3d_flags>  (5) 
0

>  <s_epik_input>  (5) 
W0NIM11bQ0BASF0xW0NIMl1bQ0gyXVtDQEhdMWMobltjSF0yKWMobjIzKWMoPU5cW0hdKVxbbkhdW2NIXW4z

>  <s_epik_cmdline>  (5) 
J2VwaWtfcHl0aG9uJywgJy1waHQnLCAnMi4wJywgJy1waCcsICc3LjAnLCAnLXRuJywgJzgnLCAnLW1hJywgJzIwMCcsICctaW1hZScsICc8aW5maWxlLm1hZT4nLCAnLW9tYWUnLCAnPG91dGZpbGUubWFlPic=

>  <r_epik_Ionization_Penalty>  (5) 
2.46345

>  <r_epik_Ionization_Penalty_Charging>  (5) 
2.4634

>  <r_epik_Ionization_Penalty_Neutral>  (5) 
4.43244e-05

>  <r_epik_State_Penalty>  (5) 
2.62577

>  <r_epik_Charging_Adjusted_Penalty>  (5) 
5.08917

>  <i_epik_Tot_Q>  (5) 
1

>  <i_epik_Tot_abs_Q>  (5) 
1

>  <s_lp_Force_Field>  (5) 
OPLS3e

>  <r_lp_Energy>  (5) 
20.2449

>  <b_lp_Chiralities_Consistent>  (5) 
1

>  <s_lp_Variant>  (5) 
0:0-2

>  <s_i_glide_gridfile>  (5) 
pfpi4k_grid

>  <i_i_glide_lignum>  (5) 
2

>  <i_i_glide_rotatable_bonds>  (5) 
1

>  <r_i_docking_score>  (5) 
-2.96713

>  <r_i_glide_ligand_efficiency>  (5) 
-0.197809

>  <r_i_glide_ligand_efficiency_sa>  (5) 
-0.487839

>  <r_i_glide_ligand_efficiency_ln>  (5) 
-0.800187

>  <r_i_glide_gscore>  (5) 
-2.96713

>  <r_i_glide_lipo>  (5) 
0

>  <r_i_glide_hbond>  (5) 
-0.2

>  <r_i_glide_metal>  (5) 
-0

>  <r_i_glide_rewards>  (5) 
-2.03295

>  <r_i_glide_evdw>  (5) 
-7.53813

>  <r_i_glide_ecoul>  (5) 
-3.53904

>  <r_i_glide_erotb>  (5) 
0.394246

>  <r_i_glide_esite>  (5) 
-0.220669

>  <r_i_glide_emodel>  (5) 
-15.3597

>  <r_i_glide_energy>  (5) 
-11.0772

>  <r_i_glide_einternal>  (5) 
0.199002

>  <r_i_glide_intrahb_reward>  (5) 
-0

>  <i_i_glide_confnum>  (5) 
5

>  <i_i_glide_posenum>  (5) 
4

>  <r_i_glide_eff_state_penalty>  (5) 
0

>  <ligand_id>  (5) 
0

>  <original_smiles>  (5) 
CC1CCC1c1ncn2nc[nH]c(=N)c12

>  <smiles>  (5) 
[H]c1nc(N([H])[H])c2c(C3([H])C([H])([H])C([H])([H])C3([H])C([H])([H])[H])[n+]([H])c([H])n2n1

$$$$
1:0:0
     RDKit          3D

 94100  0  0  1  0  0  0  0  0999 V2000
   -1.5419    1.4341    6.5201 C   0  0  0  0  0  0  0  0  0  0  0  0
   -0.8826    0.5917    5.6873 C   0  0  0  0  0  0  0  0  0  0  0  0
   -1.7160   -0.4524    4.9454 C   0  0  0  0  0  0  0  0  0  0  0  0
    0.6520    0.6639    5.4015 C   0  0  1  0  0  0  0  0  0  0  0  0
    0.9149    0.8772    3.8846 C   0  0  0  0  0  0  0  0  0  0  0  0
    0.3017    2.2044    3.3748 C   0  0  0  0  0  0  0  0  0  0  0  0
    0.8465    3.4567    4.1052 C   0  0  0  0  0  0  0  0  0  0  0  0
    2.0496    4.0263    3.3232 C   0  0  0  0  0  0  0  0  0  0  0  0
   -0.2642    4.5286    4.1721 C   0  0  0  0  0  0  0  0  0  0  0  0
    1.3078    3.1367    5.5185 C   0  0  0  0  0  0  0  0  0  0  0  0
    1.1936    1.8998    6.0932 C   0  0  0  0  0  0  0  0  0  0  0  0
    1.9307    1.5420    7.3357 C   0  0  0  0  0  0  0  0  0  0  0  0
    2.5676    0.2778    6.8812 C   0  0  1  0  0  0  0  0  0  0  0  0
    3.8218    0.6177    6.2281 O   0  0  0  0  0  0  0  0  0  0  0  0
    3.8618   -0.4111    7.2460 C   0  0  2  0  0  0  0  0  0  0  0  0
    4.1132   -1.7930    6.7470 C   0  0  0  0  0  0  0  0  0  0  0  0
    3.5630   -2.0787    5.2887 C   0  0  2  0  0  0  0  0  0  0  0  0
    4.4324   -1.2080    4.3084 C   0  0  0  0  0  0  0  0  0  0  0  0
    2.0908   -1.6180    5.1460 C   0  0  0  0  0  0  0  0  0  0  0  0
    1.2556   -2.2969    4.3388 C   0  0  0  0  0  0  0  0  0  0  0  0
    1.5891   -3.5275    3.5047 C   0  0  0  0  0  0  0  0  0  0  0  0
    3.0647   -3.9212    3.5230 C   0  0  2  0  0  0  0  0  0  0  0  0
    3.4116   -5.2509    2.7299 C   0  0  2  0  0  0  0  0  0  0  0  0
    2.9651   -5.0434    1.2551 C   0  0  0  0  0  0  0  0  0  0  0  0
    2.6498   -6.5156    3.2450 C   0  0  0  0  0  0  0  0  0  0  0  0
    2.8859   -7.7467    2.3573 C   0  0  0  0  0  0  0  0  0  0  0  0
    4.3710   -8.1525    2.2491 C   0  0  0  0  0  0  0  0  0  0  0  0
    4.7721   -9.0739    3.4126 C   0  0  0  0  0  0  0  0  0  0  0  0
    4.5143   -8.9718    0.9392 C   0  0  0  0  0  0  0  0  0  0  0  0
    5.2979   -6.9122    2.0873 C   0  0  0  0  0  0  0  0  0  0  0  0
    4.9535   -5.5514    2.7787 C   0  0  1  0  0  0  0  0  0  0  0  0
    5.7771   -4.5074    1.9625 C   0  0  0  0  0  0  0  0  0  0  0  0
    5.4513   -5.4619    4.2514 C   0  0  0  0  0  0  0  0  0  0  0  0
    5.1893   -4.0861    4.8993 C   0  0  0  0  0  0  0  0  0  0  0  0
    3.7086   -3.6432    4.9337 C   0  0  1  0  0  0  0  0  0  0  0  0
    2.9921   -4.4781    6.0418 C   0  0  0  0  0  0  0  0  0  0  0  0
    1.5131   -0.5027    6.0892 C   0  0  2  0  0  0  0  0  0  0  0  0
    0.7132   -1.2753    7.1852 C   0  0  0  0  0  0  0  0  0  0  0  0
   -2.6065    1.3540    6.6571 H   0  0  0  0  0  0  0  0  0  0  0  0
   -1.0555    2.2244    7.0743 H   0  0  0  0  0  0  0  0  0  0  0  0
   -1.5767   -0.3694    3.8692 H   0  0  0  0  0  0  0  0  0  0  0  0
   -2.7761   -0.3038    5.1398 H   0  0  0  0  0  0  0  0  0  0  0  0
   -1.5388   -1.4719    5.2484 H   0  0  0  0  0  0  0  0  0  0  0  0
    1.9904    0.9062    3.6996 H   0  0  0  0  0  0  0  0  0  0  0  0
    0.5370    0.0585    3.2884 H   0  0  0  0  0  0  0  0  0  0  0  0
    0.4768    2.2932    2.3007 H   0  0  0  0  0  0  0  0  0  0  0  0
   -0.7788    2.1480    3.4766 H   0  0  0  0  0  0  0  0  0  0  0  0
    1.7878    4.2988    2.2976 H   0  0  0  0  0  0  0  0  0  0  0  0
    2.8560    3.2895    3.2535 H   0  0  0  0  0  0  0  0  0  0  0  0
    2.4620    4.9187    3.7917 H   0  0  0  0  0  0  0  0  0  0  0  0
   -0.6281    4.7911    3.1718 H   0  0  0  0  0  0  0  0  0  0  0  0
    0.0905    5.4474    4.6498 H   0  0  0  0  0  0  0  0  0  0  0  0
   -1.1116    4.1648    4.7487 H   0  0  0  0  0  0  0  0  0  0  0  0
    1.8210    3.9289    6.0332 H   0  0  0  0  0  0  0  0  0  0  0  0
    2.6739    2.2806    7.6407 H   0  0  0  0  0  0  0  0  0  0  0  0
    1.2373    1.3602    8.1605 H   0  0  0  0  0  0  0  0  0  0  0  0
    4.3170   -0.0992    8.1805 H   0  0  0  0  0  0  0  0  0  0  0  0
    5.1820   -1.9947    6.8215 H   0  0  0  0  0  0  0  0  0  0  0  0
    3.6252   -2.4319    7.4827 H   0  0  0  0  0  0  0  0  0  0  0  0
    5.4105   -0.9757    4.7289 H   0  0  0  0  0  0  0  0  0  0  0  0
    3.9580   -0.2516    4.0796 H   0  0  0  0  0  0  0  0  0  0  0  0
    4.6301   -1.6311    3.3345 H   0  0  0  0  0  0  0  0  0  0  0  0
    0.2272   -2.0340    4.2422 H   0  0  0  0  0  0  0  0  0  0  0  0
    0.9451   -4.3270    3.8630 H   0  0  0  0  0  0  0  0  0  0  0  0
    1.2782   -3.2840    2.4923 H   0  0  0  0  0  0  0  0  0  0  0  0
    3.4754   -3.1733    2.8586 H   0  0  0  0  0  0  0  0  0  0  0  0
    3.3967   -5.7764    0.5698 H   0  0  0  0  0  0  0  0  0  0  0  0
    3.2607   -4.0660    0.8609 H   0  0  0  0  0  0  0  0  0  0  0  0
    1.8845   -5.1187    1.1491 H   0  0  0  0  0  0  0  0  0  0  0  0
    2.9703   -6.8123    4.2328 H   0  0  0  0  0  0  0  0  0  0  0  0
    1.5818   -6.3410    3.3162 H   0  0  0  0  0  0  0  0  0  0  0  0
    2.3314   -8.5800    2.7935 H   0  0  0  0  0  0  0  0  0  0  0  0
    2.4408   -7.6130    1.3723 H   0  0  0  0  0  0  0  0  0  0  0  0
    5.7965   -9.4326    3.3194 H   0  0  0  0  0  0  0  0  0  0  0  0
    4.1474   -9.9693    3.4452 H   0  0  0  0  0  0  0  0  0  0  0  0
    4.6781   -8.5890    4.3787 H   0  0  0  0  0  0  0  0  0  0  0  0
    5.5457   -9.2906    0.7707 H   0  0  0  0  0  0  0  0  0  0  0  0
    4.2236   -8.3678    0.0790 H   0  0  0  0  0  0  0  0  0  0  0  0
    3.8807   -9.8565    0.9343 H   0  0  0  0  0  0  0  0  0  0  0  0
    6.2876   -7.2156    2.4537 H   0  0  0  0  0  0  0  0  0  0  0  0
    5.4825   -6.7509    1.0269 H   0  0  0  0  0  0  0  0  0  0  0  0
    6.8473   -4.6551    2.1008 H   0  0  0  0  0  0  0  0  0  0  0  0
    5.5539   -3.4777    2.2176 H   0  0  0  0  0  0  0  0  0  0  0  0
    5.5954   -4.5929    0.8862 H   0  0  0  0  0  0  0  0  0  0  0  0
    4.9950   -6.2382    4.8691 H   0  0  0  0  0  0  0  0  0  0  0  0
    6.5206   -5.6676    4.2998 H   0  0  0  0  0  0  0  0  0  0  0  0
    5.5942   -4.1028    5.9172 H   0  0  0  0  0  0  0  0  0  0  0  0
    5.7933   -3.3434    4.3900 H   0  0  0  0  0  0  0  0  0  0  0  0
    2.9140   -5.5277    5.8059 H   0  0  0  0  0  0  0  0  0  0  0  0
    1.9839   -4.1306    6.2483 H   0  0  0  0  0  0  0  0  0  0  0  0
    3.5421   -4.4596    6.9806 H   0  0  0  0  0  0  0  0  0  0  0  0
    0.3154   -0.6330    7.9692 H   0  0  0  0  0  0  0  0  0  0  0  0
    1.3518   -2.0148    7.6629 H   0  0  0  0  0  0  0  0  0  0  0  0
   -0.1141   -1.8672    6.8023 H   0  0  0  0  0  0  0  0  0  0  0  0
  1  2  2  0
  1 39  1  0
  1 40  1  0
  2  3  1  0
  4  2  1  6
  3 41  1  0
  3 42  1  0
  3 43  1  0
  4 11  1  0
  4 37  1  0
  4  5  1  0
  5  6  1  0
  5 44  1  0
  5 45  1  0
  6  7  1  0
  6 46  1  0
  6 47  1  0
  7  8  1  0
  7  9  1  0
  7 10  1  0
  8 48  1  0
  8 49  1  0
  8 50  1  0
  9 51  1  0
  9 52  1  0
  9 53  1  0
 10 11  2  0
 10 54  1  0
 11 12  1  0
 12 13  1  0
 12 55  1  0
 12 56  1  0
 13 15  1  0
 13 37  1  0
 13 14  1  6
 14 15  1  0
 15 16  1  0
 15 57  1  1
 16 17  1  0
 16 58  1  0
 16 59  1  0
 17 35  1  0
 17 18  1  6
 17 19  1  0
 18 60  1  0
 18 61  1  0
 18 62  1  0
 19 20  2  0
 19 37  1  0
 20 21  1  0
 20 63  1  0
 21 22  1  0
 21 64  1  0
 21 65  1  0
 22 35  1  0
 22 23  1  0
 22 66  1  6
 23 31  1  0
 23 24  1  6
 23 25  1  0
 24 67  1  0
 24 68  1  0
 24 69  1  0
 25 26  1  0
 25 70  1  0
 25 71  1  0
 26 27  1  0
 26 72  1  0
 26 73  1  0
 27 28  1  0
 27 29  1  0
 27 30  1  0
 28 74  1  0
 28 75  1  0
 28 76  1  0
 29 77  1  0
 29 78  1  0
 29 79  1  0
 30 31  1  0
 30 80  1  0
 30 81  1  0
 31 32  1  6
 31 33  1  0
 32 82  1  0
 32 83  1  0
 32 84  1  0
 33 34  1  0
 33 85  1  0
 33 86  1  0
 34 35  1  0
 34 87  1  0
 34 88  1  0
 35 36  1  1
 36 89  1  0
 36 90  1  0
 36 91  1  0
 37 38  1  1
 38 92  1  0
 38 93  1  0
 38 94  1  0
M  END
>  <i_m_ct_stereo_status>  (6) 
1

>  <s_m_source_file>  (6) 
/var/tmp/pbs.5076255.sched01/tmpi0kgw23q/0rwfjwt46.sdf

>  <i_m_source_file_index>  (6) 
3

>  <i_lp_mmshare_version>  (6) 
48012

>  <i_f3d_flags>  (6) 
0

>  <s_epik_input>  (6) 
W0NIMl0xW0NIMl1DKFtDSDNdKShbQ0gzXSlbQ0hdPUMoW0NIMl0yKVtDQF0xKEMoPVtDSDJdKVtDSDNdKVtDQEBdMyhbQ0gzXSlDKFtDQEBdNChbQ0gzXSlbQ0gyXVtDQEhdKFtDQF0yMzUpTzUpPVtDSF1bQ0gyXVtDQEBIXTZbQ0BAXTcoW0NIM10pW0NAXShbQ0gzXSkoW0NIMl1DKFtDSDNdKShbQ0gzXSlbQ0gyXVtDSDJdNylbQ0gyXVtDSDJdW0NAQF00NltDSDNd

>  <s_epik_cmdline>  (6) 
J2VwaWtfcHl0aG9uJywgJy1waHQnLCAnMi4wJywgJy1waCcsICc3LjAnLCAnLXRuJywgJzgnLCAnLW1hJywgJzIwMCcsICctaW1hZScsICc8aW5maWxlLm1hZT4nLCAnLW9tYWUnLCAnPG91dGZpbGUubWFlPic=

>  <r_lp_tautomer_probability>  (6) 
1

>  <r_epik_Ionization_Penalty>  (6) 
2.82108e-11

>  <r_epik_Ionization_Penalty_Charging>  (6) 
0

>  <r_epik_Ionization_Penalty_Neutral>  (6) 
2.82108e-11

>  <r_epik_State_Penalty>  (6) 
-0

>  <r_epik_Charging_Adjusted_Penalty>  (6) 
0

>  <i_epik_Tot_Q>  (6) 
0

>  <i_epik_Tot_abs_Q>  (6) 
0

>  <s_lp_Force_Field>  (6) 
OPLS3e

>  <r_lp_Energy>  (6) 
116.277

>  <b_lp_Chiralities_Consistent>  (6) 
1

>  <s_lp_Variant>  (6) 
1:0-1

>  <s_i_glide_gridfile>  (6) 
pfpi4k_grid

>  <i_i_glide_lignum>  (6) 
3

>  <i_i_glide_rotatable_bonds>  (6) 
1

>  <r_i_docking_score>  (6) 
-1.45874

>  <r_i_glide_ligand_efficiency>  (6) 
-0.0383878

>  <r_i_glide_ligand_efficiency_sa>  (6) 
-0.129059

>  <r_i_glide_ligand_efficiency_ln>  (6) 
-0.314547

>  <r_i_glide_gscore>  (6) 
-1.45874

>  <r_i_glide_lipo>  (6) 
-0.120729

>  <r_i_glide_hbond>  (6) 
0

>  <r_i_glide_metal>  (6) 
-0

>  <r_i_glide_rewards>  (6) 
0

>  <r_i_glide_evdw>  (6) 
-27.4451

>  <r_i_glide_ecoul>  (6) 
-0.284024

>  <r_i_glide_erotb>  (6) 
0.0768489

>  <r_i_glide_esite>  (6) 
0

>  <r_i_glide_emodel>  (6) 
-29.4877

>  <r_i_glide_energy>  (6) 
-27.7291

>  <r_i_glide_einternal>  (6) 
0.00227788

>  <r_i_glide_intrahb_reward>  (6) 
-0

>  <i_i_glide_confnum>  (6) 
3

>  <i_i_glide_posenum>  (6) 
38

>  <r_i_glide_eff_state_penalty>  (6) 
0

>  <ligand_id>  (6) 
1

>  <original_smiles>  (6) 
C=C(C)C12CCC(C)(C)C=C1CC13OC1CC1(C)C(=CCC4C5(C)CCC(C)(C)CC5(C)CCC41C)C23C

>  <smiles>  (6) 
[H]C([H])=C(C([H])([H])[H])C12C(=C([H])C(C([H])([H])[H])(C([H])([H])[H])C([H])([H])C1([H])[H])C([H])([H])C13OC1([H])C([H])([H])C1(C([H])([H])[H])C(=C([H])C([H])([H])C4([H])C1(C([H])([H])[H])C([H])([H])C([H])([H])C1(C([H])([H])[H])C([H])([H])C(C([H])([H])[H])(C([H])([H])[H])C([H])([H])C([H])([H])C41C([H])([H])[H])C23C([H])([H])[H]

$$$$
1:0:1
     RDKit          3D

 94100  0  0  1  0  0  0  0  0999 V2000
    3.5097   -7.7795    5.0638 C   0  0  0  0  0  0  0  0  0  0  0  0
    3.1212   -6.5440    4.6733 C   0  0  0  0  0  0  0  0  0  0  0  0
    4.0839   -5.7434    3.7851 C   0  0  0  0  0  0  0  0  0  0  0  0
    1.7335   -5.9126    5.0318 C   0  0  1  0  0  0  0  0  0  0  0  0
    0.9513   -5.5768    3.7428 C   0  0  0  0  0  0  0  0  0  0  0  0
    0.6589   -6.8413    2.8903 C   0  0  0  0  0  0  0  0  0  0  0  0
   -0.1588   -7.9247    3.6410 C   0  0  0  0  0  0  0  0  0  0  0  0
   -1.6586   -7.7245    3.3582 C   0  0  0  0  0  0  0  0  0  0  0  0
    0.2699   -9.3215    3.1571 C   0  0  0  0  0  0  0  0  0  0  0  0
    0.0544   -7.8426    5.1455 C   0  0  0  0  0  0  0  0  0  0  0  0
    0.8960   -6.9616    5.7550 C   0  0  0  0  0  0  0  0  0  0  0  0
    0.8670   -6.6954    7.2223 C   0  0  0  0  0  0  0  0  0  0  0  0
    0.7975   -5.1933    7.1813 C   0  0  1  0  0  0  0  0  0  0  0  0
   -0.5958   -4.8287    7.0684 O   0  0  0  0  0  0  0  0  0  0  0  0
    0.1824   -4.2006    8.1061 C   0  0  2  0  0  0  0  0  0  0  0  0
    0.4890   -2.7404    7.8983 C   0  0  0  0  0  0  0  0  0  0  0  0
    0.6111   -2.3095    6.3815 C   0  0  2  0  0  0  0  0  0  0  0  0
   -0.8161   -2.4473    5.7468 C   0  0  0  0  0  0  0  0  0  0  0  0
    1.5669   -3.2604    5.6028 C   0  0  0  0  0  0  0  0  0  0  0  0
    2.3162   -2.7842    4.5926 C   0  0  0  0  0  0  0  0  0  0  0  0
    2.3668   -1.3572    4.0877 C   0  0  0  0  0  0  0  0  0  0  0  0
    1.3447   -0.4171    4.7473 C   0  0  2  0  0  0  0  0  0  0  0  0
    1.4437    1.1010    4.2988 C   0  0  2  0  0  0  0  0  0  0  0  0
    1.2515    1.1447    2.7563 C   0  0  0  0  0  0  0  0  0  0  0  0
    2.8317    1.7589    4.5938 C   0  0  0  0  0  0  0  0  0  0  0  0
    2.9484    3.1765    4.0120 C   0  0  0  0  0  0  0  0  0  0  0  0
    1.8861    4.1573    4.5408 C   0  0  0  0  0  0  0  0  0  0  0  0
    2.3565    4.7968    5.8606 C   0  0  0  0  0  0  0  0  0  0  0  0
    1.7548    5.2986    3.4927 C   0  0  0  0  0  0  0  0  0  0  0  0
    0.4812    3.4886    4.6516 C   0  0  0  0  0  0  0  0  0  0  0  0
    0.3296    1.9653    4.9962 C   0  0  1  0  0  0  0  0  0  0  0  0
   -1.0987    1.6065    4.4882 C   0  0  0  0  0  0  0  0  0  0  0  0
    0.3441    1.6885    6.5296 C   0  0  0  0  0  0  0  0  0  0  0  0
    0.0994    0.2056    6.8791 C   0  0  0  0  0  0  0  0  0  0  0  0
    1.1252   -0.7856    6.2670 C   0  0  1  0  0  0  0  0  0  0  0  0
    2.4576   -0.6495    7.0713 C   0  0  0  0  0  0  0  0  0  0  0  0
    1.8067   -4.7282    6.1099 C   0  0  2  0  0  0  0  0  0  0  0  0
    3.1681   -4.6728    6.8752 C   0  0  0  0  0  0  0  0  0  0  0  0
    4.4713   -8.1679    4.7718 H   0  0  0  0  0  0  0  0  0  0  0  0
    2.9025   -8.4371    5.6696 H   0  0  0  0  0  0  0  0  0  0  0  0
    3.6051   -5.4521    2.8512 H   0  0  0  0  0  0  0  0  0  0  0  0
    4.9460   -6.3631    3.5238 H   0  0  0  0  0  0  0  0  0  0  0  0
    4.5046   -4.8736    4.2606 H   0  0  0  0  0  0  0  0  0  0  0  0
   -0.0023   -5.1160    4.0147 H   0  0  0  0  0  0  0  0  0  0  0  0
    1.4636   -4.8466    3.1255 H   0  0  0  0  0  0  0  0  0  0  0  0
    0.1445   -6.5590    1.9726 H   0  0  0  0  0  0  0  0  0  0  0  0
    1.6067   -7.2560    2.5606 H   0  0  0  0  0  0  0  0  0  0  0  0
   -1.8828   -7.7941    2.2957 H   0  0  0  0  0  0  0  0  0  0  0  0
   -1.9953   -6.7412    3.7067 H   0  0  0  0  0  0  0  0  0  0  0  0
   -2.2653   -8.4729    3.8664 H   0  0  0  0  0  0  0  0  0  0  0  0
    0.1348   -9.4318    2.0791 H   0  0  0  0  0  0  0  0  0  0  0  0
   -0.3089  -10.1132    3.6498 H   0  0  0  0  0  0  0  0  0  0  0  0
    1.3190   -9.5027    3.3812 H   0  0  0  0  0  0  0  0  0  0  0  0
   -0.5725   -8.4818    5.7439 H   0  0  0  0  0  0  0  0  0  0  0  0
    0.0033   -7.1307    7.7244 H   0  0  0  0  0  0  0  0  0  0  0  0
    1.7840   -7.0390    7.7038 H   0  0  0  0  0  0  0  0  0  0  0  0
   -0.0434   -4.5352    9.1193 H   0  0  0  0  0  0  0  0  0  0  0  0
   -0.2539   -2.1535    8.4191 H   0  0  0  0  0  0  0  0  0  0  0  0
    1.4247   -2.5878    8.4283 H   0  0  0  0  0  0  0  0  0  0  0  0
   -1.6087   -2.3796    6.4885 H   0  0  0  0  0  0  0  0  0  0  0  0
   -0.9327   -3.4167    5.2687 H   0  0  0  0  0  0  0  0  0  0  0  0
   -1.0797   -1.7406    4.9738 H   0  0  0  0  0  0  0  0  0  0  0  0
    3.0161   -3.4158    4.0818 H   0  0  0  0  0  0  0  0  0  0  0  0
    3.3854   -1.0075    4.2411 H   0  0  0  0  0  0  0  0  0  0  0  0
    2.2023   -1.3986    3.0090 H   0  0  0  0  0  0  0  0  0  0  0  0
    0.4437   -0.7214    4.2344 H   0  0  0  0  0  0  0  0  0  0  0  0
    1.0328    2.1468    2.3832 H   0  0  0  0  0  0  0  0  0  0  0  0
    0.4215    0.5182    2.4195 H   0  0  0  0  0  0  0  0  0  0  0  0
    2.1434    0.8058    2.2329 H   0  0  0  0  0  0  0  0  0  0  0  0
    3.0221    1.8703    5.6551 H   0  0  0  0  0  0  0  0  0  0  0  0
    3.6483    1.1618    4.2056 H   0  0  0  0  0  0  0  0  0  0  0  0
    3.9388    3.5595    4.2636 H   0  0  0  0  0  0  0  0  0  0  0  0
    2.9398    3.1440    2.9240 H   0  0  0  0  0  0  0  0  0  0  0  0
    1.6572    5.5498    6.2268 H   0  0  0  0  0  0  0  0  0  0  0  0
    3.3084    5.3208    5.7288 H   0  0  0  0  0  0  0  0  0  0  0  0
    2.5064    4.0713    6.6544 H   0  0  0  0  0  0  0  0  0  0  0  0
    1.0001    6.0302    3.7853 H   0  0  0  0  0  0  0  0  0  0  0  0
    1.4266    4.8769    2.5425 H   0  0  0  0  0  0  0  0  0  0  0  0
    2.6936    5.8118    3.3201 H   0  0  0  0  0  0  0  0  0  0  0  0
   -0.0818    4.0526    5.4158 H   0  0  0  0  0  0  0  0  0  0  0  0
   -0.0647    3.7043    3.7509 H   0  0  0  0  0  0  0  0  0  0  0  0
   -1.8624    2.1236    5.0632 H   0  0  0  0  0  0  0  0  0  0  0  0
   -1.3202    0.5447    4.5208 H   0  0  0  0  0  0  0  0  0  0  0  0
   -1.2412    1.9071    3.4420 H   0  0  0  0  0  0  0  0  0  0  0  0
    1.2819    2.0094    6.9886 H   0  0  0  0  0  0  0  0  0  0  0  0
   -0.4193    2.2820    7.0292 H   0  0  0  0  0  0  0  0  0  0  0  0
    0.1019    0.0994    7.9721 H   0  0  0  0  0  0  0  0  0  0  0  0
   -0.9098   -0.0542    6.5896 H   0  0  0  0  0  0  0  0  0  0  0  0
    2.9490    0.3001    6.9293 H   0  0  0  0  0  0  0  0  0  0  0  0
    3.1860   -1.4161    6.8159 H   0  0  0  0  0  0  0  0  0  0  0  0
    2.2913   -0.7042    8.1431 H   0  0  0  0  0  0  0  0  0  0  0  0
    3.4318   -5.6133    7.3623 H   0  0  0  0  0  0  0  0  0  0  0  0
    3.1350   -3.9089    7.6510 H   0  0  0  0  0  0  0  0  0  0  0  0
    4.0064   -4.3873    6.2502 H   0  0  0  0  0  0  0  0  0  0  0  0
  1  2  2  0
  1 39  1  0
  1 40  1  0
  2  3  1  0
  4  2  1  6
  3 41  1  0
  3 42  1  0
  3 43  1  0
  4 11  1  0
  4 37  1  0
  4  5  1  0
  5  6  1  0
  5 44  1  0
  5 45  1  0
  6  7  1  0
  6 46  1  0
  6 47  1  0
  7  8  1  0
  7  9  1  0
  7 10  1  0
  8 48  1  0
  8 49  1  0
  8 50  1  0
  9 51  1  0
  9 52  1  0
  9 53  1  0
 10 11  2  0
 10 54  1  0
 11 12  1  0
 12 13  1  0
 12 55  1  0
 12 56  1  0
 13 15  1  0
 13 37  1  0
 13 14  1  6
 14 15  1  0
 15 16  1  0
 15 57  1  1
 16 17  1  0
 16 58  1  0
 16 59  1  0
 17 35  1  0
 17 18  1  6
 17 19  1  0
 18 60  1  0
 18 61  1  0
 18 62  1  0
 19 20  2  0
 19 37  1  0
 20 21  1  0
 20 63  1  0
 21 22  1  0
 21 64  1  0
 21 65  1  0
 22 35  1  0
 22 23  1  0
 22 66  1  6
 23 31  1  0
 23 24  1  6
 23 25  1  0
 24 67  1  0
 24 68  1  0
 24 69  1  0
 25 26  1  0
 25 70  1  0
 25 71  1  0
 26 27  1  0
 26 72  1  0
 26 73  1  0
 27 28  1  0
 27 29  1  0
 27 30  1  0
 28 74  1  0
 28 75  1  0
 28 76  1  0
 29 77  1  0
 29 78  1  0
 29 79  1  0
 30 31  1  0
 30 80  1  0
 30 81  1  0
 31 32  1  6
 31 33  1  0
 32 82  1  0
 32 83  1  0
 32 84  1  0
 33 34  1  0
 33 85  1  0
 33 86  1  0
 34 35  1  0
 34 87  1  0
 34 88  1  0
 35 36  1  1
 36 89  1  0
 36 90  1  0
 36 91  1  0
 37 38  1  1
 38 92  1  0
 38 93  1  0
 38 94  1  0
M  END
>  <i_m_ct_stereo_status>  (7) 
1

>  <s_m_source_file>  (7) 
/var/tmp/pbs.5076255.sched01/tmpi0kgw23q/0rwfjwt46.sdf

>  <i_m_source_file_index>  (7) 
3

>  <i_lp_mmshare_version>  (7) 
48012

>  <i_f3d_flags>  (7) 
0

>  <s_epik_input>  (7) 
W0NIMl0xW0NIMl1DKFtDSDNdKShbQ0gzXSlbQ0hdPUMoW0NIMl0yKVtDQF0xKEMoPVtDSDJdKVtDSDNdKVtDQEBdMyhbQ0gzXSlDKFtDQEBdNChbQ0gzXSlbQ0gyXVtDQEhdKFtDQF0yMzUpTzUpPVtDSF1bQ0gyXVtDQEBIXTZbQ0BAXTcoW0NIM10pW0NAXShbQ0gzXSkoW0NIMl1DKFtDSDNdKShbQ0gzXSlbQ0gyXVtDSDJdNylbQ0gyXVtDSDJdW0NAQF00NltDSDNd

>  <s_epik_cmdline>  (7) 
J2VwaWtfcHl0aG9uJywgJy1waHQnLCAnMi4wJywgJy1waCcsICc3LjAnLCAnLXRuJywgJzgnLCAnLW1hJywgJzIwMCcsICctaW1hZScsICc8aW5maWxlLm1hZT4nLCAnLW9tYWUnLCAnPG91dGZpbGUubWFlPic=

>  <r_lp_tautomer_probability>  (7) 
1

>  <r_epik_Ionization_Penalty>  (7) 
2.82108e-11

>  <r_epik_Ionization_Penalty_Charging>  (7) 
0

>  <r_epik_Ionization_Penalty_Neutral>  (7) 
2.82108e-11

>  <r_epik_State_Penalty>  (7) 
-0

>  <r_epik_Charging_Adjusted_Penalty>  (7) 
0

>  <i_epik_Tot_Q>  (7) 
0

>  <i_epik_Tot_abs_Q>  (7) 
0

>  <s_lp_Force_Field>  (7) 
OPLS3e

>  <r_lp_Energy>  (7) 
116.277

>  <b_lp_Chiralities_Consistent>  (7) 
1

>  <s_lp_Variant>  (7) 
1:0-1

>  <s_i_glide_gridfile>  (7) 
pfpi4k_grid

>  <i_i_glide_lignum>  (7) 
3

>  <i_i_glide_rotatable_bonds>  (7) 
1

>  <r_i_docking_score>  (7) 
-1.44015

>  <r_i_glide_ligand_efficiency>  (7) 
-0.0378986

>  <r_i_glide_ligand_efficiency_sa>  (7) 
-0.127414

>  <r_i_glide_ligand_efficiency_ln>  (7) 
-0.310538

>  <r_i_glide_gscore>  (7) 
-1.44015

>  <r_i_glide_lipo>  (7) 
0

>  <r_i_glide_hbond>  (7) 
0

>  <r_i_glide_metal>  (7) 
-0

>  <r_i_glide_rewards>  (7) 
0

>  <r_i_glide_evdw>  (7) 
-30.1681

>  <r_i_glide_ecoul>  (7) 
-0.0572842

>  <r_i_glide_erotb>  (7) 
0.0768489

>  <r_i_glide_esite>  (7) 
0

>  <r_i_glide_emodel>  (7) 
-32.0992

>  <r_i_glide_energy>  (7) 
-30.2253

>  <r_i_glide_einternal>  (7) 
0.000765202

>  <r_i_glide_intrahb_reward>  (7) 
-0

>  <i_i_glide_confnum>  (7) 
4

>  <i_i_glide_posenum>  (7) 
32

>  <r_i_glide_eff_state_penalty>  (7) 
0

>  <ligand_id>  (7) 
1

>  <original_smiles>  (7) 
C=C(C)C12CCC(C)(C)C=C1CC13OC1CC1(C)C(=CCC4C5(C)CCC(C)(C)CC5(C)CCC41C)C23C

>  <smiles>  (7) 
[H]C([H])=C(C([H])([H])[H])C12C(=C([H])C(C([H])([H])[H])(C([H])([H])[H])C([H])([H])C1([H])[H])C([H])([H])C13OC1([H])C([H])([H])C1(C([H])([H])[H])C(=C([H])C([H])([H])C4([H])C1(C([H])([H])[H])C([H])([H])C([H])([H])C1(C([H])([H])[H])C([H])([H])C(C([H])([H])[H])(C([H])([H])[H])C([H])([H])C([H])([H])C41C([H])([H])[H])C23C([H])([H])[H]

$$$$
1:0:2
     RDKit          3D

 94100  0  0  1  0  0  0  0  0999 V2000
    3.8525   -6.1165    3.6233 C   0  0  0  0  0  0  0  0  0  0  0  0
    3.1172   -6.5302    4.6782 C   0  0  0  0  0  0  0  0  0  0  0  0
    3.6445   -7.7089    5.5089 C   0  0  0  0  0  0  0  0  0  0  0  0
    1.7230   -5.9274    5.0287 C   0  0  1  0  0  0  0  0  0  0  0  0
    0.9325   -5.5767    3.7442 C   0  0  0  0  0  0  0  0  0  0  0  0
    0.6430   -6.8412    2.8879 C   0  0  0  0  0  0  0  0  0  0  0  0
   -0.1644   -7.9269    3.6421 C   0  0  0  0  0  0  0  0  0  0  0  0
   -1.6646   -7.7239    3.3619 C   0  0  0  0  0  0  0  0  0  0  0  0
    0.2632   -9.3229    3.1561 C   0  0  0  0  0  0  0  0  0  0  0  0
    0.0631   -7.8549    5.1460 C   0  0  0  0  0  0  0  0  0  0  0  0
    0.9130   -6.9815    5.7539 C   0  0  0  0  0  0  0  0  0  0  0  0
    0.8703   -6.7037    7.2225 C   0  0  0  0  0  0  0  0  0  0  0  0
    0.8045   -5.2021    7.1845 C   0  0  1  0  0  0  0  0  0  0  0  0
   -0.5926   -4.8339    7.0662 O   0  0  0  0  0  0  0  0  0  0  0  0
    0.1929   -4.2038    8.1047 C   0  0  2  0  0  0  0  0  0  0  0  0
    0.4965   -2.7464    7.8927 C   0  0  0  0  0  0  0  0  0  0  0  0
    0.6182   -2.3175    6.3736 C   0  0  2  0  0  0  0  0  0  0  0  0
   -0.8118   -2.4493    5.7459 C   0  0  0  0  0  0  0  0  0  0  0  0
    1.5658   -3.2744    5.5930 C   0  0  0  0  0  0  0  0  0  0  0  0
    2.3363   -2.8025    4.5981 C   0  0  0  0  0  0  0  0  0  0  0  0
    2.3791   -1.3749    4.0838 C   0  0  0  0  0  0  0  0  0  0  0  0
    1.3556   -0.4272    4.7446 C   0  0  2  0  0  0  0  0  0  0  0  0
    1.4498    1.0942    4.2990 C   0  0  2  0  0  0  0  0  0  0  0  0
    1.2552    1.1445    2.7578 C   0  0  0  0  0  0  0  0  0  0  0  0
    2.8391    1.7547    4.5937 C   0  0  0  0  0  0  0  0  0  0  0  0
    2.9528    3.1726    4.0095 C   0  0  0  0  0  0  0  0  0  0  0  0
    1.8937    4.1548    4.5436 C   0  0  0  0  0  0  0  0  0  0  0  0
    2.3679    4.7973    5.8564 C   0  0  0  0  0  0  0  0  0  0  0  0
    1.7615    5.2947    3.4861 C   0  0  0  0  0  0  0  0  0  0  0  0
    0.4898    3.4855    4.6525 C   0  0  0  0  0  0  0  0  0  0  0  0
    0.3393    1.9636    5.0000 C   0  0  1  0  0  0  0  0  0  0  0  0
   -1.0926    1.6075    4.4925 C   0  0  0  0  0  0  0  0  0  0  0  0
    0.3516    1.6837    6.5315 C   0  0  0  0  0  0  0  0  0  0  0  0
    0.1081    0.1994    6.8760 C   0  0  0  0  0  0  0  0  0  0  0  0
    1.1321   -0.7946    6.2623 C   0  0  1  0  0  0  0  0  0  0  0  0
    2.4640   -0.6558    7.0676 C   0  0  0  0  0  0  0  0  0  0  0  0
    1.8016   -4.7390    6.1067 C   0  0  2  0  0  0  0  0  0  0  0  0
    3.1787   -4.6629    6.8336 C   0  0  0  0  0  0  0  0  0  0  0  0
    4.7988   -6.5802    3.4003 H   0  0  0  0  0  0  0  0  0  0  0  0
    3.5393   -5.3131    2.9771 H   0  0  0  0  0  0  0  0  0  0  0  0
    3.7312   -7.4759    6.5656 H   0  0  0  0  0  0  0  0  0  0  0  0
    4.6418   -8.0012    5.1719 H   0  0  0  0  0  0  0  0  0  0  0  0
    3.0052   -8.5790    5.4085 H   0  0  0  0  0  0  0  0  0  0  0  0
   -0.0190   -5.1214    4.0241 H   0  0  0  0  0  0  0  0  0  0  0  0
    1.4307   -4.8388    3.1257 H   0  0  0  0  0  0  0  0  0  0  0  0
    0.1283   -6.5574    1.9704 H   0  0  0  0  0  0  0  0  0  0  0  0
    1.5853   -7.2604    2.5511 H   0  0  0  0  0  0  0  0  0  0  0  0
   -1.8940   -7.7897    2.2983 H   0  0  0  0  0  0  0  0  0  0  0  0
   -1.9996   -6.7386    3.7098 H   0  0  0  0  0  0  0  0  0  0  0  0
   -2.2760   -8.4692    3.8694 H   0  0  0  0  0  0  0  0  0  0  0  0
    0.1273   -9.4353    2.0801 H   0  0  0  0  0  0  0  0  0  0  0  0
   -0.3136  -10.1161    3.6499 H   0  0  0  0  0  0  0  0  0  0  0  0
    1.3115   -9.5030    3.3784 H   0  0  0  0  0  0  0  0  0  0  0  0
   -0.5702   -8.4877    5.7424 H   0  0  0  0  0  0  0  0  0  0  0  0
    0.0011   -7.1350    7.7205 H   0  0  0  0  0  0  0  0  0  0  0  0
    1.7797   -7.0437    7.7226 H   0  0  0  0  0  0  0  0  0  0  0  0
   -0.0377   -4.5381    9.1164 H   0  0  0  0  0  0  0  0  0  0  0  0
   -0.2456   -2.1577    8.4142 H   0  0  0  0  0  0  0  0  0  0  0  0
    1.4324   -2.5948    8.4218 H   0  0  0  0  0  0  0  0  0  0  0  0
   -1.6015   -2.3817    6.4907 H   0  0  0  0  0  0  0  0  0  0  0  0
   -0.9348   -3.4197    5.2690 H   0  0  0  0  0  0  0  0  0  0  0  0
   -1.0782   -1.7407    4.9748 H   0  0  0  0  0  0  0  0  0  0  0  0
    3.0601   -3.4558    4.1240 H   0  0  0  0  0  0  0  0  0  0  0  0
    3.3951   -1.0149    4.2281 H   0  0  0  0  0  0  0  0  0  0  0  0
    2.2101   -1.4121    3.0048 H   0  0  0  0  0  0  0  0  0  0  0  0
    0.4517   -0.7256    4.2339 H   0  0  0  0  0  0  0  0  0  0  0  0
    1.0353    2.1467    2.3831 H   0  0  0  0  0  0  0  0  0  0  0  0
    0.4239    0.5188    2.4192 H   0  0  0  0  0  0  0  0  0  0  0  0
    2.1438    0.8054    2.2300 H   0  0  0  0  0  0  0  0  0  0  0  0
    3.0292    1.8672    5.6544 H   0  0  0  0  0  0  0  0  0  0  0  0
    3.6540    1.1588    4.2032 H   0  0  0  0  0  0  0  0  0  0  0  0
    3.9449    3.5566    4.2585 H   0  0  0  0  0  0  0  0  0  0  0  0
    2.9450    3.1392    2.9231 H   0  0  0  0  0  0  0  0  0  0  0  0
    1.6689    5.5497    6.2260 H   0  0  0  0  0  0  0  0  0  0  0  0
    3.3215    5.3198    5.7257 H   0  0  0  0  0  0  0  0  0  0  0  0
    2.5170    4.0694    6.6492 H   0  0  0  0  0  0  0  0  0  0  0  0
    1.0053    6.0265    3.7762 H   0  0  0  0  0  0  0  0  0  0  0  0
    1.4398    4.8773    2.5296 H   0  0  0  0  0  0  0  0  0  0  0  0
    2.6973    5.8109    3.3123 H   0  0  0  0  0  0  0  0  0  0  0  0
   -0.0722    4.0529    5.4190 H   0  0  0  0  0  0  0  0  0  0  0  0
   -0.0570    3.7028    3.7553 H   0  0  0  0  0  0  0  0  0  0  0  0
   -1.8579    2.1240    5.0664 H   0  0  0  0  0  0  0  0  0  0  0  0
   -1.3173    0.5470    4.5220 H   0  0  0  0  0  0  0  0  0  0  0  0
   -1.2374    1.9094    3.4464 H   0  0  0  0  0  0  0  0  0  0  0  0
    1.2913    2.0057    6.9895 H   0  0  0  0  0  0  0  0  0  0  0  0
   -0.4110    2.2798    7.0330 H   0  0  0  0  0  0  0  0  0  0  0  0
    0.1090    0.0948    7.9704 H   0  0  0  0  0  0  0  0  0  0  0  0
   -0.9029   -0.0557    6.5896 H   0  0  0  0  0  0  0  0  0  0  0  0
    2.9560    0.2949    6.9270 H   0  0  0  0  0  0  0  0  0  0  0  0
    3.1937   -1.4214    6.8122 H   0  0  0  0  0  0  0  0  0  0  0  0
    2.2981   -0.7087    8.1408 H   0  0  0  0  0  0  0  0  0  0  0  0
    3.4375   -5.5553    7.3921 H   0  0  0  0  0  0  0  0  0  0  0  0
    3.1855   -3.8596    7.5645 H   0  0  0  0  0  0  0  0  0  0  0  0
    3.9974   -4.4515    6.1394 H   0  0  0  0  0  0  0  0  0  0  0  0
  1  2  2  0
  1 39  1  0
  1 40  1  0
  2  3  1  0
  4  2  1  6
  3 41  1  0
  3 42  1  0
  3 43  1  0
  4 11  1  0
  4 37  1  0
  4  5  1  0
  5  6  1  0
  5 44  1  0
  5 45  1  0
  6  7  1  0
  6 46  1  0
  6 47  1  0
  7  8  1  0
  7  9  1  0
  7 10  1  0
  8 48  1  0
  8 49  1  0
  8 50  1  0
  9 51  1  0
  9 52  1  0
  9 53  1  0
 10 11  2  0
 10 54  1  0
 11 12  1  0
 12 13  1  0
 12 55  1  0
 12 56  1  0
 13 15  1  0
 13 37  1  0
 13 14  1  6
 14 15  1  0
 15 16  1  0
 15 57  1  1
 16 17  1  0
 16 58  1  0
 16 59  1  0
 17 35  1  0
 17 18  1  6
 17 19  1  0
 18 60  1  0
 18 61  1  0
 18 62  1  0
 19 20  2  0
 19 37  1  0
 20 21  1  0
 20 63  1  0
 21 22  1  0
 21 64  1  0
 21 65  1  0
 22 35  1  0
 22 23  1  0
 22 66  1  6
 23 31  1  0
 23 24  1  6
 23 25  1  0
 24 67  1  0
 24 68  1  0
 24 69  1  0
 25 26  1  0
 25 70  1  0
 25 71  1  0
 26 27  1  0
 26 72  1  0
 26 73  1  0
 27 28  1  0
 27 29  1  0
 27 30  1  0
 28 74  1  0
 28 75  1  0
 28 76  1  0
 29 77  1  0
 29 78  1  0
 29 79  1  0
 30 31  1  0
 30 80  1  0
 30 81  1  0
 31 32  1  6
 31 33  1  0
 32 82  1  0
 32 83  1  0
 32 84  1  0
 33 34  1  0
 33 85  1  0
 33 86  1  0
 34 35  1  0
 34 87  1  0
 34 88  1  0
 35 36  1  1
 36 89  1  0
 36 90  1  0
 36 91  1  0
 37 38  1  1
 38 92  1  0
 38 93  1  0
 38 94  1  0
M  END
>  <i_m_ct_stereo_status>  (8) 
1

>  <s_m_source_file>  (8) 
/var/tmp/pbs.5076255.sched01/tmpi0kgw23q/0rwfjwt46.sdf

>  <i_m_source_file_index>  (8) 
3

>  <i_lp_mmshare_version>  (8) 
48012

>  <i_f3d_flags>  (8) 
0

>  <s_epik_input>  (8) 
W0NIMl0xW0NIMl1DKFtDSDNdKShbQ0gzXSlbQ0hdPUMoW0NIMl0yKVtDQF0xKEMoPVtDSDJdKVtDSDNdKVtDQEBdMyhbQ0gzXSlDKFtDQEBdNChbQ0gzXSlbQ0gyXVtDQEhdKFtDQF0yMzUpTzUpPVtDSF1bQ0gyXVtDQEBIXTZbQ0BAXTcoW0NIM10pW0NAXShbQ0gzXSkoW0NIMl1DKFtDSDNdKShbQ0gzXSlbQ0gyXVtDSDJdNylbQ0gyXVtDSDJdW0NAQF00NltDSDNd

>  <s_epik_cmdline>  (8) 
J2VwaWtfcHl0aG9uJywgJy1waHQnLCAnMi4wJywgJy1waCcsICc3LjAnLCAnLXRuJywgJzgnLCAnLW1hJywgJzIwMCcsICctaW1hZScsICc8aW5maWxlLm1hZT4nLCAnLW9tYWUnLCAnPG91dGZpbGUubWFlPic=

>  <r_lp_tautomer_probability>  (8) 
1

>  <r_epik_Ionization_Penalty>  (8) 
2.82108e-11

>  <r_epik_Ionization_Penalty_Charging>  (8) 
0

>  <r_epik_Ionization_Penalty_Neutral>  (8) 
2.82108e-11

>  <r_epik_State_Penalty>  (8) 
-0

>  <r_epik_Charging_Adjusted_Penalty>  (8) 
0

>  <i_epik_Tot_Q>  (8) 
0

>  <i_epik_Tot_abs_Q>  (8) 
0

>  <s_lp_Force_Field>  (8) 
OPLS3e

>  <r_lp_Energy>  (8) 
116.277

>  <b_lp_Chiralities_Consistent>  (8) 
1

>  <s_lp_Variant>  (8) 
1:0-1

>  <s_i_glide_gridfile>  (8) 
pfpi4k_grid

>  <i_i_glide_lignum>  (8) 
3

>  <i_i_glide_rotatable_bonds>  (8) 
1

>  <r_i_docking_score>  (8) 
-1.432

>  <r_i_glide_ligand_efficiency>  (8) 
-0.0376841

>  <r_i_glide_ligand_efficiency_sa>  (8) 
-0.126693

>  <r_i_glide_ligand_efficiency_ln>  (8) 
-0.308781

>  <r_i_glide_gscore>  (8) 
-1.432

>  <r_i_glide_lipo>  (8) 
0

>  <r_i_glide_hbond>  (8) 
0

>  <r_i_glide_metal>  (8) 
-0

>  <r_i_glide_rewards>  (8) 
0

>  <r_i_glide_evdw>  (8) 
-30.0814

>  <r_i_glide_ecoul>  (8) 
-0.031847

>  <r_i_glide_erotb>  (8) 
0.0768489

>  <r_i_glide_esite>  (8) 
0

>  <r_i_glide_emodel>  (8) 
-31.1201

>  <r_i_glide_energy>  (8) 
-30.1132

>  <r_i_glide_einternal>  (8) 
1.69904

>  <r_i_glide_intrahb_reward>  (8) 
-0

>  <i_i_glide_confnum>  (8) 
4

>  <i_i_glide_posenum>  (8) 
1

>  <r_i_glide_eff_state_penalty>  (8) 
0

>  <ligand_id>  (8) 
1

>  <original_smiles>  (8) 
C=C(C)C12CCC(C)(C)C=C1CC13OC1CC1(C)C(=CCC4C5(C)CCC(C)(C)CC5(C)CCC41C)C23C

>  <smiles>  (8) 
[H]C([H])=C(C([H])([H])[H])C12C(=C([H])C(C([H])([H])[H])(C([H])([H])[H])C([H])([H])C1([H])[H])C([H])([H])C13OC1([H])C([H])([H])C1(C([H])([H])[H])C(=C([H])C([H])([H])C4([H])C1(C([H])([H])[H])C([H])([H])C([H])([H])C1(C([H])([H])[H])C([H])([H])C(C([H])([H])[H])(C([H])([H])[H])C([H])([H])C([H])([H])C41C([H])([H])[H])C23C([H])([H])[H]

$$$$
3:0:0
     RDKit          3D

 85 91  0  0  1  0  0  0  0  0999 V2000
    3.9574   -6.3439    3.0439 C   0  0  0  0  0  0  0  0  0  0  0  0
    3.3005   -5.4610    3.8194 C   0  0  0  0  0  0  0  0  0  0  0  0
    3.8155   -4.3999    4.8128 C   0  0  1  0  0  0  0  0  0  0  0  0
    2.5441   -3.7668    5.4376 C   0  0  0  0  0  0  0  0  0  0  0  0
    4.8333   -5.0253    5.8365 C   0  0  0  0  0  0  0  0  0  0  0  0
    4.3149   -5.2261    7.2905 C   0  0  0  0  0  0  0  0  0  0  0  0
    5.5433   -6.3474    5.5140 C   0  0  0  0  0  0  0  0  0  0  0  0
    5.7598   -3.8240    5.5811 C   0  0  2  0  0  0  0  0  0  0  0  0
    6.0685   -2.8295    6.7341 C   0  0  0  0  0  0  0  0  0  0  0  0
    4.9662   -1.7719    7.0151 C   0  0  1  0  0  0  0  0  0  0  0  0
    5.4838   -0.8047    7.9107 O   0  0  0  0  0  0  0  0  0  0  0  0
    4.3833   -1.0821    5.7497 C   0  0  0  0  0  0  0  0  0  0  0  0
    4.7829   -1.7805    4.4379 C   0  0  2  0  0  0  0  0  0  0  0  0
    4.6391   -1.0915    3.0488 C   0  0  2  0  0  0  0  0  0  0  0  0
    5.6872    0.0466    2.8866 C   0  0  0  0  0  0  0  0  0  0  0  0
    3.2586   -0.6211    2.6042 C   0  0  1  0  0  0  0  0  0  0  0  0
    2.9562    0.7489    2.7948 O   0  0  0  0  0  0  0  0  0  0  0  0
    3.1960   -1.0517    1.1257 C   0  0  1  0  0  0  0  0  0  0  0  0
    4.1377   -0.4409    0.2196 O   0  0  0  0  0  0  0  0  0  0  0  0
    4.4005   -1.3002   -0.9038 C   0  0  1  0  0  0  0  0  0  0  0  0
    3.6425   -0.7159   -2.1218 C   0  0  0  0  0  0  0  0  0  0  0  0
    5.8993   -1.2785   -1.2130 C   0  0  0  0  0  0  0  0  0  0  0  0
    6.8296   -2.4447   -0.7583 C   0  0  0  0  0  0  0  0  0  0  0  0
    6.2008   -3.8577   -0.8454 C   0  0  1  0  0  0  0  0  0  0  0  0
    6.8798   -4.9598    0.0381 C   0  0  0  0  0  0  0  0  0  0  0  0
    6.9523   -4.7060    1.5154 C   0  0  0  0  0  0  0  0  0  0  0  0
    8.0527   -4.6575    2.0578 O   0  0  0  0  0  0  0  0  0  0  0  0
    5.7632   -4.4948    2.1010 O   0  0  0  0  0  0  0  0  0  0  0  0
    5.5561   -3.3435    2.9056 C   0  0  1  0  0  0  0  0  0  0  0  0
    4.9316   -2.2427    2.0633 C   0  0  1  0  0  0  0  0  0  0  0  0
    3.7108   -2.4781    1.1219 C   0  0  1  0  0  0  0  0  0  0  0  0
    2.6100   -3.4069    1.6283 C   0  0  0  0  0  0  0  0  0  0  0  0
    3.9202   -2.6678   -0.4171 C   0  0  2  0  0  0  0  0  0  0  0  0
    4.6545   -3.9004   -1.0476 C   0  0  0  0  0  0  0  0  0  0  0  0
    4.4099   -3.8572   -2.5938 C   0  0  0  0  0  0  0  0  0  0  0  0
    4.0836   -5.2458   -0.5547 C   0  0  0  0  0  0  0  0  0  0  0  0
    4.9333   -3.3453    4.3473 C   0  0  2  0  0  0  0  0  0  0  0  0
    5.0261   -6.4441    3.0412 H   0  0  0  0  0  0  0  0  0  0  0  0
    3.3850   -6.9770    2.3764 H   0  0  0  0  0  0  0  0  0  0  0  0
    2.2334   -5.4649    3.7213 H   0  0  0  0  0  0  0  0  0  0  0  0
    2.7456   -3.0659    6.2421 H   0  0  0  0  0  0  0  0  0  0  0  0
    1.8945   -4.5225    5.8831 H   0  0  0  0  0  0  0  0  0  0  0  0
    1.9454   -3.2080    4.7237 H   0  0  0  0  0  0  0  0  0  0  0  0
    5.1180   -5.5188    7.9682 H   0  0  0  0  0  0  0  0  0  0  0  0
    3.5545   -6.0161    7.3183 H   0  0  0  0  0  0  0  0  0  0  0  0
    3.8588   -4.3423    7.7125 H   0  0  0  0  0  0  0  0  0  0  0  0
    6.2677   -6.6177    6.2877 H   0  0  0  0  0  0  0  0  0  0  0  0
    6.0406   -6.3048    4.5513 H   0  0  0  0  0  0  0  0  0  0  0  0
    4.8354   -7.1717    5.4857 H   0  0  0  0  0  0  0  0  0  0  0  0
    6.7131   -4.2262    5.2526 H   0  0  0  0  0  0  0  0  0  0  0  0
    6.3016   -3.3632    7.6593 H   0  0  0  0  0  0  0  0  0  0  0  0
    6.9937   -2.2956    6.4960 H   0  0  0  0  0  0  0  0  0  0  0  0
    4.1536   -2.2321    7.5633 H   0  0  0  0  0  0  0  0  0  0  0  0
    5.6866   -1.2358    8.7253 H   0  0  0  0  0  0  0  0  0  0  0  0
    3.3072   -0.9593    5.8202 H   0  0  0  0  0  0  0  0  0  0  0  0
    4.7776   -0.0597    5.7010 H   0  0  0  0  0  0  0  0  0  0  0  0
    5.8322   -1.5321    4.5819 H   0  0  0  0  0  0  0  0  0  0  0  0
    5.6114    0.4954    1.9001 H   0  0  0  0  0  0  0  0  0  0  0  0
    6.7095   -0.3129    2.9827 H   0  0  0  0  0  0  0  0  0  0  0  0
    5.5352    0.8240    3.6332 H   0  0  0  0  0  0  0  0  0  0  0  0
    2.5003   -1.1652    3.1740 H   0  0  0  0  0  0  0  0  0  0  0  0
    2.1227    0.9145    2.3851 H   0  0  0  0  0  0  0  0  0  0  0  0
    2.2032   -0.9474    0.7341 H   0  0  0  0  0  0  0  0  0  0  0  0
    3.7160   -1.3335   -3.0141 H   0  0  0  0  0  0  0  0  0  0  0  0
    3.9869    0.2961   -2.3842 H   0  0  0  0  0  0  0  0  0  0  0  0
    2.5927   -0.6487   -1.8792 H   0  0  0  0  0  0  0  0  0  0  0  0
    6.0053   -1.2066   -2.3092 H   0  0  0  0  0  0  0  0  0  0  0  0
    6.2183   -0.3283   -0.7932 H   0  0  0  0  0  0  0  0  0  0  0  0
    7.7071   -2.4422   -1.3999 H   0  0  0  0  0  0  0  0  0  0  0  0
    7.2634   -2.2558    0.2141 H   0  0  0  0  0  0  0  0  0  0  0  0
    6.5659   -4.1583   -1.8352 H   0  0  0  0  0  0  0  0  0  0  0  0
    6.4125   -5.9340   -0.0778 H   0  0  0  0  0  0  0  0  0  0  0  0
    7.9049   -5.0842   -0.3208 H   0  0  0  0  0  0  0  0  0  0  0  0
    6.5300   -2.8559    2.9439 H   0  0  0  0  0  0  0  0  0  0  0  0
    5.7249   -1.8747    1.4331 H   0  0  0  0  0  0  0  0  0  0  0  0
    2.8207   -4.4558    1.5198 H   0  0  0  0  0  0  0  0  0  0  0  0
    1.7485   -3.2207    1.0089 H   0  0  0  0  0  0  0  0  0  0  0  0
    2.3203   -3.2252    2.6532 H   0  0  0  0  0  0  0  0  0  0  0  0
    2.9027   -2.7580   -0.8164 H   0  0  0  0  0  0  0  0  0  0  0  0
    3.3525   -3.7587   -2.8404 H   0  0  0  0  0  0  0  0  0  0  0  0
    4.7644   -4.7592   -3.0761 H   0  0  0  0  0  0  0  0  0  0  0  0
    4.9510   -3.0495   -3.0991 H   0  0  0  0  0  0  0  0  0  0  0  0
    3.0061   -5.2484   -0.7054 H   0  0  0  0  0  0  0  0  0  0  0  0
    4.2694   -5.4523    0.4959 H   0  0  0  0  0  0  0  0  0  0  0  0
    4.5108   -6.0854   -1.1137 H   0  0  0  0  0  0  0  0  0  0  0  0
  1  2  2  0
  1 38  1  0
  1 39  1  0
  2  3  1  0
  2 40  1  0
 37  3  1  6
  3  4  1  1
  3  5  1  0
  4 41  1  0
  4 42  1  0
  4 43  1  0
  5  6  1  0
  5  7  1  0
  5  8  1  0
  6 44  1  0
  6 45  1  0
  6 46  1  0
  7 47  1  0
  7 48  1  0
  7 49  1  0
  8 37  1  0
  8  9  1  0
  8 50  1  6
  9 10  1  0
  9 51  1  0
  9 52  1  0
 10 11  1  0
 10 12  1  0
 10 53  1  1
 11 54  1  0
 12 13  1  0
 12 55  1  0
 12 56  1  0
 13 37  1  0
 13 14  1  0
 13 57  1  1
 14 30  1  0
 14 15  1  1
 14 16  1  0
 15 58  1  0
 15 59  1  0
 15 60  1  0
 16 17  1  0
 16 18  1  0
 16 61  1  1
 17 62  1  0
 18 31  1  0
 18 19  1  0
 18 63  1  6
 19 20  1  0
 20 33  1  0
 20 21  1  6
 20 22  1  0
 21 64  1  0
 21 65  1  0
 21 66  1  0
 22 23  1  0
 22 67  1  0
 22 68  1  0
 23 24  1  0
 23 69  1  0
 23 70  1  0
 24 34  1  0
 24 25  1  0
 24 71  1  6
 25 26  1  0
 25 72  1  0
 25 73  1  0
 26 27  2  0
 26 28  1  0
 28 29  1  0
 29 30  1  0
 29 37  1  0
 29 74  1  1
 30 31  1  0
 30 75  1  6
 31 32  1  1
 31 33  1  0
 32 76  1  0
 32 77  1  0
 32 78  1  0
 33 34  1  0
 33 79  1  6
 34 35  1  0
 34 36  1  0
 35 80  1  0
 35 81  1  0
 35 82  1  0
 36 83  1  0
 36 84  1  0
 36 85  1  0
M  END
>  <i_m_ct_stereo_status>  (9) 
1

>  <s_m_source_file>  (9) 
/var/tmp/pbs.5076255.sched01/tmpi0kgw23q/0rwfjwt46.sdf

>  <i_m_source_file_index>  (9) 
5

>  <i_lp_mmshare_version>  (9) 
48012

>  <i_f3d_flags>  (9) 
0

>  <s_epik_input>  (9) 
W0NIMl09W0NIXVtDQEBdMShbQ0gzXSlDKFtDSDNdKShbQ0gzXSlbQ0BASF0oW0NAQF0xMjMpW0NIMl1bQ0BASF0oW09IXSlbQ0gyXVtDQEBIXTJbQ0BAXTQoW0NIM10pW0NASF01W0NAQEhdM09DKD1PKVtDSDJdW0NAQEhdNltDSDJdW0NIMl1bQ0BAXTcoW0NIM10pW0NAQEhdKEM2KFtDSDNdKVtDSDNdKVtDQF01KFtDSDNdKVtDQEhdKE83KVtDQEBIXTRbT0hd

>  <s_epik_cmdline>  (9) 
J2VwaWtfcHl0aG9uJywgJy1waHQnLCAnMi4wJywgJy1waCcsICc3LjAnLCAnLXRuJywgJzgnLCAnLW1hJywgJzIwMCcsICctaW1hZScsICc8aW5maWxlLm1hZT4nLCAnLW9tYWUnLCAnPG91dGZpbGUubWFlPic=

>  <r_lp_tautomer_probability>  (9) 
1

>  <r_epik_Ionization_Penalty>  (9) 
1.52364e-06

>  <r_epik_Ionization_Penalty_Charging>  (9) 
0

>  <r_epik_Ionization_Penalty_Neutral>  (9) 
1.52364e-06

>  <r_epik_State_Penalty>  (9) 
-0

>  <r_epik_Charging_Adjusted_Penalty>  (9) 
0

>  <i_epik_Tot_Q>  (9) 
0

>  <i_epik_Tot_abs_Q>  (9) 
0

>  <s_epik_Chemistry_Notes>  (9) 
This compound has an ester and may undergo hydrolysis at high or low pH.

>  <s_lp_Force_Field>  (9) 
OPLS3e

>  <r_lp_Energy>  (9) 
133.882

>  <b_lp_Chiralities_Consistent>  (9) 
1

>  <s_lp_Variant>  (9) 
3:0-1

>  <s_i_glide_gridfile>  (9) 
pfpi4k_grid

>  <i_i_glide_lignum>  (9) 
5

>  <i_i_glide_rotatable_bonds>  (9) 
3

>  <r_i_docking_score>  (9) 
-0.562049

>  <r_i_glide_ligand_efficiency>  (9) 
-0.0151905

>  <r_i_glide_ligand_efficiency_sa>  (9) 
-0.0506182

>  <r_i_glide_ligand_efficiency_ln>  (9) 
-0.121895

>  <r_i_glide_gscore>  (9) 
-0.562049

>  <r_i_glide_lipo>  (9) 
-0.437297

>  <r_i_glide_hbond>  (9) 
0

>  <r_i_glide_metal>  (9) 
-0

>  <r_i_glide_rewards>  (9) 
-0.129115

>  <r_i_glide_evdw>  (9) 
-2.61316

>  <r_i_glide_ecoul>  (9) 
0.380224

>  <r_i_glide_erotb>  (9) 
0.0779871

>  <r_i_glide_esite>  (9) 
0

>  <r_i_glide_emodel>  (9) 
2.49371

>  <r_i_glide_energy>  (9) 
-2.23294

>  <r_i_glide_einternal>  (9) 
7.71913

>  <r_i_glide_intrahb_reward>  (9) 
-0

>  <i_i_glide_confnum>  (9) 
6

>  <i_i_glide_posenum>  (9) 
38

>  <r_i_glide_eff_state_penalty>  (9) 
0

>  <ligand_id>  (9) 
3

>  <original_smiles>  (9) 
C=CC1(C)C(C)(C)C2CC(O)CC3C4(C)C(O)C5OC6(C)CCC7CC(=O)OC(C4C5(C)C6C7(C)C)C321

>  <smiles>  (9) 
[H]OC1([H])C([H])([H])C2([H])C3(C([H])([H])[H])C([H])(O[H])C4([H])OC5(C([H])([H])[H])C([H])([H])C([H])([H])C6([H])C([H])([H])C(=O)OC([H])(C3([H])C4(C([H])([H])[H])C5([H])C6(C([H])([H])[H])C([H])([H])[H])C23C([H])(C1([H])[H])C(C([H])([H])[H])(C([H])([H])[H])C3(C([H])=C([H])[H])C([H])([H])[H]

$$$$
4:3:0
     RDKit          3D

 51 55  0  0  1  0  0  0  0  0999 V2000
    4.7124   -3.9361   -3.9503 C   0  0  0  0  0  0  0  0  0  0  0  0
    4.6250   -2.7767   -3.0850 N   0  0  0  0  0  0  0  0  0  0  0  0
    3.2228   -2.4021   -2.9115 C   0  0  1  0  0  0  0  0  0  0  0  0
    2.6689   -3.4430   -1.9108 C   0  0  0  0  0  0  0  0  0  0  0  0
    3.9083   -3.9252   -1.1021 C   0  0  0  0  0  0  0  0  0  0  0  0
    5.0682   -3.0968   -1.7135 C   0  0  2  0  0  0  0  0  0  0  0  0
    5.3542   -1.7209   -1.0860 C   0  0  0  0  0  0  0  0  0  0  0  0
    4.0435   -0.8964   -0.9879 C   0  0  2  0  0  0  0  0  0  0  0  0
    3.1755   -1.2896    0.1423 N   0  0  0  0  0  0  0  0  0  0  0  0
    3.8310   -1.8773    1.3402 C   0  0  2  0  0  0  0  0  0  0  0  0
    2.7620   -2.5371    2.2444 C   0  0  1  0  0  0  0  0  0  0  0  0
    3.4547   -3.2296    3.4354 C   0  0  0  0  0  0  0  0  0  0  0  0
    4.2246   -2.1613    4.2288 C   0  0  2  0  0  0  0  0  0  0  0  0
    3.2488   -1.0707    4.7162 C   0  0  0  0  0  0  0  0  0  0  0  0
    2.5374   -0.3928    3.5229 C   0  0  2  0  0  0  0  0  0  0  0  0
    1.7453   -1.4748    2.7452 C   0  0  0  0  0  0  0  0  0  0  0  0
    3.6199    0.2744    2.6326 C   0  0  0  0  0  0  0  0  0  0  0  0
    4.5985   -0.8157    2.1387 C   0  0  1  0  0  0  0  0  0  0  0  0
    5.2902   -1.5062    3.3274 C   0  0  0  0  0  0  0  0  0  0  0  0
    3.2549   -0.9736   -2.3434 C   0  0  0  0  0  0  0  0  0  0  0  0
    4.3678   -3.7441   -4.9716 H   0  0  0  0  0  0  0  0  0  0  0  0
    4.1988   -4.8021   -3.5574 H   0  0  0  0  0  0  0  0  0  0  0  0
    5.7446   -4.2389   -4.0074 H   0  0  0  0  0  0  0  0  0  0  0  0
    2.6833   -2.4075   -3.8726 H   0  0  0  0  0  0  0  0  0  0  0  0
    1.8743   -3.0392   -1.2968 H   0  0  0  0  0  0  0  0  0  0  0  0
    2.1396   -4.2189   -2.4927 H   0  0  0  0  0  0  0  0  0  0  0  0
    3.7473   -3.8720   -0.0491 H   0  0  0  0  0  0  0  0  0  0  0  0
    4.1280   -4.9792   -1.3026 H   0  0  0  0  0  0  0  0  0  0  0  0
    6.0045   -3.6536   -1.7181 H   0  0  0  0  0  0  0  0  0  0  0  0
    5.8266   -1.8663   -0.1038 H   0  0  0  0  0  0  0  0  0  0  0  0
    6.0148   -1.1369   -1.7551 H   0  0  0  0  0  0  0  0  0  0  0  0
    4.3103    0.1312   -0.7553 H   0  0  0  0  0  0  0  0  0  0  0  0
    2.5634   -0.5182    0.3902 H   0  0  0  0  0  0  0  0  0  0  0  0
    4.5554   -2.6258    1.0426 H   0  0  0  0  0  0  0  0  0  0  0  0
    2.2278   -3.2864    1.6789 H   0  0  0  0  0  0  0  0  0  0  0  0
    2.7298   -3.7524    4.0637 H   0  0  0  0  0  0  0  0  0  0  0  0
    4.1309   -3.9963    3.0527 H   0  0  0  0  0  0  0  0  0  0  0  0
    4.7137   -2.6429    5.0752 H   0  0  0  0  0  0  0  0  0  0  0  0
    2.5076   -1.5025    5.3847 H   0  0  0  0  0  0  0  0  0  0  0  0
    3.8092   -0.3226    5.2694 H   0  0  0  0  0  0  0  0  0  0  0  0
    1.8422    0.3763    3.8686 H   0  0  0  0  0  0  0  0  0  0  0  0
    1.2097   -1.0278    1.9029 H   0  0  0  0  0  0  0  0  0  0  0  0
    0.9714   -1.9418    3.3719 H   0  0  0  0  0  0  0  0  0  0  0  0
    3.1612    0.7878    1.7795 H   0  0  0  0  0  0  0  0  0  0  0  0
    4.1781    1.0348    3.1892 H   0  0  0  0  0  0  0  0  0  0  0  0
    5.3589   -0.3448    1.5190 H   0  0  0  0  0  0  0  0  0  0  0  0
    5.8710   -0.7784    3.8918 H   0  0  0  0  0  0  0  0  0  0  0  0
    5.9875   -2.2600    2.9552 H   0  0  0  0  0  0  0  0  0  0  0  0
    3.7608   -0.3193   -3.0556 H   0  0  0  0  0  0  0  0  0  0  0  0
    2.2393   -0.5657   -2.3279 H   0  0  0  0  0  0  0  0  0  0  0  0
    2.5336   -1.9669   -0.2272 H   0  0  0  0  0  0  0  0  0  0  0  0
  1  2  1  0
  1 21  1  0
  1 22  1  0
  1 23  1  0
  2  6  1  0
  2  3  1  0
  3 20  1  0
  3  4  1  0
  3 24  1  6
  4  5  1  0
  4 25  1  0
  4 26  1  0
  5  6  1  0
  5 27  1  0
  5 28  1  0
  6  7  1  0
  6 29  1  6
  7  8  1  0
  7 30  1  0
  7 31  1  0
  8  9  1  0
  8 20  1  0
  8 32  1  1
  9 10  1  0
  9 33  1  0
  9 51  1  0
 10 18  1  0
 10 11  1  0
 10 34  1  6
 11 16  1  0
 11 12  1  0
 11 35  1  6
 12 13  1  0
 12 36  1  0
 12 37  1  0
 13 19  1  0
 13 14  1  0
 13 38  1  1
 14 15  1  0
 14 39  1  0
 14 40  1  0
 15 16  1  0
 15 17  1  0
 15 41  1  1
 16 42  1  0
 16 43  1  0
 17 18  1  0
 17 44  1  0
 17 45  1  0
 18 19  1  0
 18 46  1  6
 19 47  1  0
 19 48  1  0
 20 49  1  0
 20 50  1  0
M  CHG  1   9   1
M  END
>  <i_m_ct_stereo_status>  (10) 
1

>  <s_m_source_file>  (10) 
/var/tmp/pbs.5076255.sched01/tmpi0kgw23q/0rwfjwt46.sdf

>  <i_m_source_file_index>  (10) 
9

>  <i_lp_mmshare_version>  (10) 
48012

>  <i_f3d_flags>  (10) 
0

>  <s_epik_input>  (10) 
W0NIM11OKFtDQEBIXTEyKVtDQEhdKFtDSDJdW0NIMl0xKVtDSDJdW0NASF0oW0NIMl0yKVtOSF1bQ0BIXShbQ0BIXTM0KVtDQEBIXTVbQ0gyXVtDQEhdKFtDSDJdNClbQ0gyXVtDQEhdKFtDSDJdMylbQ0gyXTU=

>  <s_epik_cmdline>  (10) 
J2VwaWtfcHl0aG9uJywgJy1waHQnLCAnMi4wJywgJy1waCcsICc3LjAnLCAnLXRuJywgJzgnLCAnLW1hJywgJzIwMCcsICctaW1hZScsICc8aW5maWxlLm1hZT4nLCAnLW9tYWUnLCAnPG91dGZpbGUubWFlPic=

>  <r_epik_Ionization_Penalty>  (10) 
1.7527

>  <r_epik_Ionization_Penalty_Charging>  (10) 
4.95839e-05

>  <r_epik_Ionization_Penalty_Neutral>  (10) 
1.75265

>  <r_epik_State_Penalty>  (10) 
1.86395

>  <r_epik_Charging_Adjusted_Penalty>  (10) 
1.864

>  <i_epik_Tot_Q>  (10) 
1

>  <i_epik_Tot_abs_Q>  (10) 
1

>  <s_lp_Force_Field>  (10) 
OPLS3e

>  <r_lp_Energy>  (10) 
29.3044

>  <b_lp_Chiralities_Consistent>  (10) 
1

>  <s_lp_Variant>  (10) 
4:0-4

>  <s_i_glide_gridfile>  (10) 
pfpi4k_grid

>  <i_i_glide_lignum>  (10) 
9

>  <i_i_glide_rotatable_bonds>  (10) 
2

>  <r_i_docking_score>  (10) 
-2.99308

>  <r_i_glide_ligand_efficiency>  (10) 
-0.149654

>  <r_i_glide_ligand_efficiency_sa>  (10) 
-0.406223

>  <r_i_glide_ligand_efficiency_ln>  (10) 
-0.749068

>  <r_i_glide_gscore>  (10) 
-2.99308

>  <r_i_glide_lipo>  (10) 
-0.341815

>  <r_i_glide_hbond>  (10) 
-0.0348893

>  <r_i_glide_metal>  (10) 
-0

>  <r_i_glide_rewards>  (10) 
-1.53101

>  <r_i_glide_evdw>  (10) 
-12.38

>  <r_i_glide_ecoul>  (10) 
-5.60108

>  <r_i_glide_erotb>  (10) 
0.4738

>  <r_i_glide_esite>  (10) 
-0.1

>  <r_i_glide_emodel>  (10) 
-11.7153

>  <r_i_glide_energy>  (10) 
-17.9811

>  <r_i_glide_einternal>  (10) 
14.3211

>  <r_i_glide_intrahb_reward>  (10) 
-0

>  <i_i_glide_confnum>  (10) 
4

>  <i_i_glide_posenum>  (10) 
23

>  <r_i_glide_eff_state_penalty>  (10) 
0

>  <ligand_id>  (10) 
4

>  <original_smiles>  (10) 
CN1C2CCC1CC(NC1C3CC4CC(C3)CC1C4)C2

>  <smiles>  (10) 
[H]C([H])([H])N1C2([H])C([H])([H])C([H])([H])C1([H])C([H])([H])C([H])([N+]([H])([H])C1([H])C3([H])C([H])([H])C4([H])C([H])([H])C([H])(C3([H])[H])C([H])([H])C1([H])C4([H])[H])C2([H])[H]

$$$$
4:3:1
     RDKit          3D

 51 55  0  0  1  0  0  0  0  0999 V2000
    3.3613   -0.0076   -5.8155 C   0  0  0  0  0  0  0  0  0  0  0  0
    3.5766   -1.1842   -4.9813 N   0  0  0  0  0  0  0  0  0  0  0  0
    4.6393   -1.0563   -4.0294 C   0  0  1  0  0  0  0  0  0  0  0  0
    4.1410   -0.0269   -3.0105 C   0  0  0  0  0  0  0  0  0  0  0  0
    2.6287   -0.3303   -3.0987 C   0  0  0  0  0  0  0  0  0  0  0  0
    2.4182   -1.4147   -4.1517 C   0  0  2  0  0  0  0  0  0  0  0  0
    2.3547   -2.8593   -3.6116 C   0  0  0  0  0  0  0  0  0  0  0  0
    3.5981   -3.1594   -2.7733 C   0  0  2  0  0  0  0  0  0  0  0  0
    3.4150   -2.6534   -1.4056 N   0  0  0  0  0  0  0  0  0  0  0  0
    2.9502   -3.5709   -0.3526 C   0  0  2  0  0  0  0  0  0  0  0  0
    2.8131   -2.7790    0.9742 C   0  0  1  0  0  0  0  0  0  0  0  0
    2.3348   -3.7161    2.0991 C   0  0  0  0  0  0  0  0  0  0  0  0
    3.3221   -4.8563    2.2902 C   0  0  2  0  0  0  0  0  0  0  0  0
    4.6971   -4.2803    2.6839 C   0  0  0  0  0  0  0  0  0  0  0  0
    5.1933   -3.3218    1.5785 C   0  0  2  0  0  0  0  0  0  0  0  0
    4.1798   -2.1680    1.3949 C   0  0  0  0  0  0  0  0  0  0  0  0
    5.3346   -4.1271    0.2699 C   0  0  0  0  0  0  0  0  0  0  0  0
    3.9652   -4.7043   -0.1349 C   0  0  1  0  0  0  0  0  0  0  0  0
    3.4350   -5.6411    0.9655 C   0  0  0  0  0  0  0  0  0  0  0  0
    4.8431   -2.4931   -3.4275 C   0  0  0  0  0  0  0  0  0  0  0  0
    4.1735    0.1918   -6.4795 H   0  0  0  0  0  0  0  0  0  0  0  0
    3.1078    0.9178   -5.3154 H   0  0  0  0  0  0  0  0  0  0  0  0
    2.5481   -0.2491   -6.4653 H   0  0  0  0  0  0  0  0  0  0  0  0
    5.4065   -0.7068   -4.7097 H   0  0  0  0  0  0  0  0  0  0  0  0
    4.4379   -0.2173   -1.9718 H   0  0  0  0  0  0  0  0  0  0  0  0
    4.3304    1.0248   -3.2536 H   0  0  0  0  0  0  0  0  0  0  0  0
    2.2809   -0.6110   -2.1300 H   0  0  0  0  0  0  0  0  0  0  0  0
    2.0753    0.5276   -3.4479 H   0  0  0  0  0  0  0  0  0  0  0  0
    1.5082   -1.2770   -4.7185 H   0  0  0  0  0  0  0  0  0  0  0  0
    1.4284   -3.0449   -3.0491 H   0  0  0  0  0  0  0  0  0  0  0  0
    2.2938   -3.5649   -4.4432 H   0  0  0  0  0  0  0  0  0  0  0  0
    3.8149   -4.2305   -2.8373 H   0  0  0  0  0  0  0  0  0  0  0  0
    4.2951   -2.3016   -1.0791 H   0  0  0  0  0  0  0  0  0  0  0  0
    1.9842   -3.9539   -0.6650 H   0  0  0  0  0  0  0  0  0  0  0  0
    2.0921   -1.9746    0.8848 H   0  0  0  0  0  0  0  0  0  0  0  0
    2.1564   -3.1648    3.0266 H   0  0  0  0  0  0  0  0  0  0  0  0
    1.4021   -4.2319    1.8064 H   0  0  0  0  0  0  0  0  0  0  0  0
    2.9452   -5.5180    3.0698 H   0  0  0  0  0  0  0  0  0  0  0  0
    4.6000   -3.7452    3.6312 H   0  0  0  0  0  0  0  0  0  0  0  0
    5.3951   -5.1112    2.8174 H   0  0  0  0  0  0  0  0  0  0  0  0
    6.1618   -2.9089    1.8704 H   0  0  0  0  0  0  0  0  0  0  0  0
    4.5463   -1.4413    0.6626 H   0  0  0  0  0  0  0  0  0  0  0  0
    4.0588   -1.6080    2.3275 H   0  0  0  0  0  0  0  0  0  0  0  0
    5.7373   -3.4944   -0.5186 H   0  0  0  0  0  0  0  0  0  0  0  0
    6.0390   -4.9478    0.3858 H   0  0  0  0  0  0  0  0  0  0  0  0
    4.1445   -5.3197   -1.0104 H   0  0  0  0  0  0  0  0  0  0  0  0
    4.1136   -6.4823    1.0816 H   0  0  0  0  0  0  0  0  0  0  0  0
    2.4661   -6.0653    0.6739 H   0  0  0  0  0  0  0  0  0  0  0  0
    5.0489   -3.1796   -4.2481 H   0  0  0  0  0  0  0  0  0  0  0  0
    5.6955   -2.5032   -2.7434 H   0  0  0  0  0  0  0  0  0  0  0  0
    2.7522   -1.8965   -1.4399 H   0  0  0  0  0  0  0  0  0  0  0  0
  1  2  1  0
  1 21  1  0
  1 22  1  0
  1 23  1  0
  2  6  1  0
  2  3  1  0
  3 20  1  0
  3  4  1  0
  3 24  1  6
  4  5  1  0
  4 25  1  0
  4 26  1  0
  5  6  1  0
  5 27  1  0
  5 28  1  0
  6  7  1  0
  6 29  1  6
  7  8  1  0
  7 30  1  0
  7 31  1  0
  8  9  1  0
  8 20  1  0
  8 32  1  1
  9 10  1  0
  9 33  1  0
  9 51  1  0
 10 18  1  0
 10 11  1  0
 10 34  1  6
 11 16  1  0
 11 12  1  0
 11 35  1  6
 12 13  1  0
 12 36  1  0
 12 37  1  0
 13 19  1  0
 13 14  1  0
 13 38  1  1
 14 15  1  0
 14 39  1  0
 14 40  1  0
 15 16  1  0
 15 17  1  0
 15 41  1  1
 16 42  1  0
 16 43  1  0
 17 18  1  0
 17 44  1  0
 17 45  1  0
 18 19  1  0
 18 46  1  6
 19 47  1  0
 19 48  1  0
 20 49  1  0
 20 50  1  0
M  CHG  1   9   1
M  END
>  <i_m_ct_stereo_status>  (11) 
1

>  <s_m_source_file>  (11) 
/var/tmp/pbs.5076255.sched01/tmpi0kgw23q/0rwfjwt46.sdf

>  <i_m_source_file_index>  (11) 
9

>  <i_lp_mmshare_version>  (11) 
48012

>  <i_f3d_flags>  (11) 
0

>  <s_epik_input>  (11) 
W0NIM11OKFtDQEBIXTEyKVtDQEhdKFtDSDJdW0NIMl0xKVtDSDJdW0NASF0oW0NIMl0yKVtOSF1bQ0BIXShbQ0BIXTM0KVtDQEBIXTVbQ0gyXVtDQEhdKFtDSDJdNClbQ0gyXVtDQEhdKFtDSDJdMylbQ0gyXTU=

>  <s_epik_cmdline>  (11) 
J2VwaWtfcHl0aG9uJywgJy1waHQnLCAnMi4wJywgJy1waCcsICc3LjAnLCAnLXRuJywgJzgnLCAnLW1hJywgJzIwMCcsICctaW1hZScsICc8aW5maWxlLm1hZT4nLCAnLW9tYWUnLCAnPG91dGZpbGUubWFlPic=

>  <r_epik_Ionization_Penalty>  (11) 
1.7527

>  <r_epik_Ionization_Penalty_Charging>  (11) 
4.95839e-05

>  <r_epik_Ionization_Penalty_Neutral>  (11) 
1.75265

>  <r_epik_State_Penalty>  (11) 
1.86395

>  <r_epik_Charging_Adjusted_Penalty>  (11) 
1.864

>  <i_epik_Tot_Q>  (11) 
1

>  <i_epik_Tot_abs_Q>  (11) 
1

>  <s_lp_Force_Field>  (11) 
OPLS3e

>  <r_lp_Energy>  (11) 
29.3044

>  <b_lp_Chiralities_Consistent>  (11) 
1

>  <s_lp_Variant>  (11) 
4:0-4

>  <s_i_glide_gridfile>  (11) 
pfpi4k_grid

>  <i_i_glide_lignum>  (11) 
9

>  <i_i_glide_rotatable_bonds>  (11) 
2

>  <r_i_docking_score>  (11) 
-2.98144

>  <r_i_glide_ligand_efficiency>  (11) 
-0.149072

>  <r_i_glide_ligand_efficiency_sa>  (11) 
-0.404644

>  <r_i_glide_ligand_efficiency_ln>  (11) 
-0.746157

>  <r_i_glide_gscore>  (11) 
-2.98144

>  <r_i_glide_lipo>  (11) 
-0.639547

>  <r_i_glide_hbond>  (11) 
-0.387713

>  <r_i_glide_metal>  (11) 
-0

>  <r_i_glide_rewards>  (11) 
-1.53101

>  <r_i_glide_evdw>  (11) 
6.65647

>  <r_i_glide_ecoul>  (11) 
-7.9757

>  <r_i_glide_erotb>  (11) 
0.4738

>  <r_i_glide_esite>  (11) 
-0.0334445

>  <r_i_glide_emodel>  (11) 
-1.46005

>  <r_i_glide_energy>  (11) 
-1.31923

>  <r_i_glide_einternal>  (11) 
0.788238

>  <r_i_glide_intrahb_reward>  (11) 
-0

>  <i_i_glide_confnum>  (11) 
4

>  <i_i_glide_posenum>  (11) 
12

>  <r_i_glide_eff_state_penalty>  (11) 
0

>  <ligand_id>  (11) 
4

>  <original_smiles>  (11) 
CN1C2CCC1CC(NC1C3CC4CC(C3)CC1C4)C2

>  <smiles>  (11) 
[H]C([H])([H])N1C2([H])C([H])([H])C([H])([H])C1([H])C([H])([H])C([H])([N+]([H])([H])C1([H])C3([H])C([H])([H])C4([H])C([H])([H])C([H])(C3([H])[H])C([H])([H])C1([H])C4([H])[H])C2([H])[H]

$$$$
5:0:0
     RDKit          3D

 21 21  0  0  1  0  0  0  0  0999 V2000
   -3.2277    3.2737    2.8073 C   0  0  0  0  0  0  0  0  0  0  0  0
   -1.7066    3.4458    3.8188 S   0  0  0  0  0  0  0  0  0  0  0  0
   -1.3866    4.8825    3.8813 O   0  0  0  0  0  0  0  0  0  0  0  0
   -1.8733    2.6557    5.0480 O   0  0  0  0  0  0  0  0  0  0  0  0
   -0.4994    2.6981    2.8804 N   0  0  0  0  0  0  0  0  0  0  0  0
   -0.6545    1.3153    2.4073 C   0  0  0  0  0  0  0  0  0  0  0  0
    0.0497    0.3095    3.2643 C   0  0  0  0  0  0  0  0  0  0  0  0
   -0.6915   -0.2975    4.2053 N   0  0  0  0  0  0  0  0  0  0  0  0
   -0.0880   -1.2367    4.9376 C   0  0  0  0  0  0  0  0  0  0  0  0
    1.2542   -1.5939    4.7268 C   0  0  0  0  0  0  0  0  0  0  0  0
    1.9223   -0.9157    3.6938 C   0  0  0  0  0  0  0  0  0  0  0  0
    1.3161    0.0361    2.9629 N   0  0  0  0  0  0  0  0  0  0  0  0
   -4.0772    3.7460    3.2883 H   0  0  0  0  0  0  0  0  0  0  0  0
   -3.4717    2.2237    2.6708 H   0  0  0  0  0  0  0  0  0  0  0  0
   -3.0602    3.7362    1.8389 H   0  0  0  0  0  0  0  0  0  0  0  0
   -0.1603    3.3424    2.1303 H   0  0  0  0  0  0  0  0  0  0  0  0
   -1.7016    0.9892    2.3760 H   0  0  0  0  0  0  0  0  0  0  0  0
   -0.2997    1.2628    1.3794 H   0  0  0  0  0  0  0  0  0  0  0  0
   -0.6896   -1.7029    5.7135 H   0  0  0  0  0  0  0  0  0  0  0  0
    1.7487   -2.3444    5.3257 H   0  0  0  0  0  0  0  0  0  0  0  0
    2.9554   -1.1145    3.4461 H   0  0  0  0  0  0  0  0  0  0  0  0
  1  2  1  0
  1 13  1  0
  1 14  1  0
  1 15  1  0
  2  3  2  0
  2  4  2  0
  2  5  1  0
  5  6  1  0
  5 16  1  0
  6  7  1  0
  6 17  1  0
  6 18  1  0
  7 12  2  0
  7  8  1  0
  8  9  2  0
  9 10  1  0
  9 19  1  0
 10 11  2  0
 10 20  1  0
 11 12  1  0
 11 21  1  0
M  END
>  <i_m_ct_stereo_status>  (12) 
1

>  <s_m_source_file>  (12) 
/var/tmp/pbs.5076255.sched01/tmpi0kgw23q/0rwfjwt46.sdf

>  <i_m_source_file_index>  (12) 
10

>  <i_lp_mmshare_version>  (12) 
48012

>  <i_f3d_flags>  (12) 
0

>  <s_epik_input>  (12) 
W0NIM11TKD1PKSg9TylbTkhdW0NIMl1jMW5bY0hdW2NIXVtjSF1uMQ==

>  <s_epik_cmdline>  (12) 
J2VwaWtfcHl0aG9uJywgJy1waHQnLCAnMi4wJywgJy1waCcsICc3LjAnLCAnLXRuJywgJzgnLCAnLW1hJywgJzIwMCcsICctaW1hZScsICc8aW5maWxlLm1hZT4nLCAnLW9tYWUnLCAnPG91dGZpbGUubWFlPic=

>  <r_lp_tautomer_probability>  (12) 
1

>  <r_epik_Ionization_Penalty>  (12) 
9.96873e-05

>  <r_epik_Ionization_Penalty_Charging>  (12) 
0

>  <r_epik_Ionization_Penalty_Neutral>  (12) 
9.96873e-05

>  <r_epik_State_Penalty>  (12) 
-0

>  <r_epik_Charging_Adjusted_Penalty>  (12) 
0

>  <i_epik_Tot_Q>  (12) 
0

>  <i_epik_Tot_abs_Q>  (12) 
0

>  <s_epik_Chemistry_Notes>  (12) 
This compound contains an electron-poor aromatic ring that is susceptible to covalent hydrolysis at low pH, typically resulting in measured values for nitrogen ring protonation that are around two units higher than predicted values.

>  <s_lp_Force_Field>  (12) 
OPLS3e

>  <r_lp_Energy>  (12) 
7.03209

>  <b_lp_Chiralities_Consistent>  (12) 
1

>  <s_lp_Variant>  (12) 
5:0-1

>  <s_i_glide_gridfile>  (12) 
pfpi4k_grid

>  <i_i_glide_lignum>  (12) 
10

>  <i_i_glide_rotatable_bonds>  (12) 
3

>  <r_i_docking_score>  (12) 
-3.80372

>  <r_i_glide_ligand_efficiency>  (12) 
-0.316977

>  <r_i_glide_ligand_efficiency_sa>  (12) 
-0.725696

>  <r_i_glide_ligand_efficiency_ln>  (12) 
-1.09148

>  <r_i_glide_gscore>  (12) 
-3.80372

>  <r_i_glide_lipo>  (12) 
0

>  <r_i_glide_hbond>  (12) 
-0.16

>  <r_i_glide_metal>  (12) 
-0

>  <r_i_glide_rewards>  (12) 
-2.13259

>  <r_i_glide_evdw>  (12) 
-11.6159

>  <r_i_glide_ecoul>  (12) 
-7.36511

>  <r_i_glide_erotb>  (12) 
0.455614

>  <r_i_glide_esite>  (12) 
-0.281187

>  <r_i_glide_emodel>  (12) 
-25.259

>  <r_i_glide_energy>  (12) 
-18.981

>  <r_i_glide_einternal>  (12) 
0.558004

>  <r_i_glide_intrahb_reward>  (12) 
-0

>  <i_i_glide_confnum>  (12) 
3

>  <i_i_glide_posenum>  (12) 
18

>  <r_i_glide_eff_state_penalty>  (12) 
0

>  <ligand_id>  (12) 
5

>  <original_smiles>  (12) 
CS(=O)(=O)NCc1ncccn1

>  <smiles>  (12) 
[H]c1nc(C([H])([H])N([H])S(=O)(=O)C([H])([H])[H])nc([H])c1[H]

$$$$
5:0:1
     RDKit          3D

 21 21  0  0  1  0  0  0  0  0999 V2000
   -2.8937    3.0521    2.7486 C   0  0  0  0  0  0  0  0  0  0  0  0
   -1.5076    2.8244    3.9190 S   0  0  0  0  0  0  0  0  0  0  0  0
   -1.2907    4.1104    4.6011 O   0  0  0  0  0  0  0  0  0  0  0  0
   -1.7478    1.5994    4.6994 O   0  0  0  0  0  0  0  0  0  0  0  0
   -0.1720    2.5390    2.8792 N   0  0  0  0  0  0  0  0  0  0  0  0
   -0.1690    1.3210    2.0735 C   0  0  0  0  0  0  0  0  0  0  0  0
    1.0750    0.4734    2.2454 C   0  0  0  0  0  0  0  0  0  0  0  0
    0.9277   -0.6687    2.9176 N   0  0  0  0  0  0  0  0  0  0  0  0
    2.0202   -1.4391    3.0620 C   0  0  0  0  0  0  0  0  0  0  0  0
    3.2678   -1.0621    2.5354 C   0  0  0  0  0  0  0  0  0  0  0  0
    3.3003    0.1598    1.8370 C   0  0  0  0  0  0  0  0  0  0  0  0
    2.2032    0.9290    1.7009 N   0  0  0  0  0  0  0  0  0  0  0  0
   -3.8177    3.2129    3.3072 H   0  0  0  0  0  0  0  0  0  0  0  0
   -2.9966    2.1553    2.1346 H   0  0  0  0  0  0  0  0  0  0  0  0
   -2.6828    3.9031    2.1006 H   0  0  0  0  0  0  0  0  0  0  0  0
    0.0066    3.3619    2.2798 H   0  0  0  0  0  0  0  0  0  0  0  0
   -1.0412    0.7076    2.3115 H   0  0  0  0  0  0  0  0  0  0  0  0
   -0.2687    1.6019    1.0261 H   0  0  0  0  0  0  0  0  0  0  0  0
    1.8963   -2.3604    3.6126 H   0  0  0  0  0  0  0  0  0  0  0  0
    4.1479   -1.6761    2.6605 H   0  0  0  0  0  0  0  0  0  0  0  0
    4.2164    0.5291    1.4004 H   0  0  0  0  0  0  0  0  0  0  0  0
  1  2  1  0
  1 13  1  0
  1 14  1  0
  1 15  1  0
  2  3  2  0
  2  4  2  0
  2  5  1  0
  5  6  1  0
  5 16  1  0
  6  7  1  0
  6 17  1  0
  6 18  1  0
  7 12  2  0
  7  8  1  0
  8  9  2  0
  9 10  1  0
  9 19  1  0
 10 11  2  0
 10 20  1  0
 11 12  1  0
 11 21  1  0
M  END
>  <i_m_ct_stereo_status>  (13) 
1

>  <s_m_source_file>  (13) 
/var/tmp/pbs.5076255.sched01/tmpi0kgw23q/0rwfjwt46.sdf

>  <i_m_source_file_index>  (13) 
10

>  <i_lp_mmshare_version>  (13) 
48012

>  <i_f3d_flags>  (13) 
0

>  <s_epik_input>  (13) 
W0NIM11TKD1PKSg9TylbTkhdW0NIMl1jMW5bY0hdW2NIXVtjSF1uMQ==

>  <s_epik_cmdline>  (13) 
J2VwaWtfcHl0aG9uJywgJy1waHQnLCAnMi4wJywgJy1waCcsICc3LjAnLCAnLXRuJywgJzgnLCAnLW1hJywgJzIwMCcsICctaW1hZScsICc8aW5maWxlLm1hZT4nLCAnLW9tYWUnLCAnPG91dGZpbGUubWFlPic=

>  <r_lp_tautomer_probability>  (13) 
1

>  <r_epik_Ionization_Penalty>  (13) 
9.96873e-05

>  <r_epik_Ionization_Penalty_Charging>  (13) 
0

>  <r_epik_Ionization_Penalty_Neutral>  (13) 
9.96873e-05

>  <r_epik_State_Penalty>  (13) 
-0

>  <r_epik_Charging_Adjusted_Penalty>  (13) 
0

>  <i_epik_Tot_Q>  (13) 
0

>  <i_epik_Tot_abs_Q>  (13) 
0

>  <s_epik_Chemistry_Notes>  (13) 
This compound contains an electron-poor aromatic ring that is susceptible to covalent hydrolysis at low pH, typically resulting in measured values for nitrogen ring protonation that are around two units higher than predicted values.

>  <s_lp_Force_Field>  (13) 
OPLS3e

>  <r_lp_Energy>  (13) 
7.03209

>  <b_lp_Chiralities_Consistent>  (13) 
1

>  <s_lp_Variant>  (13) 
5:0-1

>  <s_i_glide_gridfile>  (13) 
pfpi4k_grid

>  <i_i_glide_lignum>  (13) 
10

>  <i_i_glide_rotatable_bonds>  (13) 
3

>  <r_i_docking_score>  (13) 
-3.75474

>  <r_i_glide_ligand_efficiency>  (13) 
-0.312895

>  <r_i_glide_ligand_efficiency_sa>  (13) 
-0.71635

>  <r_i_glide_ligand_efficiency_ln>  (13) 
-1.07743

>  <r_i_glide_gscore>  (13) 
-3.75474

>  <r_i_glide_lipo>  (13) 
-0.0395127

>  <r_i_glide_hbond>  (13) 
-0.16

>  <r_i_glide_metal>  (13) 
-0

>  <r_i_glide_rewards>  (13) 
-2.13259

>  <r_i_glide_evdw>  (13) 
-17.1958

>  <r_i_glide_ecoul>  (13) 
-5.0312

>  <r_i_glide_erotb>  (13) 
0.455614

>  <r_i_glide_esite>  (13) 
-0.263785

>  <r_i_glide_emodel>  (13) 
-28.7342

>  <r_i_glide_energy>  (13) 
-22.227

>  <r_i_glide_einternal>  (13) 
0.311198

>  <r_i_glide_intrahb_reward>  (13) 
-0

>  <i_i_glide_confnum>  (13) 
1

>  <i_i_glide_posenum>  (13) 
28

>  <r_i_glide_eff_state_penalty>  (13) 
0

>  <ligand_id>  (13) 
5

>  <original_smiles>  (13) 
CS(=O)(=O)NCc1ncccn1

>  <smiles>  (13) 
[H]c1nc(C([H])([H])N([H])S(=O)(=O)C([H])([H])[H])nc([H])c1[H]

$$$$
5:0:2
     RDKit          3D

 21 21  0  0  1  0  0  0  0  0999 V2000
    4.0742   -0.7210   -2.5081 C   0  0  0  0  0  0  0  0  0  0  0  0
    3.9820   -2.5261   -2.7933 S   0  0  0  0  0  0  0  0  0  0  0  0
    3.5019   -2.7490   -4.1647 O   0  0  0  0  0  0  0  0  0  0  0  0
    5.2508   -3.1166   -2.3477 O   0  0  0  0  0  0  0  0  0  0  0  0
    2.7370   -3.0000   -1.7025 N   0  0  0  0  0  0  0  0  0  0  0  0
    3.0434   -3.0328   -0.2732 C   0  0  0  0  0  0  0  0  0  0  0  0
    3.3160   -4.4312    0.2435 C   0  0  0  0  0  0  0  0  0  0  0  0
    2.2890   -5.0972    0.7862 N   0  0  0  0  0  0  0  0  0  0  0  0
    2.5545   -6.3335    1.2625 C   0  0  0  0  0  0  0  0  0  0  0  0
    3.8352   -6.9048    1.1751 C   0  0  0  0  0  0  0  0  0  0  0  0
    4.8313   -6.1098    0.5853 C   0  0  0  0  0  0  0  0  0  0  0  0
    4.5719   -4.8685    0.1374 N   0  0  0  0  0  0  0  0  0  0  0  0
    4.8536   -0.3021   -3.1383 H   0  0  0  0  0  0  0  0  0  0  0  0
    4.3102   -0.5230   -1.4620 H   0  0  0  0  0  0  0  0  0  0  0  0
    3.1109   -0.2720   -2.7584 H   0  0  0  0  0  0  0  0  0  0  0  0
    1.8706   -2.4861   -1.8824 H   0  0  0  0  0  0  0  0  0  0  0  0
    3.9107   -2.4063   -0.0584 H   0  0  0  0  0  0  0  0  0  0  0  0
    2.2103   -2.5973    0.2730 H   0  0  0  0  0  0  0  0  0  0  0  0
    1.7286   -6.8761    1.7013 H   0  0  0  0  0  0  0  0  0  0  0  0
    4.0439   -7.9043    1.5294 H   0  0  0  0  0  0  0  0  0  0  0  0
    5.8455   -6.4635    0.4696 H   0  0  0  0  0  0  0  0  0  0  0  0
  1  2  1  0
  1 13  1  0
  1 14  1  0
  1 15  1  0
  2  3  2  0
  2  4  2  0
  2  5  1  0
  5  6  1  0
  5 16  1  0
  6  7  1  0
  6 17  1  0
  6 18  1  0
  7 12  2  0
  7  8  1  0
  8  9  2  0
  9 10  1  0
  9 19  1  0
 10 11  2  0
 10 20  1  0
 11 12  1  0
 11 21  1  0
M  END
>  <i_m_ct_stereo_status>  (14) 
1

>  <s_m_source_file>  (14) 
/var/tmp/pbs.5076255.sched01/tmpi0kgw23q/0rwfjwt46.sdf

>  <i_m_source_file_index>  (14) 
10

>  <i_lp_mmshare_version>  (14) 
48012

>  <i_f3d_flags>  (14) 
0

>  <s_epik_input>  (14) 
W0NIM11TKD1PKSg9TylbTkhdW0NIMl1jMW5bY0hdW2NIXVtjSF1uMQ==

>  <s_epik_cmdline>  (14) 
J2VwaWtfcHl0aG9uJywgJy1waHQnLCAnMi4wJywgJy1waCcsICc3LjAnLCAnLXRuJywgJzgnLCAnLW1hJywgJzIwMCcsICctaW1hZScsICc8aW5maWxlLm1hZT4nLCAnLW9tYWUnLCAnPG91dGZpbGUubWFlPic=

>  <r_lp_tautomer_probability>  (14) 
1

>  <r_epik_Ionization_Penalty>  (14) 
9.96873e-05

>  <r_epik_Ionization_Penalty_Charging>  (14) 
0

>  <r_epik_Ionization_Penalty_Neutral>  (14) 
9.96873e-05

>  <r_epik_State_Penalty>  (14) 
-0

>  <r_epik_Charging_Adjusted_Penalty>  (14) 
0

>  <i_epik_Tot_Q>  (14) 
0

>  <i_epik_Tot_abs_Q>  (14) 
0

>  <s_epik_Chemistry_Notes>  (14) 
This compound contains an electron-poor aromatic ring that is susceptible to covalent hydrolysis at low pH, typically resulting in measured values for nitrogen ring protonation that are around two units higher than predicted values.

>  <s_lp_Force_Field>  (14) 
OPLS3e

>  <r_lp_Energy>  (14) 
7.03209

>  <b_lp_Chiralities_Consistent>  (14) 
1

>  <s_lp_Variant>  (14) 
5:0-1

>  <s_i_glide_gridfile>  (14) 
pfpi4k_grid

>  <i_i_glide_lignum>  (14) 
10

>  <i_i_glide_rotatable_bonds>  (14) 
3

>  <r_i_docking_score>  (14) 
-3.70083

>  <r_i_glide_ligand_efficiency>  (14) 
-0.308403

>  <r_i_glide_ligand_efficiency_sa>  (14) 
-0.706066

>  <r_i_glide_ligand_efficiency_ln>  (14) 
-1.06196

>  <r_i_glide_gscore>  (14) 
-3.70083

>  <r_i_glide_lipo>  (14) 
-0.269206

>  <r_i_glide_hbond>  (14) 
-0.0939743

>  <r_i_glide_metal>  (14) 
-0

>  <r_i_glide_rewards>  (14) 
-2.23578

>  <r_i_glide_evdw>  (14) 
-19.8856

>  <r_i_glide_ecoul>  (14) 
-3.54778

>  <r_i_glide_erotb>  (14) 
0.455614

>  <r_i_glide_esite>  (14) 
-0.0310435

>  <r_i_glide_emodel>  (14) 
-29.9131

>  <r_i_glide_energy>  (14) 
-23.4334

>  <r_i_glide_einternal>  (14) 
0.109496

>  <r_i_glide_intrahb_reward>  (14) 
-0

>  <i_i_glide_confnum>  (14) 
1

>  <i_i_glide_posenum>  (14) 
3

>  <r_i_glide_eff_state_penalty>  (14) 
0

>  <ligand_id>  (14) 
5

>  <original_smiles>  (14) 
CS(=O)(=O)NCc1ncccn1

>  <smiles>  (14) 
[H]c1nc(C([H])([H])N([H])S(=O)(=O)C([H])([H])[H])nc([H])c1[H]

$$$$
6:0:0
     RDKit          3D

 55 60  0  0  1  0  0  0  0  0999 V2000
    2.8027   -0.1221   -4.7362 C   0  0  0  0  0  0  0  0  0  0  0  0
    3.3129   -0.6627   -3.3979 C   0  0  0  0  0  0  0  0  0  0  0  0
    3.4560   -2.1930   -3.3830 C   0  0  0  0  0  0  0  0  0  0  0  0
    4.3406   -2.6923   -2.2294 C   0  0  0  0  0  0  0  0  0  0  0  0
    3.5900   -2.7830   -0.8848 C   0  0  0  0  0  0  0  0  0  0  0  0
    4.4229   -3.0050    0.4262 C   0  0  2  0  0  0  0  0  0  0  0  0
    5.5146   -4.0947    0.2807 C   0  0  1  0  0  0  0  0  0  0  0  0
    4.9267   -5.4459   -0.1034 C   0  0  0  0  0  0  0  0  0  0  0  0
    3.8240   -5.8697    0.8722 C   0  0  0  0  0  0  0  0  0  0  0  0
    3.5295   -7.0608    0.9069 O   0  0  0  0  0  0  0  0  0  0  0  0
    3.2139   -4.9338    1.6404 N   0  0  0  0  0  0  0  0  0  0  0  0
    2.1292   -5.3050    2.5620 C   0  0  0  0  0  0  0  0  0  0  0  0
    3.4760   -3.4771    1.5884 C   0  0  1  0  0  0  0  0  0  0  0  0
    4.0543   -2.8623    2.8632 C   0  0  2  0  0  0  0  0  0  0  0  0
    4.1050   -1.3672    3.2237 C   0  0  2  0  0  0  0  0  0  0  0  0
    3.7250   -0.1873    2.3556 C   0  0  2  0  0  0  0  0  0  0  0  0
    2.7485   -0.2721    1.2394 C   0  0  0  0  0  0  0  0  0  0  0  0
    4.2365   -0.4414    0.9492 C   0  0  2  0  0  0  0  0  0  0  0  0
    5.1173   -1.7181    0.9851 C   0  0  2  0  0  0  0  0  0  0  0  0
    6.4982   -1.4258    0.3301 C   0  0  0  0  0  0  0  0  0  0  0  0
    7.3145   -2.6239   -0.2199 C   0  0  1  0  0  0  0  0  0  0  0  0
    8.4412   -3.1337    0.6831 C   0  0  0  0  0  0  0  0  0  0  0  0
    6.5064   -3.7035   -0.6513 O   0  0  0  0  0  0  0  0  0  0  0  0
    5.2118   -2.0127    2.4679 C   0  0  2  0  0  0  0  0  0  0  0  0
    2.7148    0.9634   -4.7069 H   0  0  0  0  0  0  0  0  0  0  0  0
    1.8205   -0.5245   -4.9801 H   0  0  0  0  0  0  0  0  0  0  0  0
    3.4813   -0.3765   -5.5503 H   0  0  0  0  0  0  0  0  0  0  0  0
    4.2745   -0.1964   -3.1821 H   0  0  0  0  0  0  0  0  0  0  0  0
    2.6360   -0.3545   -2.6014 H   0  0  0  0  0  0  0  0  0  0  0  0
    2.4719   -2.6664   -3.3438 H   0  0  0  0  0  0  0  0  0  0  0  0
    3.9077   -2.5225   -4.3177 H   0  0  0  0  0  0  0  0  0  0  0  0
    4.7128   -3.6819   -2.4957 H   0  0  0  0  0  0  0  0  0  0  0  0
    5.2193   -2.0533   -2.1468 H   0  0  0  0  0  0  0  0  0  0  0  0
    2.9909   -1.8819   -0.7828 H   0  0  0  0  0  0  0  0  0  0  0  0
    2.8593   -3.5883   -0.9764 H   0  0  0  0  0  0  0  0  0  0  0  0
    6.0055   -4.2535    1.2415 H   0  0  0  0  0  0  0  0  0  0  0  0
    4.5246   -5.4301   -1.1147 H   0  0  0  0  0  0  0  0  0  0  0  0
    5.7052   -6.2073   -0.0959 H   0  0  0  0  0  0  0  0  0  0  0  0
    1.8706   -6.3623    2.5404 H   0  0  0  0  0  0  0  0  0  0  0  0
    1.2186   -4.7537    2.3461 H   0  0  0  0  0  0  0  0  0  0  0  0
    2.4133   -5.0770    3.5865 H   0  0  0  0  0  0  0  0  0  0  0  0
    2.4850   -3.0589    1.4422 H   0  0  0  0  0  0  0  0  0  0  0  0
    4.1933   -3.5384    3.7034 H   0  0  0  0  0  0  0  0  0  0  0  0
    4.2670   -1.1569    4.2798 H   0  0  0  0  0  0  0  0  0  0  0  0
    3.9266    0.8043    2.7573 H   0  0  0  0  0  0  0  0  0  0  0  0
    2.0544   -1.1004    1.2474 H   0  0  0  0  0  0  0  0  0  0  0  0
    2.3156    0.6637    0.8986 H   0  0  0  0  0  0  0  0  0  0  0  0
    4.6897    0.4088    0.4365 H   0  0  0  0  0  0  0  0  0  0  0  0
    6.3269   -0.7413   -0.4973 H   0  0  0  0  0  0  0  0  0  0  0  0
    7.1197   -0.8655    1.0277 H   0  0  0  0  0  0  0  0  0  0  0  0
    7.8132   -2.2678   -1.1206 H   0  0  0  0  0  0  0  0  0  0  0  0
    9.1759   -2.3526    0.8785 H   0  0  0  0  0  0  0  0  0  0  0  0
    8.9750   -3.9510    0.2020 H   0  0  0  0  0  0  0  0  0  0  0  0
    8.0769   -3.5074    1.6376 H   0  0  0  0  0  0  0  0  0  0  0  0
    6.1787   -2.1873    2.9306 H   0  0  0  0  0  0  0  0  0  0  0  0
  1  2  1  0
  1 25  1  0
  1 26  1  0
  1 27  1  0
  2  3  1  0
  2 28  1  0
  2 29  1  0
  3  4  1  0
  3 30  1  0
  3 31  1  0
  4  5  1  0
  4 32  1  0
  4 33  1  0
  6  5  1  6
  5 34  1  0
  5 35  1  0
  6 13  1  0
  6 19  1  0
  6  7  1  0
  7 23  1  0
  7  8  1  0
  7 36  1  1
  8  9  1  0
  8 37  1  0
  8 38  1  0
  9 10  2  0
  9 11  1  0
 11 12  1  0
 11 13  1  0
 12 39  1  0
 12 40  1  0
 12 41  1  0
 13 14  1  0
 13 42  1  6
 14 24  1  0
 14 15  1  0
 14 43  1  1
 15 24  1  0
 15 16  1  0
 15 44  1  1
 16 18  1  0
 16 17  1  0
 16 45  1  1
 17 18  1  0
 17 46  1  0
 17 47  1  0
 18 19  1  0
 18 48  1  6
 19 20  1  6
 19 24  1  0
 20 21  1  0
 20 49  1  0
 20 50  1  0
 21 22  1  0
 21 23  1  0
 21 51  1  6
 22 52  1  0
 22 53  1  0
 22 54  1  0
 24 55  1  1
M  END
>  <i_m_ct_stereo_status>  (15) 
1

>  <s_m_source_file>  (15) 
/var/tmp/pbs.5076255.sched01/tmpi0kgw23q/0rwfjwt46.sdf

>  <i_m_source_file_index>  (15) 
11

>  <i_lp_mmshare_version>  (15) 
48012

>  <i_f3d_flags>  (15) 
0

>  <s_epik_input>  (15) 
W0NIM11bQ0gyXVtDSDJdW0NIMl1bQ0gyXVtDQF0xKFtDQF0yMzQpW0NASF0oT1tDQEBIXShbQ0gyXTMpW0NIM10pW0NIMl1DKD1PKU4oW0NIM10pW0NASF0xW0NAQEhdNVtDQEBIXShbQ0BIXTQ1KVtDSF02W0NAQEhdMltDSDJdNg==

>  <s_epik_cmdline>  (15) 
J2VwaWtfcHl0aG9uJywgJy1waHQnLCAnMi4wJywgJy1waCcsICc3LjAnLCAnLXRuJywgJzgnLCAnLW1hJywgJzIwMCcsICctaW1hZScsICc8aW5maWxlLm1hZT4nLCAnLW9tYWUnLCAnPG91dGZpbGUubWFlPic=

>  <r_lp_tautomer_probability>  (15) 
1

>  <r_epik_Ionization_Penalty>  (15) 
3.02299e-08

>  <r_epik_Ionization_Penalty_Charging>  (15) 
0

>  <r_epik_Ionization_Penalty_Neutral>  (15) 
3.02299e-08

>  <r_epik_State_Penalty>  (15) 
-0

>  <r_epik_Charging_Adjusted_Penalty>  (15) 
0

>  <i_epik_Tot_Q>  (15) 
0

>  <i_epik_Tot_abs_Q>  (15) 
0

>  <s_lp_Force_Field>  (15) 
OPLS3e

>  <r_lp_Energy>  (15) 
66.8707

>  <b_lp_Chiralities_Consistent>  (15) 
1

>  <s_lp_Variant>  (15) 
6:0-1

>  <s_i_glide_gridfile>  (15) 
pfpi4k_grid

>  <i_i_glide_lignum>  (15) 
11

>  <i_i_glide_rotatable_bonds>  (15) 
4

>  <r_i_docking_score>  (15) 
-3.08164

>  <r_i_glide_ligand_efficiency>  (15) 
-0.128402

>  <r_i_glide_ligand_efficiency_sa>  (15) 
-0.370375

>  <r_i_glide_ligand_efficiency_ln>  (15) 
-0.737578

>  <r_i_glide_gscore>  (15) 
-3.08164

>  <r_i_glide_lipo>  (15) 
-0.994968

>  <r_i_glide_hbond>  (15) 
0

>  <r_i_glide_metal>  (15) 
-0

>  <r_i_glide_rewards>  (15) 
-1.22755

>  <r_i_glide_evdw>  (15) 
-24.4893

>  <r_i_glide_ecoul>  (15) 
-1.02725

>  <r_i_glide_erotb>  (15) 
0.519426

>  <r_i_glide_esite>  (15) 
0

>  <r_i_glide_emodel>  (15) 
-28.2224

>  <r_i_glide_energy>  (15) 
-25.5165

>  <r_i_glide_einternal>  (15) 
3.34837

>  <r_i_glide_intrahb_reward>  (15) 
-0

>  <i_i_glide_confnum>  (15) 
1

>  <i_i_glide_posenum>  (15) 
27

>  <r_i_glide_eff_state_penalty>  (15) 
0

>  <ligand_id>  (15) 
6

>  <original_smiles>  (15) 
CCCCCC12C3CC(=O)N(C)C1C1C4C5CC5C2(CC(C)O3)C41

>  <smiles>  (15) 
[H]C([H])([H])N1C(=O)C([H])([H])C2([H])OC([H])(C([H])([H])[H])C([H])([H])C34C5([H])C([H])([H])C5([H])C5([H])C([H])(C1([H])C23C([H])([H])C([H])([H])C([H])([H])C([H])([H])C([H])([H])[H])C54[H]

$$$$
6:0:1
     RDKit          3D

 55 60  0  0  1  0  0  0  0  0999 V2000
    0.4269    1.3401    2.2913 C   0  0  0  0  0  0  0  0  0  0  0  0
    1.7683    0.8779    1.7190 C   0  0  0  0  0  0  0  0  0  0  0  0
    2.4029   -0.2698    2.5180 C   0  0  0  0  0  0  0  0  0  0  0  0
    3.6442   -0.8764    1.8421 C   0  0  0  0  0  0  0  0  0  0  0  0
    3.2955   -1.6635    0.5581 C   0  0  0  0  0  0  0  0  0  0  0  0
    4.4129   -2.4850   -0.1545 C   0  0  2  0  0  0  0  0  0  0  0  0
    5.5044   -1.5973   -0.7925 C   0  0  1  0  0  0  0  0  0  0  0  0
    4.9357   -0.6424   -1.8332 C   0  0  0  0  0  0  0  0  0  0  0  0
    4.1292   -1.3818   -2.9048 C   0  0  0  0  0  0  0  0  0  0  0  0
    3.9461   -0.8105   -3.9788 O   0  0  0  0  0  0  0  0  0  0  0  0
    3.6599   -2.6219   -2.6290 N   0  0  0  0  0  0  0  0  0  0  0  0
    2.8382   -3.3408   -3.6105 C   0  0  0  0  0  0  0  0  0  0  0  0
    3.8070   -3.3282   -1.3342 C   0  0  1  0  0  0  0  0  0  0  0  0
    4.6425   -4.6021   -1.3635 C   0  0  2  0  0  0  0  0  0  0  0  0
    4.6501   -5.7037   -0.2944 C   0  0  2  0  0  0  0  0  0  0  0  0
    4.0006   -5.6992    1.0714 C   0  0  2  0  0  0  0  0  0  0  0  0
    2.7991   -4.8926    1.4060 C   0  0  0  0  0  0  0  0  0  0  0  0
    4.1834   -4.3244    1.6858 C   0  0  2  0  0  0  0  0  0  0  0  0
    5.1305   -3.5208    0.7648 C   0  0  2  0  0  0  0  0  0  0  0  0
    6.3088   -2.9252    1.5884 C   0  0  0  0  0  0  0  0  0  0  0  0
    7.0388   -1.6922    1.0009 C   0  0  1  0  0  0  0  0  0  0  0  0
    8.3849   -1.9911    0.3078 C   0  0  0  0  0  0  0  0  0  0  0  0
    6.2140   -0.8770    0.1877 O   0  0  0  0  0  0  0  0  0  0  0  0
    5.5971   -4.5575   -0.2261 C   0  0  2  0  0  0  0  0  0  0  0  0
    0.0142    2.1454    1.6824 H   0  0  0  0  0  0  0  0  0  0  0  0
    0.5301    1.7072    3.3123 H   0  0  0  0  0  0  0  0  0  0  0  0
   -0.2973    0.5248    2.2886 H   0  0  0  0  0  0  0  0  0  0  0  0
    1.5899    0.5622    0.6937 H   0  0  0  0  0  0  0  0  0  0  0  0
    2.4626    1.7183    1.6778 H   0  0  0  0  0  0  0  0  0  0  0  0
    2.6847    0.1005    3.5030 H   0  0  0  0  0  0  0  0  0  0  0  0
    1.6687   -1.0575    2.6920 H   0  0  0  0  0  0  0  0  0  0  0  0
    4.3715   -0.0908    1.6329 H   0  0  0  0  0  0  0  0  0  0  0  0
    4.1015   -1.5439    2.5697 H   0  0  0  0  0  0  0  0  0  0  0  0
    2.4624   -2.3238    0.7950 H   0  0  0  0  0  0  0  0  0  0  0  0
    2.8925   -0.9702   -0.1708 H   0  0  0  0  0  0  0  0  0  0  0  0
    6.2226   -2.2151   -1.3318 H   0  0  0  0  0  0  0  0  0  0  0  0
    4.3044    0.1139   -1.3672 H   0  0  0  0  0  0  0  0  0  0  0  0
    5.7399   -0.1038   -2.3198 H   0  0  0  0  0  0  0  0  0  0  0  0
    2.6463   -2.7877   -4.5266 H   0  0  0  0  0  0  0  0  0  0  0  0
    1.8675   -3.6050   -3.1916 H   0  0  0  0  0  0  0  0  0  0  0  0
    3.3438   -4.2522   -3.9151 H   0  0  0  0  0  0  0  0  0  0  0  0
    2.7847   -3.6103   -1.1015 H   0  0  0  0  0  0  0  0  0  0  0  0
    5.0344   -4.8956   -2.3328 H   0  0  0  0  0  0  0  0  0  0  0  0
    5.0108   -6.6637   -0.6443 H   0  0  0  0  0  0  0  0  0  0  0  0
    4.2365   -6.5366    1.7253 H   0  0  0  0  0  0  0  0  0  0  0  0
    2.1852   -4.5630    0.5803 H   0  0  0  0  0  0  0  0  0  0  0  0
    2.2444   -5.2065    2.2866 H   0  0  0  0  0  0  0  0  0  0  0  0
    4.4547   -4.2916    2.7430 H   0  0  0  0  0  0  0  0  0  0  0  0
    5.9578   -2.6537    2.5839 H   0  0  0  0  0  0  0  0  0  0  0  0
    7.0406   -3.7095    1.7770 H   0  0  0  0  0  0  0  0  0  0  0  0
    7.2673   -1.0429    1.8440 H   0  0  0  0  0  0  0  0  0  0  0  0
    9.1060   -2.4865    0.9541 H   0  0  0  0  0  0  0  0  0  0  0  0
    8.8650   -1.0619    0.0090 H   0  0  0  0  0  0  0  0  0  0  0  0
    8.2872   -2.6263   -0.5699 H   0  0  0  0  0  0  0  0  0  0  0  0
    6.6601   -4.6643   -0.4170 H   0  0  0  0  0  0  0  0  0  0  0  0
  1  2  1  0
  1 25  1  0
  1 26  1  0
  1 27  1  0
  2  3  1  0
  2 28  1  0
  2 29  1  0
  3  4  1  0
  3 30  1  0
  3 31  1  0
  4  5  1  0
  4 32  1  0
  4 33  1  0
  6  5  1  1
  5 34  1  0
  5 35  1  0
  6 13  1  0
  6 19  1  0
  6  7  1  0
  7 23  1  0
  7  8  1  0
  7 36  1  6
  8  9  1  0
  8 37  1  0
  8 38  1  0
  9 10  2  0
  9 11  1  0
 11 12  1  0
 11 13  1  0
 12 39  1  0
 12 40  1  0
 12 41  1  0
 13 14  1  0
 13 42  1  1
 14 24  1  0
 14 15  1  0
 14 43  1  6
 15 24  1  0
 15 16  1  0
 15 44  1  6
 16 18  1  0
 16 17  1  0
 16 45  1  1
 17 18  1  0
 17 46  1  0
 17 47  1  0
 18 19  1  0
 18 48  1  1
 19 20  1  1
 19 24  1  0
 20 21  1  0
 20 49  1  0
 20 50  1  0
 21 22  1  0
 21 23  1  0
 21 51  1  1
 22 52  1  0
 22 53  1  0
 22 54  1  0
 24 55  1  6
M  END
>  <i_m_ct_stereo_status>  (16) 
1

>  <s_m_source_file>  (16) 
/var/tmp/pbs.5076255.sched01/tmpi0kgw23q/0rwfjwt46.sdf

>  <i_m_source_file_index>  (16) 
11

>  <i_lp_mmshare_version>  (16) 
48012

>  <i_f3d_flags>  (16) 
0

>  <s_epik_input>  (16) 
W0NIM11bQ0gyXVtDSDJdW0NIMl1bQ0gyXVtDQF0xKFtDQF0yMzQpW0NASF0oT1tDQEBIXShbQ0gyXTMpW0NIM10pW0NIMl1DKD1PKU4oW0NIM10pW0NASF0xW0NAQEhdNVtDQEBIXShbQ0BIXTQ1KVtDSF02W0NAQEhdMltDSDJdNg==

>  <s_epik_cmdline>  (16) 
J2VwaWtfcHl0aG9uJywgJy1waHQnLCAnMi4wJywgJy1waCcsICc3LjAnLCAnLXRuJywgJzgnLCAnLW1hJywgJzIwMCcsICctaW1hZScsICc8aW5maWxlLm1hZT4nLCAnLW9tYWUnLCAnPG91dGZpbGUubWFlPic=

>  <r_lp_tautomer_probability>  (16) 
1

>  <r_epik_Ionization_Penalty>  (16) 
3.02299e-08

>  <r_epik_Ionization_Penalty_Charging>  (16) 
0

>  <r_epik_Ionization_Penalty_Neutral>  (16) 
3.02299e-08

>  <r_epik_State_Penalty>  (16) 
-0

>  <r_epik_Charging_Adjusted_Penalty>  (16) 
0

>  <i_epik_Tot_Q>  (16) 
0

>  <i_epik_Tot_abs_Q>  (16) 
0

>  <s_lp_Force_Field>  (16) 
OPLS3e

>  <r_lp_Energy>  (16) 
66.8707

>  <b_lp_Chiralities_Consistent>  (16) 
1

>  <s_lp_Variant>  (16) 
6:0-1

>  <s_i_glide_gridfile>  (16) 
pfpi4k_grid

>  <i_i_glide_lignum>  (16) 
11

>  <i_i_glide_rotatable_bonds>  (16) 
4

>  <r_i_docking_score>  (16) 
-2.65378

>  <r_i_glide_ligand_efficiency>  (16) 
-0.110574

>  <r_i_glide_ligand_efficiency_sa>  (16) 
-0.318951

>  <r_i_glide_ligand_efficiency_ln>  (16) 
-0.635171

>  <r_i_glide_gscore>  (16) 
-2.65378

>  <r_i_glide_lipo>  (16) 
-0.446177

>  <r_i_glide_hbond>  (16) 
-0.0012058

>  <r_i_glide_metal>  (16) 
-0

>  <r_i_glide_rewards>  (16) 
-1.16266

>  <r_i_glide_evdw>  (16) 
-26.0182

>  <r_i_glide_ecoul>  (16) 
-1.62492

>  <r_i_glide_erotb>  (16) 
0.519426

>  <r_i_glide_esite>  (16) 
-0.0185116

>  <r_i_glide_emodel>  (16) 
-30.7478

>  <r_i_glide_energy>  (16) 
-27.6432

>  <r_i_glide_einternal>  (16) 
1.34999

>  <r_i_glide_intrahb_reward>  (16) 
-0

>  <i_i_glide_confnum>  (16) 
2

>  <i_i_glide_posenum>  (16) 
33

>  <r_i_glide_eff_state_penalty>  (16) 
0

>  <ligand_id>  (16) 
6

>  <original_smiles>  (16) 
CCCCCC12C3CC(=O)N(C)C1C1C4C5CC5C2(CC(C)O3)C41

>  <smiles>  (16) 
[H]C([H])([H])N1C(=O)C([H])([H])C2([H])OC([H])(C([H])([H])[H])C([H])([H])C34C5([H])C([H])([H])C5([H])C5([H])C([H])(C1([H])C23C([H])([H])C([H])([H])C([H])([H])C([H])([H])C([H])([H])[H])C54[H]

$$$$
6:0:2
     RDKit          3D

 55 60  0  0  1  0  0  0  0  0999 V2000
    1.6300    1.7584    3.9776 C   0  0  0  0  0  0  0  0  0  0  0  0
    2.7951    0.8854    3.4994 C   0  0  0  0  0  0  0  0  0  0  0  0
    2.4422    0.0426    2.2650 C   0  0  0  0  0  0  0  0  0  0  0  0
    3.6414   -0.7697    1.7510 C   0  0  0  0  0  0  0  0  0  0  0  0
    3.2844   -1.6227    0.5143 C   0  0  0  0  0  0  0  0  0  0  0  0
    4.4082   -2.4722   -0.1680 C   0  0  2  0  0  0  0  0  0  0  0  0
    5.5273   -1.6101   -0.7959 C   0  0  1  0  0  0  0  0  0  0  0  0
    4.9878   -0.6539   -1.8470 C   0  0  0  0  0  0  0  0  0  0  0  0
    4.2035   -1.3912   -2.9341 C   0  0  0  0  0  0  0  0  0  0  0  0
    4.0558   -0.8271   -4.0153 O   0  0  0  0  0  0  0  0  0  0  0  0
    3.7113   -2.6195   -2.6590 N   0  0  0  0  0  0  0  0  0  0  0  0
    2.9071   -3.3375   -3.6563 C   0  0  0  0  0  0  0  0  0  0  0  0
    3.8167   -3.3176   -1.3549 C   0  0  1  0  0  0  0  0  0  0  0  0
    4.6388   -4.6017   -1.3572 C   0  0  2  0  0  0  0  0  0  0  0  0
    4.6185   -5.7016   -0.2828 C   0  0  2  0  0  0  0  0  0  0  0  0
    3.9341   -5.6794    1.0664 C   0  0  2  0  0  0  0  0  0  0  0  0
    2.7325   -4.8586    1.3682 C   0  0  0  0  0  0  0  0  0  0  0  0
    4.1170   -4.2981    1.6791 C   0  0  2  0  0  0  0  0  0  0  0  0
    5.0952   -3.5140    0.7728 C   0  0  2  0  0  0  0  0  0  0  0  0
    6.2534   -2.9182    1.6225 C   0  0  0  0  0  0  0  0  0  0  0  0
    7.0198   -1.7054    1.0402 C   0  0  1  0  0  0  0  0  0  0  0  0
    8.3790   -2.0254    0.3826 C   0  0  0  0  0  0  0  0  0  0  0  0
    6.2382   -0.8886    0.1872 O   0  0  0  0  0  0  0  0  0  0  0  0
    5.5733   -4.5634   -0.1982 C   0  0  2  0  0  0  0  0  0  0  0  0
    1.9168    2.3397    4.8544 H   0  0  0  0  0  0  0  0  0  0  0  0
    0.7649    1.1527    4.2478 H   0  0  0  0  0  0  0  0  0  0  0  0
    1.3200    2.4616    3.2030 H   0  0  0  0  0  0  0  0  0  0  0  0
    3.6475    1.5280    3.2777 H   0  0  0  0  0  0  0  0  0  0  0  0
    3.1120    0.2290    4.3101 H   0  0  0  0  0  0  0  0  0  0  0  0
    1.6181   -0.6304    2.5035 H   0  0  0  0  0  0  0  0  0  0  0  0
    2.0820    0.6946    1.4675 H   0  0  0  0  0  0  0  0  0  0  0  0
    4.4390   -0.0682    1.5122 H   0  0  0  0  0  0  0  0  0  0  0  0
    4.0043   -1.4135    2.5512 H   0  0  0  0  0  0  0  0  0  0  0  0
    2.4576   -2.2754    0.7947 H   0  0  0  0  0  0  0  0  0  0  0  0
    2.8659   -0.9563   -0.2345 H   0  0  0  0  0  0  0  0  0  0  0  0
    6.2465   -2.2475   -1.3135 H   0  0  0  0  0  0  0  0  0  0  0  0
    4.3595    0.1061   -1.3985 H   0  0  0  0  0  0  0  0  0  0  0  0
    5.8148   -0.1293   -2.3095 H   0  0  0  0  0  0  0  0  0  0  0  0
    2.7429   -2.7882   -4.5803 H   0  0  0  0  0  0  0  0  0  0  0  0
    1.9242   -3.5898   -3.2618 H   0  0  0  0  0  0  0  0  0  0  0  0
    3.4113   -4.2569   -3.9316 H   0  0  0  0  0  0  0  0  0  0  0  0
    2.7871   -3.5870   -1.1448 H   0  0  0  0  0  0  0  0  0  0  0  0
    5.0257   -4.9152   -2.3215 H   0  0  0  0  0  0  0  0  0  0  0  0
    5.0013   -6.6628   -0.6159 H   0  0  0  0  0  0  0  0  0  0  0  0
    4.1433   -6.5164    1.7326 H   0  0  0  0  0  0  0  0  0  0  0  0
    2.1441   -4.5256    0.5241 H   0  0  0  0  0  0  0  0  0  0  0  0
    2.1569   -5.1577    2.2358 H   0  0  0  0  0  0  0  0  0  0  0  0
    4.3628   -4.2649    2.7417 H   0  0  0  0  0  0  0  0  0  0  0  0
    5.8692   -2.6296    2.6008 H   0  0  0  0  0  0  0  0  0  0  0  0
    6.9686   -3.7074    1.8432 H   0  0  0  0  0  0  0  0  0  0  0  0
    7.2257   -1.0469    1.8801 H   0  0  0  0  0  0  0  0  0  0  0  0
    9.0853   -2.5287    1.0398 H   0  0  0  0  0  0  0  0  0  0  0  0
    8.8687   -1.1014    0.0803 H   0  0  0  0  0  0  0  0  0  0  0  0
    8.2902   -2.6627   -0.4947 H   0  0  0  0  0  0  0  0  0  0  0  0
    6.6382   -4.7096   -0.3451 H   0  0  0  0  0  0  0  0  0  0  0  0
  1  2  1  0
  1 25  1  0
  1 26  1  0
  1 27  1  0
  2  3  1  0
  2 28  1  0
  2 29  1  0
  3  4  1  0
  3 30  1  0
  3 31  1  0
  4  5  1  0
  4 32  1  0
  4 33  1  0
  6  5  1  1
  5 34  1  0
  5 35  1  0
  6 13  1  0
  6 19  1  0
  6  7  1  0
  7 23  1  0
  7  8  1  0
  7 36  1  6
  8  9  1  0
  8 37  1  0
  8 38  1  0
  9 10  2  0
  9 11  1  0
 11 12  1  0
 11 13  1  0
 12 39  1  0
 12 40  1  0
 12 41  1  0
 13 14  1  0
 13 42  1  1
 14 24  1  0
 14 15  1  0
 14 43  1  6
 15 24  1  0
 15 16  1  0
 15 44  1  6
 16 18  1  0
 16 17  1  0
 16 45  1  1
 17 18  1  0
 17 46  1  0
 17 47  1  0
 18 19  1  0
 18 48  1  1
 19 20  1  1
 19 24  1  0
 20 21  1  0
 20 49  1  0
 20 50  1  0
 21 22  1  0
 21 23  1  0
 21 51  1  1
 22 52  1  0
 22 53  1  0
 22 54  1  0
 24 55  1  6
M  END
>  <i_m_ct_stereo_status>  (17) 
1

>  <s_m_source_file>  (17) 
/var/tmp/pbs.5076255.sched01/tmpi0kgw23q/0rwfjwt46.sdf

>  <i_m_source_file_index>  (17) 
11

>  <i_lp_mmshare_version>  (17) 
48012

>  <i_f3d_flags>  (17) 
0

>  <s_epik_input>  (17) 
W0NIM11bQ0gyXVtDSDJdW0NIMl1bQ0gyXVtDQF0xKFtDQF0yMzQpW0NASF0oT1tDQEBIXShbQ0gyXTMpW0NIM10pW0NIMl1DKD1PKU4oW0NIM10pW0NASF0xW0NAQEhdNVtDQEBIXShbQ0BIXTQ1KVtDSF02W0NAQEhdMltDSDJdNg==

>  <s_epik_cmdline>  (17) 
J2VwaWtfcHl0aG9uJywgJy1waHQnLCAnMi4wJywgJy1waCcsICc3LjAnLCAnLXRuJywgJzgnLCAnLW1hJywgJzIwMCcsICctaW1hZScsICc8aW5maWxlLm1hZT4nLCAnLW9tYWUnLCAnPG91dGZpbGUubWFlPic=

>  <r_lp_tautomer_probability>  (17) 
1

>  <r_epik_Ionization_Penalty>  (17) 
3.02299e-08

>  <r_epik_Ionization_Penalty_Charging>  (17) 
0

>  <r_epik_Ionization_Penalty_Neutral>  (17) 
3.02299e-08

>  <r_epik_State_Penalty>  (17) 
-0

>  <r_epik_Charging_Adjusted_Penalty>  (17) 
0

>  <i_epik_Tot_Q>  (17) 
0

>  <i_epik_Tot_abs_Q>  (17) 
0

>  <s_lp_Force_Field>  (17) 
OPLS3e

>  <r_lp_Energy>  (17) 
66.8707

>  <b_lp_Chiralities_Consistent>  (17) 
1

>  <s_lp_Variant>  (17) 
6:0-1

>  <s_i_glide_gridfile>  (17) 
pfpi4k_grid

>  <i_i_glide_lignum>  (17) 
11

>  <i_i_glide_rotatable_bonds>  (17) 
4

>  <r_i_docking_score>  (17) 
-2.57039

>  <r_i_glide_ligand_efficiency>  (17) 
-0.107099

>  <r_i_glide_ligand_efficiency_sa>  (17) 
-0.308928

>  <r_i_glide_ligand_efficiency_ln>  (17) 
-0.615211

>  <r_i_glide_gscore>  (17) 
-2.57039

>  <r_i_glide_lipo>  (17) 
-0.430482

>  <r_i_glide_hbond>  (17) 
-0.0031692

>  <r_i_glide_metal>  (17) 
-0

>  <r_i_glide_rewards>  (17) 
-1.16266

>  <r_i_glide_evdw>  (17) 
-24.3083

>  <r_i_glide_ecoul>  (17) 
-1.77941

>  <r_i_glide_erotb>  (17) 
0.519426

>  <r_i_glide_esite>  (17) 
-0.0111738

>  <r_i_glide_emodel>  (17) 
-29.7397

>  <r_i_glide_energy>  (17) 
-26.0877

>  <r_i_glide_einternal>  (17) 
0.0495996

>  <r_i_glide_intrahb_reward>  (17) 
-0

>  <i_i_glide_confnum>  (17) 
1

>  <i_i_glide_posenum>  (17) 
14

>  <r_i_glide_eff_state_penalty>  (17) 
0

>  <ligand_id>  (17) 
6

>  <original_smiles>  (17) 
CCCCCC12C3CC(=O)N(C)C1C1C4C5CC5C2(CC(C)O3)C41

>  <smiles>  (17) 
[H]C([H])([H])N1C(=O)C([H])([H])C2([H])OC([H])(C([H])([H])[H])C([H])([H])C34C5([H])C([H])([H])C5([H])C5([H])C([H])(C1([H])C23C([H])([H])C([H])([H])C([H])([H])C([H])([H])C([H])([H])[H])C54[H]

$$$$
8:0:0
     RDKit          3D

 88 93  0  0  1  0  0  0  0  0999 V2000
   -1.3229   -8.9095    2.9524 C   0  0  0  0  0  0  0  0  0  0  0  0
    0.2038   -8.9283    2.7461 C   0  0  2  0  0  0  0  0  0  0  0  0
    0.8005  -10.2022    3.3243 C   0  0  0  0  0  0  0  0  0  0  0  0
    2.2480  -10.3150    2.8535 C   0  0  0  0  0  0  0  0  0  0  0  0
    3.1567   -9.1287    3.2468 C   0  0  2  0  0  0  0  0  0  0  0  0
    4.4185   -9.3791    2.3923 C   0  0  0  0  0  0  0  0  0  0  0  0
    3.4393   -9.2499    4.7545 C   0  0  0  0  0  0  0  0  0  0  0  0
    3.5860   -7.9122    5.5012 C   0  0  0  0  0  0  0  0  0  0  0  0
    4.2246   -6.6856    4.7633 C   0  0  2  0  0  0  0  0  0  0  0  0
    3.9782   -5.6031    5.8654 C   0  0  0  0  0  0  0  0  0  0  0  0
    3.3060   -6.4547    3.5036 C   0  0  2  0  0  0  0  0  0  0  0  0
    2.5284   -7.7342    2.9025 C   0  0  2  0  0  0  0  0  0  0  0  0
    0.9786   -7.6768    3.2298 C   0  0  1  0  0  0  0  0  0  0  0  0
    0.2783   -6.4345    2.6399 C   0  0  0  0  0  0  0  0  0  0  0  0
    3.8679   -5.3540    2.5144 C   0  0  2  0  0  0  0  0  0  0  0  0
    3.7850   -3.9673    3.2444 C   0  0  0  0  0  0  0  0  0  0  0  0
    2.9404   -5.1699    1.2336 C   0  0  0  0  0  0  0  0  0  0  0  0
    3.5944   -4.6370   -0.0641 C   0  0  1  0  0  0  0  0  0  0  0  0
    2.6396   -3.8604   -0.7728 O   0  0  0  0  0  0  0  0  0  0  0  0
    4.8217   -3.8408    0.2819 C   0  0  2  0  0  0  0  0  0  0  0  0
    5.7057   -3.1861   -0.7777 C   0  0  1  0  0  0  0  0  0  0  0  0
    5.2034   -1.8326   -1.2986 C   0  0  0  0  0  0  0  0  0  0  0  0
    6.9613   -3.0584    0.0709 C   0  0  0  0  0  0  0  0  0  0  0  0
    7.8644   -2.2387   -0.1790 O   0  0  0  0  0  0  0  0  0  0  0  0
    6.8699   -3.9241    1.0812 O   0  0  0  0  0  0  0  0  0  0  0  0
    5.7944   -4.8298    0.9212 C   0  0  1  0  0  0  0  0  0  0  0  0
    5.3554   -5.6146    2.1731 C   0  0  0  0  0  0  0  0  0  0  0  0
    6.1988   -6.4166    2.9354 C   0  0  0  0  0  0  0  0  0  0  0  0
    7.6803   -6.7824    2.5455 C   0  0  0  0  0  0  0  0  0  0  0  0
    8.1054   -8.2283    2.8324 C   0  0  0  0  0  0  0  0  0  0  0  0
    8.0208   -6.6553    1.0377 C   0  0  0  0  0  0  0  0  0  0  0  0
    8.6128   -5.8728    3.3348 C   0  0  0  0  0  0  0  0  0  0  0  0
    8.2249   -5.7939    4.8431 C   0  0  0  0  0  0  0  0  0  0  0  0
    6.6991   -5.6951    5.1499 C   0  0  0  0  0  0  0  0  0  0  0  0
    5.8119   -6.7608    4.4247 C   0  0  1  0  0  0  0  0  0  0  0  0
    6.3373   -8.0870    5.0694 C   0  0  0  0  0  0  0  0  0  0  0  0
   -1.5793   -8.7184    3.9950 H   0  0  0  0  0  0  0  0  0  0  0  0
   -1.7594   -9.8670    2.6777 H   0  0  0  0  0  0  0  0  0  0  0  0
   -1.8156   -8.1746    2.3218 H   0  0  0  0  0  0  0  0  0  0  0  0
    0.3691   -8.9858    1.6895 H   0  0  0  0  0  0  0  0  0  0  0  0
    0.7193  -10.1974    4.4115 H   0  0  0  0  0  0  0  0  0  0  0  0
    0.2506  -11.0707    2.9738 H   0  0  0  0  0  0  0  0  0  0  0  0
    2.6625  -11.2474    3.2439 H   0  0  0  0  0  0  0  0  0  0  0  0
    2.2477  -10.4160    1.7683 H   0  0  0  0  0  0  0  0  0  0  0  0
    5.1385   -8.5885    2.4720 H   0  0  0  0  0  0  0  0  0  0  0  0
    4.1834   -9.4463    1.3304 H   0  0  0  0  0  0  0  0  0  0  0  0
    4.9135  -10.3126    2.6529 H   0  0  0  0  0  0  0  0  0  0  0  0
    2.6791   -9.8306    5.2606 H   0  0  0  0  0  0  0  0  0  0  0  0
    4.3291   -9.8706    4.9024 H   0  0  0  0  0  0  0  0  0  0  0  0
    2.5493   -7.6311    5.7232 H   0  0  0  0  0  0  0  0  0  0  0  0
    3.9910   -8.0876    6.4933 H   0  0  0  0  0  0  0  0  0  0  0  0
    4.3816   -4.6165    5.6547 H   0  0  0  0  0  0  0  0  0  0  0  0
    4.4257   -5.8987    6.8151 H   0  0  0  0  0  0  0  0  0  0  0  0
    2.9173   -5.4561    6.0703 H   0  0  0  0  0  0  0  0  0  0  0  0
    2.4708   -5.9515    3.9727 H   0  0  0  0  0  0  0  0  0  0  0  0
    2.6170   -7.7552    1.8243 H   0  0  0  0  0  0  0  0  0  0  0  0
    0.8535   -7.6320    4.3089 H   0  0  0  0  0  0  0  0  0  0  0  0
    0.2577   -6.4541    1.5512 H   0  0  0  0  0  0  0  0  0  0  0  0
    0.7187   -5.4944    2.9586 H   0  0  0  0  0  0  0  0  0  0  0  0
   -0.7451   -6.3909    2.9955 H   0  0  0  0  0  0  0  0  0  0  0  0
    3.0454   -3.9372    4.0435 H   0  0  0  0  0  0  0  0  0  0  0  0
    3.4615   -3.1376    2.6200 H   0  0  0  0  0  0  0  0  0  0  0  0
    4.7478   -3.6728    3.6640 H   0  0  0  0  0  0  0  0  0  0  0  0
    2.4132   -6.0522    0.8945 H   0  0  0  0  0  0  0  0  0  0  0  0
    2.1326   -4.4814    1.4987 H   0  0  0  0  0  0  0  0  0  0  0  0
    3.8868   -5.4759   -0.6987 H   0  0  0  0  0  0  0  0  0  0  0  0
    2.6742   -4.1071   -1.6697 H   0  0  0  0  0  0  0  0  0  0  0  0
    4.5531   -3.0313    0.9515 H   0  0  0  0  0  0  0  0  0  0  0  0
    5.9147   -3.8683   -1.6011 H   0  0  0  0  0  0  0  0  0  0  0  0
    5.9584   -1.3587   -1.9283 H   0  0  0  0  0  0  0  0  0  0  0  0
    4.9845   -1.1365   -0.4785 H   0  0  0  0  0  0  0  0  0  0  0  0
    4.3011   -1.9438   -1.8946 H   0  0  0  0  0  0  0  0  0  0  0  0
    6.0209   -5.5605    0.1480 H   0  0  0  0  0  0  0  0  0  0  0  0
    8.9313   -8.5054    2.2149 H   0  0  0  0  0  0  0  0  0  0  0  0
    7.3260   -8.9723    2.6624 H   0  0  0  0  0  0  0  0  0  0  0  0
    8.5928   -8.3791    3.7836 H   0  0  0  0  0  0  0  0  0  0  0  0
    8.9105   -7.1505    0.7227 H   0  0  0  0  0  0  0  0  0  0  0  0
    8.2717   -5.6566    0.6840 H   0  0  0  0  0  0  0  0  0  0  0  0
    7.2418   -7.1150    0.4802 H   0  0  0  0  0  0  0  0  0  0  0  0
    9.6534   -6.1836    3.2218 H   0  0  0  0  0  0  0  0  0  0  0  0
    8.5689   -4.9078    2.8429 H   0  0  0  0  0  0  0  0  0  0  0  0
    8.7237   -6.5739    5.4081 H   0  0  0  0  0  0  0  0  0  0  0  0
    8.6383   -4.8725    5.2459 H   0  0  0  0  0  0  0  0  0  0  0  0
    6.5776   -5.7310    6.2317 H   0  0  0  0  0  0  0  0  0  0  0  0
    6.3851   -4.6983    4.8416 H   0  0  0  0  0  0  0  0  0  0  0  0
    5.9775   -8.2434    6.0786 H   0  0  0  0  0  0  0  0  0  0  0  0
    7.3832   -8.1058    5.3086 H   0  0  0  0  0  0  0  0  0  0  0  0
    6.1380   -8.9663    4.4760 H   0  0  0  0  0  0  0  0  0  0  0  0
  1  2  1  0
  1 37  1  0
  1 38  1  0
  1 39  1  0
  2 13  1  0
  2  3  1  0
  2 40  1  6
  3  4  1  0
  3 41  1  0
  3 42  1  0
  4  5  1  0
  4 43  1  0
  4 44  1  0
  5 12  1  0
  5  6  1  6
  5  7  1  0
  6 45  1  0
  6 46  1  0
  6 47  1  0
  7  8  1  0
  7 48  1  0
  7 49  1  0
  8  9  1  0
  8 50  1  0
  8 51  1  0
  9 35  1  0
  9 10  1  1
  9 11  1  0
 10 52  1  0
 10 53  1  0
 10 54  1  0
 11 12  1  0
 11 15  1  0
 11 55  1  1
 12 13  1  0
 12 56  1  6
 13 14  1  0
 13 57  1  1
 14 58  1  0
 14 59  1  0
 14 60  1  0
 15 27  1  0
 15 16  1  1
 15 17  1  0
 16 61  1  0
 16 62  1  0
 16 63  1  0
 17 18  1  0
 17 64  1  0
 17 65  1  0
 18 19  1  0
 18 20  1  0
 18 66  1  6
 19 67  1  0
 20 26  1  0
 20 21  1  0
 20 68  1  1
 21 22  1  0
 21 23  1  0
 21 69  1  6
 22 70  1  0
 22 71  1  0
 22 72  1  0
 23 24  2  0
 23 25  1  0
 25 26  1  0
 26 27  1  0
 26 73  1  6
 27 28  2  0
 28 35  1  0
 28 29  1  0
 29 30  1  0
 29 31  1  0
 29 32  1  0
 30 74  1  0
 30 75  1  0
 30 76  1  0
 31 77  1  0
 31 78  1  0
 31 79  1  0
 32 33  1  0
 32 80  1  0
 32 81  1  0
 33 34  1  0
 33 82  1  0
 33 83  1  0
 34 35  1  0
 34 84  1  0
 34 85  1  0
 35 36  1  1
 36 86  1  0
 36 87  1  0
 36 88  1  0
M  END
>  <i_m_ct_stereo_status>  (18) 
1

>  <s_m_source_file>  (18) 
/var/tmp/pbs.5076255.sched01/tmpi0kgw23q/0rwfjwt46.sdf

>  <i_m_source_file_index>  (18) 
13

>  <i_lp_mmshare_version>  (18) 
48012

>  <i_f3d_flags>  (18) 
0

>  <s_epik_input>  (18) 
W0NIMl0xW0NIMl1bQ0BASF0oW0NIM10pW0NASF0oW0NIM10pW0NASF0oW0NAXTEyW0NIM10pW0NASF0zW0NAQF0oW0NIM10pKFtDSDJdW0NIMl0yKVtDQEBdNChbQ0gzXSlDKEMoW0NIM10pKFtDSDNdKVtDSDJdW0NIMl1bQ0gyXTQpPUM1W0NAQF0zKFtDSDNdKVtDSDJdW0NAQEhdKFtPSF0pW0NASF02W0NASF01T0MoPU8pW0NAQEhdNltDSDNd

>  <s_epik_cmdline>  (18) 
J2VwaWtfcHl0aG9uJywgJy1waHQnLCAnMi4wJywgJy1waCcsICc3LjAnLCAnLXRuJywgJzgnLCAnLW1hJywgJzIwMCcsICctaW1hZScsICc8aW5maWxlLm1hZT4nLCAnLW9tYWUnLCAnPG91dGZpbGUubWFlPic=

>  <r_lp_tautomer_probability>  (18) 
1

>  <r_epik_Ionization_Penalty>  (18) 
2.59121e-07

>  <r_epik_Ionization_Penalty_Charging>  (18) 
0

>  <r_epik_Ionization_Penalty_Neutral>  (18) 
2.59121e-07

>  <r_epik_State_Penalty>  (18) 
-0

>  <r_epik_Charging_Adjusted_Penalty>  (18) 
0

>  <i_epik_Tot_Q>  (18) 
0

>  <i_epik_Tot_abs_Q>  (18) 
0

>  <s_epik_Chemistry_Notes>  (18) 
This compound has an ester and may undergo hydrolysis at high or low pH.

>  <s_lp_Force_Field>  (18) 
OPLS3e

>  <r_lp_Energy>  (18) 
161.297

>  <b_lp_Chiralities_Consistent>  (18) 
1

>  <s_lp_Variant>  (18) 
8:0-1

>  <s_i_glide_gridfile>  (18) 
pfpi4k_grid

>  <i_i_glide_lignum>  (18) 
13

>  <i_i_glide_rotatable_bonds>  (18) 
1

>  <r_i_docking_score>  (18) 
-2.54104

>  <r_i_glide_ligand_efficiency>  (18) 
-0.0705845

>  <r_i_glide_ligand_efficiency_sa>  (18) 
-0.233065

>  <r_i_glide_ligand_efficiency_ln>  (18) 
-0.554386

>  <r_i_glide_gscore>  (18) 
-2.54104

>  <r_i_glide_lipo>  (18) 
-0.312201

>  <r_i_glide_hbond>  (18) 
-0.185448

>  <r_i_glide_metal>  (18) 
-0

>  <r_i_glide_rewards>  (18) 
-0.168073

>  <r_i_glide_evdw>  (18) 
-28.9375

>  <r_i_glide_ecoul>  (18) 
-2.85628

>  <r_i_glide_erotb>  (18) 
0

>  <r_i_glide_esite>  (18) 
0

>  <r_i_glide_emodel>  (18) 
-34.9172

>  <r_i_glide_energy>  (18) 
-31.7938

>  <r_i_glide_einternal>  (18) 
1.38064

>  <r_i_glide_intrahb_reward>  (18) 
-0

>  <i_i_glide_confnum>  (18) 
1

>  <i_i_glide_posenum>  (18) 
1

>  <r_i_glide_eff_state_penalty>  (18) 
0

>  <ligand_id>  (18) 
8

>  <original_smiles>  (18) 
CC1CCC2(C)CCC3(C)C(C2C1C)C1(C)CC(O)C2C(C)C(=O)OC2C1=C1C(C)(C)CCCC13C

>  <smiles>  (18) 
[H]OC1([H])C([H])([H])C2(C([H])([H])[H])C(=C3C(C([H])([H])[H])(C([H])([H])[H])C([H])([H])C([H])([H])C([H])([H])C3(C([H])([H])[H])C3(C([H])([H])[H])C([H])([H])C([H])([H])C4(C([H])([H])[H])C([H])([H])C([H])([H])C([H])(C([H])([H])[H])C([H])(C([H])([H])[H])C4([H])C23[H])C2([H])OC(=O)C([H])(C([H])([H])[H])C21[H]

$$$$
8:0:1
     RDKit          3D

 88 93  0  0  1  0  0  0  0  0999 V2000
   -1.6695   -8.8157    3.2702 C   0  0  0  0  0  0  0  0  0  0  0  0
   -0.1477   -8.9006    3.0316 C   0  0  2  0  0  0  0  0  0  0  0  0
    0.3964  -10.1812    3.6542 C   0  0  0  0  0  0  0  0  0  0  0  0
    1.8420  -10.3696    3.2180 C   0  0  0  0  0  0  0  0  0  0  0  0
    2.7886   -9.2122    3.6343 C   0  0  2  0  0  0  0  0  0  0  0  0
    4.0519   -9.4973    2.7904 C   0  0  0  0  0  0  0  0  0  0  0  0
    3.0752   -9.3449    5.1472 C   0  0  0  0  0  0  0  0  0  0  0  0
    3.2296   -8.0120    5.8984 C   0  0  0  0  0  0  0  0  0  0  0  0
    3.9373   -6.8054    5.1784 C   0  0  2  0  0  0  0  0  0  0  0  0
    3.7106   -5.7160    6.2841 C   0  0  0  0  0  0  0  0  0  0  0  0
    3.0326   -6.5334    3.9082 C   0  0  2  0  0  0  0  0  0  0  0  0
    2.2228   -7.7889    3.2855 C   0  0  2  0  0  0  0  0  0  0  0  0
    0.6646   -7.6852    3.5605 C   0  0  1  0  0  0  0  0  0  0  0  0
    0.0255   -6.3991    3.0105 C   0  0  0  0  0  0  0  0  0  0  0  0
    3.6383   -5.4442    2.9323 C   0  0  2  0  0  0  0  0  0  0  0  0
    3.6072   -4.0581    3.6708 C   0  0  0  0  0  0  0  0  0  0  0  0
    2.7306   -5.2167    1.6372 C   0  0  0  0  0  0  0  0  0  0  0  0
    3.4038   -4.7003    0.3408 C   0  0  1  0  0  0  0  0  0  0  0  0
    2.5090   -3.8605   -0.3695 O   0  0  0  0  0  0  0  0  0  0  0  0
    4.6776   -3.9743    0.7125 C   0  0  2  0  0  0  0  0  0  0  0  0
    5.5905   -3.3456   -0.3380 C   0  0  1  0  0  0  0  0  0  0  0  0
    5.1530   -1.9616   -0.8544 C   0  0  0  0  0  0  0  0  0  0  0  0
    6.8518   -3.2732    0.5089 C   0  0  0  0  0  0  0  0  0  0  0  0
    7.7921   -2.5003    0.3091 O   0  0  0  0  0  0  0  0  0  0  0  0
    6.7181   -4.1376    1.5257 O   0  0  0  0  0  0  0  0  0  0  0  0
    5.6095   -5.0067    1.3422 C   0  0  1  0  0  0  0  0  0  0  0  0
    5.1186   -5.7767    2.5918 C   0  0  0  0  0  0  0  0  0  0  0  0
    5.9238   -6.6090    3.3556 C   0  0  0  0  0  0  0  0  0  0  0  0
    7.4090   -7.0129    2.9711 C   0  0  0  0  0  0  0  0  0  0  0  0
    7.7970   -8.4919    3.2617 C   0  0  0  0  0  0  0  0  0  0  0  0
    7.7879   -6.9224    1.4654 C   0  0  0  0  0  0  0  0  0  0  0  0
    8.3333   -6.0777    3.7689 C   0  0  0  0  0  0  0  0  0  0  0  0
    7.9711   -5.9544    5.2684 C   0  0  0  0  0  0  0  0  0  0  0  0
    6.4451   -5.8641    5.5785 C   0  0  0  0  0  0  0  0  0  0  0  0
    5.5291   -6.9232    4.8564 C   0  0  1  0  0  0  0  0  0  0  0  0
    6.0058   -8.2721    5.4946 C   0  0  0  0  0  0  0  0  0  0  0  0
   -1.8973   -8.6228    4.3197 H   0  0  0  0  0  0  0  0  0  0  0  0
   -2.1491   -9.7577    3.0037 H   0  0  0  0  0  0  0  0  0  0  0  0
   -2.1485   -8.0536    2.6583 H   0  0  0  0  0  0  0  0  0  0  0  0
   -0.0071   -8.9747    1.9541 H   0  0  0  0  0  0  0  0  0  0  0  0
    0.2983  -10.1539    4.7397 H   0  0  0  0  0  0  0  0  0  0  0  0
   -0.1831  -11.0453    3.3296 H   0  0  0  0  0  0  0  0  0  0  0  0
    2.2134  -11.3154    3.6168 H   0  0  0  0  0  0  0  0  0  0  0  0
    1.8434  -10.4840    2.1330 H   0  0  0  0  0  0  0  0  0  0  0  0
    4.7972   -8.7307    2.8848 H   0  0  0  0  0  0  0  0  0  0  0  0
    3.8246   -9.5516    1.7250 H   0  0  0  0  0  0  0  0  0  0  0  0
    4.5173  -10.4467    3.0540 H   0  0  0  0  0  0  0  0  0  0  0  0
    2.2643   -9.8775    5.6438 H   0  0  0  0  0  0  0  0  0  0  0  0
    3.9215  -10.0060    5.3163 H   0  0  0  0  0  0  0  0  0  0  0  0
    2.2069   -7.6985    6.1111 H   0  0  0  0  0  0  0  0  0  0  0  0
    3.6213   -8.2057    6.8977 H   0  0  0  0  0  0  0  0  0  0  0  0
    4.1510   -4.7444    6.0841 H   0  0  0  0  0  0  0  0  0  0  0  0
    4.1337   -6.0291    7.2398 H   0  0  0  0  0  0  0  0  0  0  0  0
    2.6547   -5.5305    6.4761 H   0  0  0  0  0  0  0  0  0  0  0  0
    2.2113   -6.0073    4.3750 H   0  0  0  0  0  0  0  0  0  0  0  0
    2.3238   -7.8035    2.2087 H   0  0  0  0  0  0  0  0  0  0  0  0
    0.5188   -7.6611    4.6397 H   0  0  0  0  0  0  0  0  0  0  0  0
    0.0082   -6.3942    1.9198 H   0  0  0  0  0  0  0  0  0  0  0  0
    0.4989   -5.4837    3.3541 H   0  0  0  0  0  0  0  0  0  0  0  0
   -1.0006   -6.3147    3.3629 H   0  0  0  0  0  0  0  0  0  0  0  0
    2.8614   -4.0062    4.4646 H   0  0  0  0  0  0  0  0  0  0  0  0
    3.3175   -3.2132    3.0477 H   0  0  0  0  0  0  0  0  0  0  0  0
    4.5775   -3.8003    4.1000 H   0  0  0  0  0  0  0  0  0  0  0  0
    2.1923   -6.0861    1.2929 H   0  0  0  0  0  0  0  0  0  0  0  0
    1.9346   -4.5188    1.9015 H   0  0  0  0  0  0  0  0  0  0  0  0
    3.6501   -5.5474   -0.3043 H   0  0  0  0  0  0  0  0  0  0  0  0
    2.5705   -2.9763   -0.0402 H   0  0  0  0  0  0  0  0  0  0  0  0
    4.4420   -3.1623    1.3943 H   0  0  0  0  0  0  0  0  0  0  0  0
    5.7724   -4.0277   -1.1667 H   0  0  0  0  0  0  0  0  0  0  0  0
    5.9318   -1.5114   -1.4746 H   0  0  0  0  0  0  0  0  0  0  0  0
    4.9469   -1.2660   -0.0337 H   0  0  0  0  0  0  0  0  0  0  0  0
    4.2557   -2.0355   -1.4679 H   0  0  0  0  0  0  0  0  0  0  0  0
    5.8226   -5.7440    0.5697 H   0  0  0  0  0  0  0  0  0  0  0  0
    8.6016   -8.8370    2.6304 H   0  0  0  0  0  0  0  0  0  0  0  0
    6.9799   -9.1931    3.1029 H   0  0  0  0  0  0  0  0  0  0  0  0
    8.2675   -8.6448    4.2265 H   0  0  0  0  0  0  0  0  0  0  0  0
    8.7130   -7.4248    1.2200 H   0  0  0  0  0  0  0  0  0  0  0  0
    8.0317   -5.9355    1.0946 H   0  0  0  0  0  0  0  0  0  0  0  0
    7.0329   -7.4079    0.8575 H   0  0  0  0  0  0  0  0  0  0  0  0
    9.3772   -6.3743    3.6571 H   0  0  0  0  0  0  0  0  0  0  0  0
    8.2860   -5.0946    3.3073 H   0  0  0  0  0  0  0  0  0  0  0  0
    8.4331   -6.7757    5.8162 H   0  0  0  0  0  0  0  0  0  0  0  0
    8.4566   -5.0623    5.6675 H   0  0  0  0  0  0  0  0  0  0  0  0
    6.3238   -5.9167    6.6606 H   0  0  0  0  0  0  0  0  0  0  0  0
    6.1443   -4.8601    5.2825 H   0  0  0  0  0  0  0  0  0  0  0  0
    5.6143   -8.4285    6.4928 H   0  0  0  0  0  0  0  0  0  0  0  0
    7.0515   -8.3204    5.7456 H   0  0  0  0  0  0  0  0  0  0  0  0
    5.7756   -9.1450    4.8981 H   0  0  0  0  0  0  0  0  0  0  0  0
  1  2  1  0
  1 37  1  0
  1 38  1  0
  1 39  1  0
  2 13  1  0
  2  3  1  0
  2 40  1  6
  3  4  1  0
  3 41  1  0
  3 42  1  0
  4  5  1  0
  4 43  1  0
  4 44  1  0
  5 12  1  0
  5  6  1  6
  5  7  1  0
  6 45  1  0
  6 46  1  0
  6 47  1  0
  7  8  1  0
  7 48  1  0
  7 49  1  0
  8  9  1  0
  8 50  1  0
  8 51  1  0
  9 35  1  0
  9 10  1  1
  9 11  1  0
 10 52  1  0
 10 53  1  0
 10 54  1  0
 11 12  1  0
 11 15  1  0
 11 55  1  1
 12 13  1  0
 12 56  1  6
 13 14  1  0
 13 57  1  1
 14 58  1  0
 14 59  1  0
 14 60  1  0
 15 27  1  0
 15 16  1  1
 15 17  1  0
 16 61  1  0
 16 62  1  0
 16 63  1  0
 17 18  1  0
 17 64  1  0
 17 65  1  0
 18 19  1  0
 18 20  1  0
 18 66  1  6
 19 67  1  0
 20 26  1  0
 20 21  1  0
 20 68  1  1
 21 22  1  0
 21 23  1  0
 21 69  1  6
 22 70  1  0
 22 71  1  0
 22 72  1  0
 23 24  2  0
 23 25  1  0
 25 26  1  0
 26 27  1  0
 26 73  1  6
 27 28  2  0
 28 35  1  0
 28 29  1  0
 29 30  1  0
 29 31  1  0
 29 32  1  0
 30 74  1  0
 30 75  1  0
 30 76  1  0
 31 77  1  0
 31 78  1  0
 31 79  1  0
 32 33  1  0
 32 80  1  0
 32 81  1  0
 33 34  1  0
 33 82  1  0
 33 83  1  0
 34 35  1  0
 34 84  1  0
 34 85  1  0
 35 36  1  1
 36 86  1  0
 36 87  1  0
 36 88  1  0
M  END
>  <i_m_ct_stereo_status>  (19) 
1

>  <s_m_source_file>  (19) 
/var/tmp/pbs.5076255.sched01/tmpi0kgw23q/0rwfjwt46.sdf

>  <i_m_source_file_index>  (19) 
13

>  <i_lp_mmshare_version>  (19) 
48012

>  <i_f3d_flags>  (19) 
0

>  <s_epik_input>  (19) 
W0NIMl0xW0NIMl1bQ0BASF0oW0NIM10pW0NASF0oW0NIM10pW0NASF0oW0NAXTEyW0NIM10pW0NASF0zW0NAQF0oW0NIM10pKFtDSDJdW0NIMl0yKVtDQEBdNChbQ0gzXSlDKEMoW0NIM10pKFtDSDNdKVtDSDJdW0NIMl1bQ0gyXTQpPUM1W0NAQF0zKFtDSDNdKVtDSDJdW0NAQEhdKFtPSF0pW0NASF02W0NASF01T0MoPU8pW0NAQEhdNltDSDNd

>  <s_epik_cmdline>  (19) 
J2VwaWtfcHl0aG9uJywgJy1waHQnLCAnMi4wJywgJy1waCcsICc3LjAnLCAnLXRuJywgJzgnLCAnLW1hJywgJzIwMCcsICctaW1hZScsICc8aW5maWxlLm1hZT4nLCAnLW9tYWUnLCAnPG91dGZpbGUubWFlPic=

>  <r_lp_tautomer_probability>  (19) 
1

>  <r_epik_Ionization_Penalty>  (19) 
2.59121e-07

>  <r_epik_Ionization_Penalty_Charging>  (19) 
0

>  <r_epik_Ionization_Penalty_Neutral>  (19) 
2.59121e-07

>  <r_epik_State_Penalty>  (19) 
-0

>  <r_epik_Charging_Adjusted_Penalty>  (19) 
0

>  <i_epik_Tot_Q>  (19) 
0

>  <i_epik_Tot_abs_Q>  (19) 
0

>  <s_epik_Chemistry_Notes>  (19) 
This compound has an ester and may undergo hydrolysis at high or low pH.

>  <s_lp_Force_Field>  (19) 
OPLS3e

>  <r_lp_Energy>  (19) 
161.297

>  <b_lp_Chiralities_Consistent>  (19) 
1

>  <s_lp_Variant>  (19) 
8:0-1

>  <s_i_glide_gridfile>  (19) 
pfpi4k_grid

>  <i_i_glide_lignum>  (19) 
13

>  <i_i_glide_rotatable_bonds>  (19) 
1

>  <r_i_docking_score>  (19) 
-2.02826

>  <r_i_glide_ligand_efficiency>  (19) 
-0.0563405

>  <r_i_glide_ligand_efficiency_sa>  (19) 
-0.186032

>  <r_i_glide_ligand_efficiency_ln>  (19) 
-0.442511

>  <r_i_glide_gscore>  (19) 
-2.02826

>  <r_i_glide_lipo>  (19) 
-0.264902

>  <r_i_glide_hbond>  (19) 
0

>  <r_i_glide_metal>  (19) 
-0

>  <r_i_glide_rewards>  (19) 
-0.170924

>  <r_i_glide_evdw>  (19) 
-29.3525

>  <r_i_glide_ecoul>  (19) 
-0.83202

>  <r_i_glide_erotb>  (19) 
0

>  <r_i_glide_esite>  (19) 
0

>  <r_i_glide_emodel>  (19) 
-33.3179

>  <r_i_glide_energy>  (19) 
-30.1846

>  <r_i_glide_einternal>  (19) 
0.316011

>  <r_i_glide_intrahb_reward>  (19) 
-0

>  <i_i_glide_confnum>  (19) 
2

>  <i_i_glide_posenum>  (19) 
34

>  <r_i_glide_eff_state_penalty>  (19) 
0

>  <ligand_id>  (19) 
8

>  <original_smiles>  (19) 
CC1CCC2(C)CCC3(C)C(C2C1C)C1(C)CC(O)C2C(C)C(=O)OC2C1=C1C(C)(C)CCCC13C

>  <smiles>  (19) 
[H]OC1([H])C([H])([H])C2(C([H])([H])[H])C(=C3C(C([H])([H])[H])(C([H])([H])[H])C([H])([H])C([H])([H])C([H])([H])C3(C([H])([H])[H])C3(C([H])([H])[H])C([H])([H])C([H])([H])C4(C([H])([H])[H])C([H])([H])C([H])([H])C([H])(C([H])([H])[H])C([H])(C([H])([H])[H])C4([H])C23[H])C2([H])OC(=O)C([H])(C([H])([H])[H])C21[H]

$$$$
8:0:2
     RDKit          3D

 88 93  0  0  1  0  0  0  0  0999 V2000
    4.6893   -1.0757   -0.3704 C   0  0  0  0  0  0  0  0  0  0  0  0
    3.7621   -1.3300    0.8353 C   0  0  2  0  0  0  0  0  0  0  0  0
    3.6475   -0.0525    1.6593 C   0  0  0  0  0  0  0  0  0  0  0  0
    2.5621   -0.2333    2.7111 C   0  0  0  0  0  0  0  0  0  0  0  0
    2.8254   -1.4020    3.7002 C   0  0  2  0  0  0  0  0  0  0  0  0
    1.4549   -1.5590    4.3994 C   0  0  0  0  0  0  0  0  0  0  0  0
    3.9194   -0.9556    4.6974 C   0  0  0  0  0  0  0  0  0  0  0  0
    4.8734   -2.0694    5.1566 C   0  0  0  0  0  0  0  0  0  0  0  0
    4.3084   -3.5201    5.3811 C   0  0  2  0  0  0  0  0  0  0  0  0
    5.6607   -4.2519    5.6967 C   0  0  0  0  0  0  0  0  0  0  0  0
    3.7473   -3.9315    3.9577 C   0  0  2  0  0  0  0  0  0  0  0  0
    3.2221   -2.7476    2.9854 C   0  0  2  0  0  0  0  0  0  0  0  0
    4.1956   -2.5128    1.7497 C   0  0  1  0  0  0  0  0  0  0  0  0
    4.4196   -3.7689    0.8686 C   0  0  0  0  0  0  0  0  0  0  0  0
    2.9774   -5.3130    3.9719 C   0  0  2  0  0  0  0  0  0  0  0  0
    4.0244   -6.4500    4.2616 C   0  0  0  0  0  0  0  0  0  0  0  0
    2.3779   -5.6911    2.5403 C   0  0  0  0  0  0  0  0  0  0  0  0
    1.1320   -6.6105    2.4823 C   0  0  1  0  0  0  0  0  0  0  0  0
    1.1619   -7.4059    1.3144 O   0  0  0  0  0  0  0  0  0  0  0  0
    1.0865   -7.4398    3.7468 C   0  0  2  0  0  0  0  0  0  0  0  0
   -0.0117   -8.4655    4.0209 C   0  0  1  0  0  0  0  0  0  0  0  0
    0.1687   -9.8259    3.3202 C   0  0  0  0  0  0  0  0  0  0  0  0
    0.1687   -8.5334    5.5385 C   0  0  0  0  0  0  0  0  0  0  0  0
   -0.1829   -9.4563    6.2668 O   0  0  0  0  0  0  0  0  0  0  0  0
    0.8071   -7.4251    5.9339 O   0  0  0  0  0  0  0  0  0  0  0  0
    0.8776   -6.4596    4.9004 C   0  0  1  0  0  0  0  0  0  0  0  0
    1.9099   -5.3295    5.1026 C   0  0  0  0  0  0  0  0  0  0  0  0
    1.9247   -4.4937    6.2116 C   0  0  0  0  0  0  0  0  0  0  0  0
    0.8003   -4.4711    7.3367 C   0  0  0  0  0  0  0  0  0  0  0  0
    0.4085   -3.0528    7.8674 C   0  0  0  0  0  0  0  0  0  0  0  0
   -0.6188   -4.9921    6.9489 C   0  0  0  0  0  0  0  0  0  0  0  0
    1.3484   -5.3454    8.4882 C   0  0  0  0  0  0  0  0  0  0  0  0
    2.7964   -5.0139    8.9090 C   0  0  0  0  0  0  0  0  0  0  0  0
    3.7775   -4.7550    7.7277 C   0  0  0  0  0  0  0  0  0  0  0  0
    3.2715   -3.7620    6.6141 C   0  0  1  0  0  0  0  0  0  0  0  0
    3.1847   -2.4044    7.3885 C   0  0  0  0  0  0  0  0  0  0  0  0
    5.7298   -0.9713   -0.0615 H   0  0  0  0  0  0  0  0  0  0  0  0
    4.4046   -0.1662   -0.8950 H   0  0  0  0  0  0  0  0  0  0  0  0
    4.6201   -1.8736   -1.1081 H   0  0  0  0  0  0  0  0  0  0  0  0
    2.7723   -1.5459    0.4314 H   0  0  0  0  0  0  0  0  0  0  0  0
    4.6084    0.1964    2.1085 H   0  0  0  0  0  0  0  0  0  0  0  0
    3.3829    0.7949    1.0249 H   0  0  0  0  0  0  0  0  0  0  0  0
    2.4424    0.7006    3.2624 H   0  0  0  0  0  0  0  0  0  0  0  0
    1.6200   -0.3843    2.1806 H   0  0  0  0  0  0  0  0  0  0  0  0
    1.4252   -2.3966    5.0701 H   0  0  0  0  0  0  0  0  0  0  0  0
    0.6520   -1.7336    3.6829 H   0  0  0  0  0  0  0  0  0  0  0  0
    1.1785   -0.6727    4.9702 H   0  0  0  0  0  0  0  0  0  0  0  0
    4.5502   -0.1870    4.2503 H   0  0  0  0  0  0  0  0  0  0  0  0
    3.4786   -0.4302    5.5407 H   0  0  0  0  0  0  0  0  0  0  0  0
    5.6088   -2.1392    4.3555 H   0  0  0  0  0  0  0  0  0  0  0  0
    5.4795   -1.7085    5.9883 H   0  0  0  0  0  0  0  0  0  0  0  0
    5.5816   -5.3038    5.9505 H   0  0  0  0  0  0  0  0  0  0  0  0
    6.1797   -3.7893    6.5377 H   0  0  0  0  0  0  0  0  0  0  0  0
    6.3598   -4.2135    4.8671 H   0  0  0  0  0  0  0  0  0  0  0  0
    4.6711   -4.1767    3.4504 H   0  0  0  0  0  0  0  0  0  0  0  0
    2.2682   -3.0147    2.5517 H   0  0  0  0  0  0  0  0  0  0  0  0
    5.1721   -2.2464    2.1532 H   0  0  0  0  0  0  0  0  0  0  0  0
    3.5169   -4.0493    0.3249 H   0  0  0  0  0  0  0  0  0  0  0  0
    4.7645   -4.6367    1.4236 H   0  0  0  0  0  0  0  0  0  0  0  0
    5.2009   -3.6009    0.1292 H   0  0  0  0  0  0  0  0  0  0  0  0
    5.0465   -6.1769    3.9987 H   0  0  0  0  0  0  0  0  0  0  0  0
    3.8908   -7.3580    3.6757 H   0  0  0  0  0  0  0  0  0  0  0  0
    4.0176   -6.7633    5.3072 H   0  0  0  0  0  0  0  0  0  0  0  0
    2.0811   -4.8527    1.9314 H   0  0  0  0  0  0  0  0  0  0  0  0
    3.1706   -6.1532    1.9490 H   0  0  0  0  0  0  0  0  0  0  0  0
    0.2308   -5.9990    2.4255 H   0  0  0  0  0  0  0  0  0  0  0  0
    1.7530   -8.1324    1.4519 H   0  0  0  0  0  0  0  0  0  0  0  0
    2.0080   -8.0074    3.8411 H   0  0  0  0  0  0  0  0  0  0  0  0
   -0.9968   -8.0583    3.8010 H   0  0  0  0  0  0  0  0  0  0  0  0
   -0.5757  -10.5423    3.6768 H   0  0  0  0  0  0  0  0  0  0  0  0
    1.1524  -10.2594    3.5179 H   0  0  0  0  0  0  0  0  0  0  0  0
    0.0424   -9.7472    2.2391 H   0  0  0  0  0  0  0  0  0  0  0  0
   -0.0935   -5.9923    4.7419 H   0  0  0  0  0  0  0  0  0  0  0  0
   -0.6081   -2.9785    8.2432 H   0  0  0  0  0  0  0  0  0  0  0  0
    0.4720   -2.2844    7.1007 H   0  0  0  0  0  0  0  0  0  0  0  0
    0.9614   -2.7574    8.7528 H   0  0  0  0  0  0  0  0  0  0  0  0
   -1.3833   -4.7581    7.6895 H   0  0  0  0  0  0  0  0  0  0  0  0
   -0.7183   -6.0668    6.9300 H   0  0  0  0  0  0  0  0  0  0  0  0
   -0.9636   -4.5602    6.0109 H   0  0  0  0  0  0  0  0  0  0  0  0
    0.6893   -5.2934    9.3553 H   0  0  0  0  0  0  0  0  0  0  0  0
    1.3344   -6.3901    8.1780 H   0  0  0  0  0  0  0  0  0  0  0  0
    2.7898   -4.1786    9.6072 H   0  0  0  0  0  0  0  0  0  0  0  0
    3.1799   -5.8484    9.4983 H   0  0  0  0  0  0  0  0  0  0  0  0
    4.7235   -4.4198    8.1537 H   0  0  0  0  0  0  0  0  0  0  0  0
    3.9690   -5.7325    7.2872 H   0  0  0  0  0  0  0  0  0  0  0  0
    4.1548   -1.9431    7.5365 H   0  0  0  0  0  0  0  0  0  0  0  0
    2.9004   -2.4795    8.4250 H   0  0  0  0  0  0  0  0  0  0  0  0
    2.5320   -1.6759    6.9261 H   0  0  0  0  0  0  0  0  0  0  0  0
  1  2  1  0
  1 37  1  0
  1 38  1  0
  1 39  1  0
  2 13  1  0
  2  3  1  0
  2 40  1  6
  3  4  1  0
  3 41  1  0
  3 42  1  0
  4  5  1  0
  4 43  1  0
  4 44  1  0
  5 12  1  0
  5  6  1  1
  5  7  1  0
  6 45  1  0
  6 46  1  0
  6 47  1  0
  7  8  1  0
  7 48  1  0
  7 49  1  0
  8  9  1  0
  8 50  1  0
  8 51  1  0
  9 35  1  0
  9 10  1  1
  9 11  1  0
 10 52  1  0
 10 53  1  0
 10 54  1  0
 11 12  1  0
 11 15  1  0
 11 55  1  6
 12 13  1  0
 12 56  1  6
 13 14  1  0
 13 57  1  1
 14 58  1  0
 14 59  1  0
 14 60  1  0
 15 27  1  0
 15 16  1  1
 15 17  1  0
 16 61  1  0
 16 62  1  0
 16 63  1  0
 17 18  1  0
 17 64  1  0
 17 65  1  0
 18 19  1  0
 18 20  1  0
 18 66  1  6
 19 67  1  0
 20 26  1  0
 20 21  1  0
 20 68  1  1
 21 22  1  0
 21 23  1  0
 21 69  1  1
 22 70  1  0
 22 71  1  0
 22 72  1  0
 23 24  2  0
 23 25  1  0
 25 26  1  0
 26 27  1  0
 26 73  1  6
 27 28  2  0
 28 35  1  0
 28 29  1  0
 29 30  1  0
 29 31  1  0
 29 32  1  0
 30 74  1  0
 30 75  1  0
 30 76  1  0
 31 77  1  0
 31 78  1  0
 31 79  1  0
 32 33  1  0
 32 80  1  0
 32 81  1  0
 33 34  1  0
 33 82  1  0
 33 83  1  0
 34 35  1  0
 34 84  1  0
 34 85  1  0
 35 36  1  1
 36 86  1  0
 36 87  1  0
 36 88  1  0
M  END
>  <i_m_ct_stereo_status>  (20) 
1

>  <s_m_source_file>  (20) 
/var/tmp/pbs.5076255.sched01/tmpi0kgw23q/0rwfjwt46.sdf

>  <i_m_source_file_index>  (20) 
13

>  <i_lp_mmshare_version>  (20) 
48012

>  <i_f3d_flags>  (20) 
0

>  <s_epik_input>  (20) 
W0NIMl0xW0NIMl1bQ0BASF0oW0NIM10pW0NASF0oW0NIM10pW0NASF0oW0NAXTEyW0NIM10pW0NASF0zW0NAQF0oW0NIM10pKFtDSDJdW0NIMl0yKVtDQEBdNChbQ0gzXSlDKEMoW0NIM10pKFtDSDNdKVtDSDJdW0NIMl1bQ0gyXTQpPUM1W0NAQF0zKFtDSDNdKVtDSDJdW0NAQEhdKFtPSF0pW0NASF02W0NASF01T0MoPU8pW0NAQEhdNltDSDNd

>  <s_epik_cmdline>  (20) 
J2VwaWtfcHl0aG9uJywgJy1waHQnLCAnMi4wJywgJy1waCcsICc3LjAnLCAnLXRuJywgJzgnLCAnLW1hJywgJzIwMCcsICctaW1hZScsICc8aW5maWxlLm1hZT4nLCAnLW9tYWUnLCAnPG91dGZpbGUubWFlPic=

>  <r_lp_tautomer_probability>  (20) 
1

>  <r_epik_Ionization_Penalty>  (20) 
2.59121e-07

>  <r_epik_Ionization_Penalty_Charging>  (20) 
0

>  <r_epik_Ionization_Penalty_Neutral>  (20) 
2.59121e-07

>  <r_epik_State_Penalty>  (20) 
-0

>  <r_epik_Charging_Adjusted_Penalty>  (20) 
0

>  <i_epik_Tot_Q>  (20) 
0

>  <i_epik_Tot_abs_Q>  (20) 
0

>  <s_epik_Chemistry_Notes>  (20) 
This compound has an ester and may undergo hydrolysis at high or low pH.

>  <s_lp_Force_Field>  (20) 
OPLS3e

>  <r_lp_Energy>  (20) 
161.297

>  <b_lp_Chiralities_Consistent>  (20) 
1

>  <s_lp_Variant>  (20) 
8:0-1

>  <s_i_glide_gridfile>  (20) 
pfpi4k_grid

>  <i_i_glide_lignum>  (20) 
13

>  <i_i_glide_rotatable_bonds>  (20) 
1

>  <r_i_docking_score>  (20) 
-1.5498

>  <r_i_glide_ligand_efficiency>  (20) 
-0.0430499

>  <r_i_glide_ligand_efficiency_sa>  (20) 
-0.142148

>  <r_i_glide_ligand_efficiency_ln>  (20) 
-0.338124

>  <r_i_glide_gscore>  (20) 
-1.5498

>  <r_i_glide_lipo>  (20) 
-0.121816

>  <r_i_glide_hbond>  (20) 
0

>  <r_i_glide_metal>  (20) 
-0

>  <r_i_glide_rewards>  (20) 
-0.0220624

>  <r_i_glide_evdw>  (20) 
-29.2159

>  <r_i_glide_ecoul>  (20) 
0.649868

>  <r_i_glide_erotb>  (20) 
0

>  <r_i_glide_esite>  (20) 
-0.0426052

>  <r_i_glide_emodel>  (20) 
-31.0536

>  <r_i_glide_energy>  (20) 
-28.566

>  <r_i_glide_einternal>  (20) 
0.162145

>  <r_i_glide_intrahb_reward>  (20) 
-0

>  <i_i_glide_confnum>  (20) 
2

>  <i_i_glide_posenum>  (20) 
20

>  <r_i_glide_eff_state_penalty>  (20) 
0

>  <ligand_id>  (20) 
8

>  <original_smiles>  (20) 
CC1CCC2(C)CCC3(C)C(C2C1C)C1(C)CC(O)C2C(C)C(=O)OC2C1=C1C(C)(C)CCCC13C

>  <smiles>  (20) 
[H]OC1([H])C([H])([H])C2(C([H])([H])[H])C(=C3C(C([H])([H])[H])(C([H])([H])[H])C([H])([H])C([H])([H])C([H])([H])C3(C([H])([H])[H])C3(C([H])([H])[H])C([H])([H])C([H])([H])C4(C([H])([H])[H])C([H])([H])C([H])([H])C([H])(C([H])([H])[H])C([H])(C([H])([H])[H])C4([H])C23[H])C2([H])OC(=O)C([H])(C([H])([H])[H])C21[H]

$$$$
10:0:0
     RDKit          3D

 37 40  0  0  1  0  0  0  0  0999 V2000
    3.3002   -9.8016    1.1143 O   0  0  0  0  0  0  0  0  0  0  0  0
    4.2410   -8.7102    1.1075 N   0  0  0  0  0  0  0  0  0  0  0  0
    3.6616   -7.5864    1.2956 C   0  0  0  0  0  0  0  0  0  0  0  0
    2.2133   -7.3915    1.6142 C   0  0  0  0  0  0  0  0  0  0  0  0
    1.3973   -6.5376    0.9927 N   0  0  0  0  0  0  0  0  0  0  0  0
    0.1948   -6.6889    1.6334 N   0  0  0  0  0  0  0  0  0  0  0  0
    0.2737   -7.5736    2.5712 N   0  0  0  0  0  0  0  0  0  0  0  0
    1.5472   -8.0422    2.5968 N   0  0  0  0  0  0  0  0  0  0  0  0
    1.9177   -9.0736    3.5692 C   0  0  0  0  0  0  0  0  0  0  0  0
    1.1687  -10.3992    3.3031 C   0  0  0  0  0  0  0  0  0  0  0  0
    1.0510  -11.0574    4.6696 C   0  0  0  0  0  0  0  0  0  0  0  0
    0.8719   -9.8885    5.6402 C   0  0  0  0  0  0  0  0  0  0  0  0
    1.5900   -8.6812    5.0248 C   0  0  0  0  0  0  0  0  0  0  0  0
    4.4707   -6.3390    1.1680 C   0  0  0  0  0  0  0  0  0  0  0  0
    3.9860   -5.1284    0.8190 N   0  0  0  0  0  0  0  0  0  0  0  0
    5.0799   -4.2724    0.7134 N   0  0  0  0  0  0  0  0  0  0  0  0
    6.1030   -5.0470    1.0410 C   0  0  0  0  0  0  0  0  0  0  0  0
    5.8103   -6.3088    1.3285 N   0  0  0  0  0  0  0  0  0  0  0  0
    6.9406   -7.1338    1.6721 C   0  0  0  0  0  0  0  0  0  0  0  0
    8.0955   -6.2955    1.0732 C   0  0  0  0  0  0  0  0  0  0  0  0
    7.5657   -4.8430    1.0892 C   0  0  0  0  0  0  0  0  0  0  0  0
    3.8304  -10.5643    0.8694 H   0  0  0  0  0  0  0  0  0  0  0  0
    2.9944   -9.2558    3.5483 H   0  0  0  0  0  0  0  0  0  0  0  0
    0.1608  -10.2230    2.9201 H   0  0  0  0  0  0  0  0  0  0  0  0
    1.6749  -11.0461    2.5845 H   0  0  0  0  0  0  0  0  0  0  0  0
    0.2278  -11.7711    4.7117 H   0  0  0  0  0  0  0  0  0  0  0  0
    1.9678  -11.6004    4.9030 H   0  0  0  0  0  0  0  0  0  0  0  0
   -0.1894   -9.6601    5.7200 H   0  0  0  0  0  0  0  0  0  0  0  0
    1.2403  -10.1290    6.6372 H   0  0  0  0  0  0  0  0  0  0  0  0
    2.5169   -8.4557    5.5564 H   0  0  0  0  0  0  0  0  0  0  0  0
    0.9582   -7.7962    5.1158 H   0  0  0  0  0  0  0  0  0  0  0  0
    7.0224   -7.1643    2.7620 H   0  0  0  0  0  0  0  0  0  0  0  0
    6.8678   -8.1438    1.2734 H   0  0  0  0  0  0  0  0  0  0  0  0
    9.0545   -6.4207    1.5631 H   0  0  0  0  0  0  0  0  0  0  0  0
    8.2242   -6.5831    0.0279 H   0  0  0  0  0  0  0  0  0  0  0  0
    7.9159   -4.2185    0.2652 H   0  0  0  0  0  0  0  0  0  0  0  0
    7.8073   -4.3785    2.0424 H   0  0  0  0  0  0  0  0  0  0  0  0
  1  2  1  0
  1 22  1  0
  2  3  2  3
  3  4  1  0
  3 14  1  0
  4  8  1  0
  4  5  2  0
  5  6  1  0
  6  7  2  0
  7  8  1  0
  8  9  1  0
  9 13  1  0
  9 10  1  0
  9 23  1  0
 10 11  1  0
 10 24  1  0
 10 25  1  0
 11 12  1  0
 11 26  1  0
 11 27  1  0
 12 13  1  0
 12 28  1  0
 12 29  1  0
 13 30  1  0
 13 31  1  0
 14 18  1  0
 14 15  2  0
 15 16  1  0
 16 17  2  0
 17 21  1  0
 17 18  1  0
 18 19  1  0
 19 20  1  0
 19 32  1  0
 19 33  1  0
 20 21  1  0
 20 34  1  0
 20 35  1  0
 21 36  1  0
 21 37  1  0
M  END
>  <i_m_ct_stereo_status>  (21) 
1

>  <s_m_source_file>  (21) 
/var/tmp/pbs.5076255.sched01/tmpi0kgw23q/0rwfjwt46.sdf

>  <i_m_source_file_index>  (21) 
17

>  <i_lp_mmshare_version>  (21) 
48012

>  <i_f3d_flags>  (21) 
0

>  <s_epik_input>  (21) 
W0NIMl0xW0NIMl1bQ0gyXW4oYzEyKWMobm4yKUMoPU5cW09IXSlcYzNubm5uM1tDSF00W0NIMl1bQ0gyXVtDSDJdW0NIMl00

>  <s_epik_cmdline>  (21) 
J2VwaWtfcHl0aG9uJywgJy1waHQnLCAnMi4wJywgJy1waCcsICc3LjAnLCAnLXRuJywgJzgnLCAnLW1hJywgJzIwMCcsICctaW1hZScsICc8aW5maWxlLm1hZT4nLCAnLW9tYWUnLCAnPG91dGZpbGUubWFlPic=

>  <r_epik_Ionization_Penalty>  (21) 
0.0909725

>  <r_epik_Ionization_Penalty_Charging>  (21) 
0

>  <r_epik_Ionization_Penalty_Neutral>  (21) 
0.0909725

>  <r_epik_State_Penalty>  (21) 
0.0813223

>  <r_epik_Charging_Adjusted_Penalty>  (21) 
0.0813223

>  <i_epik_Tot_Q>  (21) 
0

>  <i_epik_Tot_abs_Q>  (21) 
0

>  <s_epik_Chemistry_Notes>  (21) 
This compound has an imine and may undergo hydrolysis.

>  <s_lp_Force_Field>  (21) 
OPLS3e

>  <r_lp_Energy>  (21) 
40.7375

>  <b_lp_Chiralities_Consistent>  (21) 
1

>  <s_lp_Variant>  (21) 
10:0-1

>  <s_i_glide_gridfile>  (21) 
pfpi4k_grid

>  <i_i_glide_lignum>  (21) 
17

>  <i_i_glide_rotatable_bonds>  (21) 
4

>  <r_i_docking_score>  (21) 
-3.92767

>  <r_i_glide_ligand_efficiency>  (21) 
-0.187032

>  <r_i_glide_ligand_efficiency_sa>  (21) 
-0.516007

>  <r_i_glide_ligand_efficiency_ln>  (21) 
-0.971109

>  <r_i_glide_gscore>  (21) 
-3.92767

>  <r_i_glide_lipo>  (21) 
-0.343679

>  <r_i_glide_hbond>  (21) 
-0.16

>  <r_i_glide_metal>  (21) 
-0

>  <r_i_glide_rewards>  (21) 
-1.88837

>  <r_i_glide_evdw>  (21) 
-26.2908

>  <r_i_glide_ecoul>  (21) 
-4.89714

>  <r_i_glide_erotb>  (21) 
0.87537

>  <r_i_glide_esite>  (21) 
-0.36188

>  <r_i_glide_emodel>  (21) 
-39.1037

>  <r_i_glide_energy>  (21) 
-31.1879

>  <r_i_glide_einternal>  (21) 
1.05838

>  <r_i_glide_intrahb_reward>  (21) 
-0

>  <i_i_glide_confnum>  (21) 
3

>  <i_i_glide_posenum>  (21) 
17

>  <r_i_glide_eff_state_penalty>  (21) 
0

>  <ligand_id>  (21) 
10

>  <original_smiles>  (21) 
ON=C(c1nnnn1C1CCCC1)c1nnc2n1CCC2

>  <smiles>  (21) 
[H]ON=C(c1nnnn1C1([H])C([H])([H])C([H])([H])C([H])([H])C1([H])[H])c1nnc2n1C([H])([H])C([H])([H])C2([H])[H]

$$$$
10:0:1
     RDKit          3D

 37 40  0  0  1  0  0  0  0  0999 V2000
    1.6358  -10.2002    3.0886 O   0  0  0  0  0  0  0  0  0  0  0  0
    2.2719   -9.1284    2.3879 N   0  0  0  0  0  0  0  0  0  0  0  0
    1.4710   -8.1469    2.2713 C   0  0  0  0  0  0  0  0  0  0  0  0
    0.1204   -8.0814    2.8602 C   0  0  0  0  0  0  0  0  0  0  0  0
   -1.0034   -7.8972    2.1740 N   0  0  0  0  0  0  0  0  0  0  0  0
   -1.9677   -7.8211    3.1498 N   0  0  0  0  0  0  0  0  0  0  0  0
   -1.4472   -7.9183    4.3321 N   0  0  0  0  0  0  0  0  0  0  0  0
   -0.1185   -8.1123    4.1826 N   0  0  0  0  0  0  0  0  0  0  0  0
    0.7345   -8.2506    5.3772 C   0  0  0  0  0  0  0  0  0  0  0  0
    0.2532   -9.3763    6.3184 C   0  0  0  0  0  0  0  0  0  0  0  0
    0.6793   -8.9287    7.7137 C   0  0  0  0  0  0  0  0  0  0  0  0
    0.5369   -7.4064    7.6927 C   0  0  0  0  0  0  0  0  0  0  0  0
    0.7524   -6.9676    6.2353 C   0  0  0  0  0  0  0  0  0  0  0  0
    1.8876   -6.9602    1.4883 C   0  0  0  0  0  0  0  0  0  0  0  0
    1.0642   -6.2485    0.7039 N   0  0  0  0  0  0  0  0  0  0  0  0
    1.8624   -5.2992    0.0787 N   0  0  0  0  0  0  0  0  0  0  0  0
    3.0743   -5.5138    0.5846 C   0  0  0  0  0  0  0  0  0  0  0  0
    3.1585   -6.5094    1.4443 N   0  0  0  0  0  0  0  0  0  0  0  0
    4.4729   -6.7495    1.9857 C   0  0  0  0  0  0  0  0  0  0  0  0
    5.3460   -6.0232    0.9333 C   0  0  0  0  0  0  0  0  0  0  0  0
    4.4133   -4.9329    0.3438 C   0  0  0  0  0  0  0  0  0  0  0  0
    2.2498  -10.9107    2.9706 H   0  0  0  0  0  0  0  0  0  0  0  0
    1.7638   -8.4680    5.0801 H   0  0  0  0  0  0  0  0  0  0  0  0
   -0.8354   -9.4747    6.3278 H   0  0  0  0  0  0  0  0  0  0  0  0
    0.6653  -10.3516    6.0429 H   0  0  0  0  0  0  0  0  0  0  0  0
    0.0753   -9.3960    8.4902 H   0  0  0  0  0  0  0  0  0  0  0  0
    1.7189   -9.2067    7.8869 H   0  0  0  0  0  0  0  0  0  0  0  0
   -0.4722   -7.1309    7.9990 H   0  0  0  0  0  0  0  0  0  0  0  0
    1.2235   -6.9156    8.3801 H   0  0  0  0  0  0  0  0  0  0  0  0
    1.7102   -6.4586    6.1123 H   0  0  0  0  0  0  0  0  0  0  0  0
   -0.0169   -6.2456    5.9525 H   0  0  0  0  0  0  0  0  0  0  0  0
    4.5447   -6.2417    2.9530 H   0  0  0  0  0  0  0  0  0  0  0  0
    4.6877   -7.8091    2.1031 H   0  0  0  0  0  0  0  0  0  0  0  0
    6.3131   -5.6661    1.2816 H   0  0  0  0  0  0  0  0  0  0  0  0
    5.5416   -6.7163    0.1191 H   0  0  0  0  0  0  0  0  0  0  0  0
    4.5960   -4.7236   -0.7135 H   0  0  0  0  0  0  0  0  0  0  0  0
    4.4998   -4.0162    0.9268 H   0  0  0  0  0  0  0  0  0  0  0  0
  1  2  1  0
  1 22  1  0
  2  3  2  3
  3  4  1  0
  3 14  1  0
  4  8  1  0
  4  5  2  0
  5  6  1  0
  6  7  2  0
  7  8  1  0
  8  9  1  0
  9 13  1  0
  9 10  1  0
  9 23  1  0
 10 11  1  0
 10 24  1  0
 10 25  1  0
 11 12  1  0
 11 26  1  0
 11 27  1  0
 12 13  1  0
 12 28  1  0
 12 29  1  0
 13 30  1  0
 13 31  1  0
 14 18  1  0
 14 15  2  0
 15 16  1  0
 16 17  2  0
 17 21  1  0
 17 18  1  0
 18 19  1  0
 19 20  1  0
 19 32  1  0
 19 33  1  0
 20 21  1  0
 20 34  1  0
 20 35  1  0
 21 36  1  0
 21 37  1  0
M  END
>  <i_m_ct_stereo_status>  (22) 
1

>  <s_m_source_file>  (22) 
/var/tmp/pbs.5076255.sched01/tmpi0kgw23q/0rwfjwt46.sdf

>  <i_m_source_file_index>  (22) 
17

>  <i_lp_mmshare_version>  (22) 
48012

>  <i_f3d_flags>  (22) 
0

>  <s_epik_input>  (22) 
W0NIMl0xW0NIMl1bQ0gyXW4oYzEyKWMobm4yKUMoPU5cW09IXSlcYzNubm5uM1tDSF00W0NIMl1bQ0gyXVtDSDJdW0NIMl00

>  <s_epik_cmdline>  (22) 
J2VwaWtfcHl0aG9uJywgJy1waHQnLCAnMi4wJywgJy1waCcsICc3LjAnLCAnLXRuJywgJzgnLCAnLW1hJywgJzIwMCcsICctaW1hZScsICc8aW5maWxlLm1hZT4nLCAnLW9tYWUnLCAnPG91dGZpbGUubWFlPic=

>  <r_epik_Ionization_Penalty>  (22) 
0.0909725

>  <r_epik_Ionization_Penalty_Charging>  (22) 
0

>  <r_epik_Ionization_Penalty_Neutral>  (22) 
0.0909725

>  <r_epik_State_Penalty>  (22) 
0.0813223

>  <r_epik_Charging_Adjusted_Penalty>  (22) 
0.0813223

>  <i_epik_Tot_Q>  (22) 
0

>  <i_epik_Tot_abs_Q>  (22) 
0

>  <s_epik_Chemistry_Notes>  (22) 
This compound has an imine and may undergo hydrolysis.

>  <s_lp_Force_Field>  (22) 
OPLS3e

>  <r_lp_Energy>  (22) 
40.7375

>  <b_lp_Chiralities_Consistent>  (22) 
1

>  <s_lp_Variant>  (22) 
10:0-1

>  <s_i_glide_gridfile>  (22) 
pfpi4k_grid

>  <i_i_glide_lignum>  (22) 
17

>  <i_i_glide_rotatable_bonds>  (22) 
4

>  <r_i_docking_score>  (22) 
-3.38005

>  <r_i_glide_ligand_efficiency>  (22) 
-0.160955

>  <r_i_glide_ligand_efficiency_sa>  (22) 
-0.444062

>  <r_i_glide_ligand_efficiency_ln>  (22) 
-0.835711

>  <r_i_glide_gscore>  (22) 
-3.38005

>  <r_i_glide_lipo>  (22) 
-0.171439

>  <r_i_glide_hbond>  (22) 
0

>  <r_i_glide_metal>  (22) 
-0

>  <r_i_glide_rewards>  (22) 
-1.51636

>  <r_i_glide_evdw>  (22) 
-26.9098

>  <r_i_glide_ecoul>  (22) 
-4.3691

>  <r_i_glide_erotb>  (22) 
0.87537

>  <r_i_glide_esite>  (22) 
-0.566768

>  <r_i_glide_emodel>  (22) 
-37.5477

>  <r_i_glide_energy>  (22) 
-31.2789

>  <r_i_glide_einternal>  (22) 
1.67004

>  <r_i_glide_intrahb_reward>  (22) 
-0

>  <i_i_glide_confnum>  (22) 
3

>  <i_i_glide_posenum>  (22) 
22

>  <r_i_glide_eff_state_penalty>  (22) 
0

>  <ligand_id>  (22) 
10

>  <original_smiles>  (22) 
ON=C(c1nnnn1C1CCCC1)c1nnc2n1CCC2

>  <smiles>  (22) 
[H]ON=C(c1nnnn1C1([H])C([H])([H])C([H])([H])C([H])([H])C1([H])[H])c1nnc2n1C([H])([H])C([H])([H])C2([H])[H]

$$$$
10:0:2
     RDKit          3D

 37 40  0  0  1  0  0  0  0  0999 V2000
    2.9973   -4.0617    0.4805 O   0  0  0  0  0  0  0  0  0  0  0  0
    2.9182   -2.9475    1.3926 N   0  0  0  0  0  0  0  0  0  0  0  0
    3.9572   -2.2066    1.3743 C   0  0  0  0  0  0  0  0  0  0  0  0
    5.0943   -2.3498    0.4559 C   0  0  0  0  0  0  0  0  0  0  0  0
    6.3409   -2.6345    0.8074 N   0  0  0  0  0  0  0  0  0  0  0  0
    7.0109   -2.6753   -0.3928 N   0  0  0  0  0  0  0  0  0  0  0  0
    6.2111   -2.4277   -1.3859 N   0  0  0  0  0  0  0  0  0  0  0  0
    4.9796   -2.1925   -0.8730 N   0  0  0  0  0  0  0  0  0  0  0  0
    3.8515   -1.8910   -1.7632 C   0  0  0  0  0  0  0  0  0  0  0  0
    3.4511   -3.1083   -2.6131 C   0  0  0  0  0  0  0  0  0  0  0  0
    2.8959   -2.5358   -3.9070 C   0  0  0  0  0  0  0  0  0  0  0  0
    3.7265   -1.2816   -4.1577 C   0  0  0  0  0  0  0  0  0  0  0  0
    4.1662   -0.7704   -2.7791 C   0  0  0  0  0  0  0  0  0  0  0  0
    4.0704   -1.1119    2.3592 C   0  0  0  0  0  0  0  0  0  0  0  0
    5.1100   -0.9430    3.2038 N   0  0  0  0  0  0  0  0  0  0  0  0
    4.7747    0.1353    4.0164 N   0  0  0  0  0  0  0  0  0  0  0  0
    3.5922    0.5231    3.5444 C   0  0  0  0  0  0  0  0  0  0  0  0
    3.1052   -0.1910    2.5442 N   0  0  0  0  0  0  0  0  0  0  0  0
    1.8166    0.2353    2.0557 C   0  0  0  0  0  0  0  0  0  0  0  0
    1.3233    1.0879    3.2536 C   0  0  0  0  0  0  0  0  0  0  0  0
    2.6279    1.5721    3.9389 C   0  0  0  0  0  0  0  0  0  0  0  0
    3.7590   -3.8819   -0.0486 H   0  0  0  0  0  0  0  0  0  0  0  0
    2.9893   -1.5672   -1.1779 H   0  0  0  0  0  0  0  0  0  0  0  0
    4.3181   -3.7247   -2.8631 H   0  0  0  0  0  0  0  0  0  0  0  0
    2.7241   -3.7568   -2.1189 H   0  0  0  0  0  0  0  0  0  0  0  0
    2.9554   -3.2628   -4.7152 H   0  0  0  0  0  0  0  0  0  0  0  0
    1.8487   -2.2669   -3.7778 H   0  0  0  0  0  0  0  0  0  0  0  0
    4.6145   -1.5428   -4.7264 H   0  0  0  0  0  0  0  0  0  0  0  0
    3.1841   -0.5268   -4.7257 H   0  0  0  0  0  0  0  0  0  0  0  0
    3.6277    0.1394   -2.5335 H   0  0  0  0  0  0  0  0  0  0  0  0
    5.2180   -0.4893   -2.7929 H   0  0  0  0  0  0  0  0  0  0  0  0
    1.9755    0.8744    1.1844 H   0  0  0  0  0  0  0  0  0  0  0  0
    1.1767   -0.6021    1.7887 H   0  0  0  0  0  0  0  0  0  0  0  0
    0.6155    1.8803    3.0145 H   0  0  0  0  0  0  0  0  0  0  0  0
    0.8246    0.4229    3.9608 H   0  0  0  0  0  0  0  0  0  0  0  0
    2.5584    1.6750    5.0251 H   0  0  0  0  0  0  0  0  0  0  0  0
    2.9611    2.5098    3.4947 H   0  0  0  0  0  0  0  0  0  0  0  0
  1  2  1  0
  1 22  1  0
  2  3  2  3
  3  4  1  0
  3 14  1  0
  4  8  1  0
  4  5  2  0
  5  6  1  0
  6  7  2  0
  7  8  1  0
  8  9  1  0
  9 13  1  0
  9 10  1  0
  9 23  1  0
 10 11  1  0
 10 24  1  0
 10 25  1  0
 11 12  1  0
 11 26  1  0
 11 27  1  0
 12 13  1  0
 12 28  1  0
 12 29  1  0
 13 30  1  0
 13 31  1  0
 14 18  1  0
 14 15  2  0
 15 16  1  0
 16 17  2  0
 17 21  1  0
 17 18  1  0
 18 19  1  0
 19 20  1  0
 19 32  1  0
 19 33  1  0
 20 21  1  0
 20 34  1  0
 20 35  1  0
 21 36  1  0
 21 37  1  0
M  END
>  <i_m_ct_stereo_status>  (23) 
1

>  <s_m_source_file>  (23) 
/var/tmp/pbs.5076255.sched01/tmpi0kgw23q/0rwfjwt46.sdf

>  <i_m_source_file_index>  (23) 
17

>  <i_lp_mmshare_version>  (23) 
48012

>  <i_f3d_flags>  (23) 
0

>  <s_epik_input>  (23) 
W0NIMl0xW0NIMl1bQ0gyXW4oYzEyKWMobm4yKUMoPU5cW09IXSlcYzNubm5uM1tDSF00W0NIMl1bQ0gyXVtDSDJdW0NIMl00

>  <s_epik_cmdline>  (23) 
J2VwaWtfcHl0aG9uJywgJy1waHQnLCAnMi4wJywgJy1waCcsICc3LjAnLCAnLXRuJywgJzgnLCAnLW1hJywgJzIwMCcsICctaW1hZScsICc8aW5maWxlLm1hZT4nLCAnLW9tYWUnLCAnPG91dGZpbGUubWFlPic=

>  <r_epik_Ionization_Penalty>  (23) 
0.0909725

>  <r_epik_Ionization_Penalty_Charging>  (23) 
0

>  <r_epik_Ionization_Penalty_Neutral>  (23) 
0.0909725

>  <r_epik_State_Penalty>  (23) 
0.0813223

>  <r_epik_Charging_Adjusted_Penalty>  (23) 
0.0813223

>  <i_epik_Tot_Q>  (23) 
0

>  <i_epik_Tot_abs_Q>  (23) 
0

>  <s_epik_Chemistry_Notes>  (23) 
This compound has an imine and may undergo hydrolysis.

>  <s_lp_Force_Field>  (23) 
OPLS3e

>  <r_lp_Energy>  (23) 
40.7375

>  <b_lp_Chiralities_Consistent>  (23) 
1

>  <s_lp_Variant>  (23) 
10:0-1

>  <s_i_glide_gridfile>  (23) 
pfpi4k_grid

>  <i_i_glide_lignum>  (23) 
17

>  <i_i_glide_rotatable_bonds>  (23) 
4

>  <r_i_docking_score>  (23) 
-2.88409

>  <r_i_glide_ligand_efficiency>  (23) 
-0.137337

>  <r_i_glide_ligand_efficiency_sa>  (23) 
-0.378904

>  <r_i_glide_ligand_efficiency_ln>  (23) 
-0.713085

>  <r_i_glide_gscore>  (23) 
-2.88409

>  <r_i_glide_lipo>  (23) 
-0.22588

>  <r_i_glide_hbond>  (23) 
0

>  <r_i_glide_metal>  (23) 
-0

>  <r_i_glide_rewards>  (23) 
-1.49525

>  <r_i_glide_evdw>  (23) 
-30.1805

>  <r_i_glide_ecoul>  (23) 
-2.88706

>  <r_i_glide_erotb>  (23) 
0.87537

>  <r_i_glide_esite>  (23) 
-0.0962426

>  <r_i_glide_emodel>  (23) 
-37.7446

>  <r_i_glide_energy>  (23) 
-33.0675

>  <r_i_glide_einternal>  (23) 
2.86757

>  <r_i_glide_intrahb_reward>  (23) 
-0

>  <i_i_glide_confnum>  (23) 
1

>  <i_i_glide_posenum>  (23) 
35

>  <r_i_glide_eff_state_penalty>  (23) 
0

>  <ligand_id>  (23) 
10

>  <original_smiles>  (23) 
ON=C(c1nnnn1C1CCCC1)c1nnc2n1CCC2

>  <smiles>  (23) 
[H]ON=C(c1nnnn1C1([H])C([H])([H])C([H])([H])C([H])([H])C1([H])[H])c1nnc2n1C([H])([H])C([H])([H])C2([H])[H]

$$$$
10:1:0
     RDKit          3D

 37 40  0  0  1  0  0  0  0  0999 V2000
   -1.5161    4.9832    2.8790 O   0  0  0  0  0  0  0  0  0  0  0  0
   -1.8662    3.9194    3.7727 N   0  0  0  0  0  0  0  0  0  0  0  0
   -0.8822    3.1464    4.0178 C   0  0  0  0  0  0  0  0  0  0  0  0
   -1.1887    1.9016    4.7492 C   0  0  0  0  0  0  0  0  0  0  0  0
   -1.3380    0.7051    4.1862 N   0  0  0  0  0  0  0  0  0  0  0  0
   -1.7093   -0.1103    5.2386 N   0  0  0  0  0  0  0  0  0  0  0  0
   -1.7806    0.5566    6.3511 N   0  0  0  0  0  0  0  0  0  0  0  0
   -1.4387    1.8448    6.0770 N   0  0  0  0  0  0  0  0  0  0  0  0
   -1.4484    2.8294    7.1681 C   0  0  0  0  0  0  0  0  0  0  0  0
   -0.6093    2.4138    8.4036 C   0  0  0  0  0  0  0  0  0  0  0  0
   -1.4609    2.6889    9.6564 C   0  0  0  0  0  0  0  0  0  0  0  0
   -2.6536    3.5120    9.1819 C   0  0  0  0  0  0  0  0  0  0  0  0
   -2.8632    3.0765    7.7260 C   0  0  0  0  0  0  0  0  0  0  0  0
    0.5371    3.3808    3.6776 C   0  0  0  0  0  0  0  0  0  0  0  0
    1.3976    2.4150    3.2997 N   0  0  0  0  0  0  0  0  0  0  0  0
    2.6179    3.0550    3.0917 N   0  0  0  0  0  0  0  0  0  0  0  0
    2.3676    4.3304    3.3824 C   0  0  0  0  0  0  0  0  0  0  0  0
    1.1301    4.5933    3.7440 N   0  0  0  0  0  0  0  0  0  0  0  0
    0.8755    5.9787    4.0665 C   0  0  0  0  0  0  0  0  0  0  0  0
    2.3064    6.4892    4.3413 C   0  0  0  0  0  0  0  0  0  0  0  0
    3.2005    5.5520    3.4880 C   0  0  0  0  0  0  0  0  0  0  0  0
   -0.8841    4.5941    2.2799 H   0  0  0  0  0  0  0  0  0  0  0  0
   -1.0749    3.7921    6.8059 H   0  0  0  0  0  0  0  0  0  0  0  0
   -0.2930    1.3709    8.4049 H   0  0  0  0  0  0  0  0  0  0  0  0
    0.3027    3.0068    8.4273 H   0  0  0  0  0  0  0  0  0  0  0  0
   -1.8068    1.7483   10.0881 H   0  0  0  0  0  0  0  0  0  0  0  0
   -0.9016    3.1995   10.4391 H   0  0  0  0  0  0  0  0  0  0  0  0
   -3.5370    3.3674    9.8083 H   0  0  0  0  0  0  0  0  0  0  0  0
   -2.4030    4.5718    9.2049 H   0  0  0  0  0  0  0  0  0  0  0  0
   -3.3848    3.8225    7.1251 H   0  0  0  0  0  0  0  0  0  0  0  0
   -3.4694    2.1672    7.7277 H   0  0  0  0  0  0  0  0  0  0  0  0
    0.5010    6.4761    3.1711 H   0  0  0  0  0  0  0  0  0  0  0  0
    0.1738    6.0836    4.8891 H   0  0  0  0  0  0  0  0  0  0  0  0
    2.4657    7.5612    4.1859 H   0  0  0  0  0  0  0  0  0  0  0  0
    2.5281    6.2771    5.3880 H   0  0  0  0  0  0  0  0  0  0  0  0
    4.1710    5.3397    3.9384 H   0  0  0  0  0  0  0  0  0  0  0  0
    3.3321    5.9597    2.4867 H   0  0  0  0  0  0  0  0  0  0  0  0
  1  2  1  0
  1 22  1  0
  2  3  2  3
  3  4  1  0
  3 14  1  0
  4  8  1  0
  4  5  2  0
  5  6  1  0
  6  7  2  0
  7  8  1  0
  8  9  1  0
  9 13  1  0
  9 10  1  0
  9 23  1  0
 10 11  1  0
 10 24  1  0
 10 25  1  0
 11 12  1  0
 11 26  1  0
 11 27  1  0
 12 13  1  0
 12 28  1  0
 12 29  1  0
 13 30  1  0
 13 31  1  0
 14 18  1  0
 14 15  2  0
 15 16  1  0
 16 17  2  0
 17 21  1  0
 17 18  1  0
 18 19  1  0
 19 20  1  0
 19 32  1  0
 19 33  1  0
 20 21  1  0
 20 34  1  0
 20 35  1  0
 21 36  1  0
 21 37  1  0
M  END
>  <i_m_ct_stereo_status>  (24) 
1

>  <s_m_source_file>  (24) 
/var/tmp/pbs.5076255.sched01/tmpi0kgw23q/0rwfjwt46.sdf

>  <i_m_source_file_index>  (24) 
18

>  <i_lp_mmshare_version>  (24) 
48012

>  <i_f3d_flags>  (24) 
0

>  <s_epik_input>  (24) 
W0NIMl0xW0NIMl1bQ0gyXW4oYzEyKWMobm4yKUMoPU5cW09IXSlcYzNubm5uM1tDSF00W0NIMl1bQ0gyXVtDSDJdW0NIMl00

>  <s_epik_cmdline>  (24) 
J2VwaWtfcHl0aG9uJywgJy1waHQnLCAnMi4wJywgJy1waCcsICc3LjAnLCAnLXRuJywgJzgnLCAnLW1hJywgJzIwMCcsICctaW1hZScsICc8aW5maWxlLm1hZT4nLCAnLW9tYWUnLCAnPG91dGZpbGUubWFlPic=

>  <r_epik_Ionization_Penalty>  (24) 
0.0909725

>  <r_epik_Ionization_Penalty_Charging>  (24) 
0

>  <r_epik_Ionization_Penalty_Neutral>  (24) 
0.0909725

>  <r_epik_State_Penalty>  (24) 
0.0813223

>  <r_epik_Charging_Adjusted_Penalty>  (24) 
0.0813223

>  <i_epik_Tot_Q>  (24) 
0

>  <i_epik_Tot_abs_Q>  (24) 
0

>  <s_epik_Chemistry_Notes>  (24) 
This compound has an imine and may undergo hydrolysis.

>  <s_lp_Force_Field>  (24) 
OPLS3e

>  <r_lp_Energy>  (24) 
43.4518

>  <b_lp_Chiralities_Consistent>  (24) 
1

>  <s_lp_Variant>  (24) 
10:0-2

>  <s_i_glide_gridfile>  (24) 
pfpi4k_grid

>  <i_i_glide_lignum>  (24) 
18

>  <i_i_glide_rotatable_bonds>  (24) 
4

>  <r_i_docking_score>  (24) 
-3.96465

>  <r_i_glide_ligand_efficiency>  (24) 
-0.188793

>  <r_i_glide_ligand_efficiency_sa>  (24) 
-0.520865

>  <r_i_glide_ligand_efficiency_ln>  (24) 
-0.980252

>  <r_i_glide_gscore>  (24) 
-3.96465

>  <r_i_glide_lipo>  (24) 
-0.289169

>  <r_i_glide_hbond>  (24) 
-0.16

>  <r_i_glide_metal>  (24) 
-0

>  <r_i_glide_rewards>  (24) 
-1.44335

>  <r_i_glide_evdw>  (24) 
-26.7774

>  <r_i_glide_ecoul>  (24) 
-6.08889

>  <r_i_glide_erotb>  (24) 
0.87537

>  <r_i_glide_esite>  (24) 
-0.695297

>  <r_i_glide_emodel>  (24) 
-39.5752

>  <r_i_glide_energy>  (24) 
-32.8663

>  <r_i_glide_einternal>  (24) 
4.51575

>  <r_i_glide_intrahb_reward>  (24) 
-0

>  <i_i_glide_confnum>  (24) 
2

>  <i_i_glide_posenum>  (24) 
32

>  <r_i_glide_eff_state_penalty>  (24) 
0

>  <ligand_id>  (24) 
10

>  <original_smiles>  (24) 
ON=C(c1nnnn1C1CCCC1)c1nnc2n1CCC2

>  <smiles>  (24) 
[H]ON=C(c1nnnn1C1([H])C([H])([H])C([H])([H])C([H])([H])C1([H])[H])c1nnc2n1C([H])([H])C([H])([H])C2([H])[H]

$$$$
10:1:1
     RDKit          3D

 37 40  0  0  1  0  0  0  0  0999 V2000
    3.9080   -8.2796    0.8668 O   0  0  0  0  0  0  0  0  0  0  0  0
    4.1829   -6.9292    1.2114 N   0  0  0  0  0  0  0  0  0  0  0  0
    3.1131   -6.2954    1.5019 C   0  0  0  0  0  0  0  0  0  0  0  0
    3.2117   -4.8329    1.7417 C   0  0  0  0  0  0  0  0  0  0  0  0
    2.5321   -4.1812    2.6834 N   0  0  0  0  0  0  0  0  0  0  0  0
    2.9743   -2.8790    2.5641 N   0  0  0  0  0  0  0  0  0  0  0  0
    3.8556   -2.7624    1.6223 N   0  0  0  0  0  0  0  0  0  0  0  0
    4.0371   -3.9953    1.0699 N   0  0  0  0  0  0  0  0  0  0  0  0
    4.9823   -4.1414   -0.0555 C   0  0  0  0  0  0  0  0  0  0  0  0
    6.4247   -3.6790    0.2778 C   0  0  0  0  0  0  0  0  0  0  0  0
    6.9073   -2.8412   -0.9172 C   0  0  0  0  0  0  0  0  0  0  0  0
    5.8790   -3.0575   -2.0284 C   0  0  0  0  0  0  0  0  0  0  0  0
    4.5657   -3.3322   -1.2978 C   0  0  0  0  0  0  0  0  0  0  0  0
    1.7513   -6.8817    1.6576 C   0  0  0  0  0  0  0  0  0  0  0  0
    0.6092   -6.2703    1.2899 N   0  0  0  0  0  0  0  0  0  0  0  0
   -0.4305   -7.0950    1.7159 N   0  0  0  0  0  0  0  0  0  0  0  0
    0.1881   -8.1460    2.2483 C   0  0  0  0  0  0  0  0  0  0  0  0
    1.5046   -8.0826    2.2491 N   0  0  0  0  0  0  0  0  0  0  0  0
    2.1715   -9.2171    2.8464 C   0  0  0  0  0  0  0  0  0  0  0  0
    1.0236   -9.8328    3.6716 C   0  0  0  0  0  0  0  0  0  0  0  0
   -0.2606   -9.3999    2.9175 C   0  0  0  0  0  0  0  0  0  0  0  0
    4.7645   -8.6777    0.8436 H   0  0  0  0  0  0  0  0  0  0  0  0
    5.0482   -5.1784   -0.3910 H   0  0  0  0  0  0  0  0  0  0  0  0
    6.5099   -3.0950    1.1963 H   0  0  0  0  0  0  0  0  0  0  0  0
    7.0653   -4.5509    0.4137 H   0  0  0  0  0  0  0  0  0  0  0  0
    6.9220   -1.7913   -0.6271 H   0  0  0  0  0  0  0  0  0  0  0  0
    7.9170   -3.1014   -1.2373 H   0  0  0  0  0  0  0  0  0  0  0  0
    5.8054   -2.2142   -2.7114 H   0  0  0  0  0  0  0  0  0  0  0  0
    6.1564   -3.9278   -2.6210 H   0  0  0  0  0  0  0  0  0  0  0  0
    3.8423   -3.8684   -1.9170 H   0  0  0  0  0  0  0  0  0  0  0  0
    4.1169   -2.3771   -1.0268 H   0  0  0  0  0  0  0  0  0  0  0  0
    2.4429   -9.9056    2.0455 H   0  0  0  0  0  0  0  0  0  0  0  0
    3.0459   -8.9168    3.4134 H   0  0  0  0  0  0  0  0  0  0  0  0
    1.1098  -10.9018    3.8653 H   0  0  0  0  0  0  0  0  0  0  0  0
    1.0109   -9.3327    4.6417 H   0  0  0  0  0  0  0  0  0  0  0  0
   -1.1229   -9.2365    3.5627 H   0  0  0  0  0  0  0  0  0  0  0  0
   -0.5005  -10.1287    2.1448 H   0  0  0  0  0  0  0  0  0  0  0  0
  1  2  1  0
  1 22  1  0
  2  3  2  3
  3  4  1  0
  3 14  1  0
  4  8  1  0
  4  5  2  0
  5  6  1  0
  6  7  2  0
  7  8  1  0
  8  9  1  0
  9 13  1  0
  9 10  1  0
  9 23  1  0
 10 11  1  0
 10 24  1  0
 10 25  1  0
 11 12  1  0
 11 26  1  0
 11 27  1  0
 12 13  1  0
 12 28  1  0
 12 29  1  0
 13 30  1  0
 13 31  1  0
 14 18  1  0
 14 15  2  0
 15 16  1  0
 16 17  2  0
 17 21  1  0
 17 18  1  0
 18 19  1  0
 19 20  1  0
 19 32  1  0
 19 33  1  0
 20 21  1  0
 20 34  1  0
 20 35  1  0
 21 36  1  0
 21 37  1  0
M  END
>  <i_m_ct_stereo_status>  (25) 
1

>  <s_m_source_file>  (25) 
/var/tmp/pbs.5076255.sched01/tmpi0kgw23q/0rwfjwt46.sdf

>  <i_m_source_file_index>  (25) 
18

>  <i_lp_mmshare_version>  (25) 
48012

>  <i_f3d_flags>  (25) 
0

>  <s_epik_input>  (25) 
W0NIMl0xW0NIMl1bQ0gyXW4oYzEyKWMobm4yKUMoPU5cW09IXSlcYzNubm5uM1tDSF00W0NIMl1bQ0gyXVtDSDJdW0NIMl00

>  <s_epik_cmdline>  (25) 
J2VwaWtfcHl0aG9uJywgJy1waHQnLCAnMi4wJywgJy1waCcsICc3LjAnLCAnLXRuJywgJzgnLCAnLW1hJywgJzIwMCcsICctaW1hZScsICc8aW5maWxlLm1hZT4nLCAnLW9tYWUnLCAnPG91dGZpbGUubWFlPic=

>  <r_epik_Ionization_Penalty>  (25) 
0.0909725

>  <r_epik_Ionization_Penalty_Charging>  (25) 
0

>  <r_epik_Ionization_Penalty_Neutral>  (25) 
0.0909725

>  <r_epik_State_Penalty>  (25) 
0.0813223

>  <r_epik_Charging_Adjusted_Penalty>  (25) 
0.0813223

>  <i_epik_Tot_Q>  (25) 
0

>  <i_epik_Tot_abs_Q>  (25) 
0

>  <s_epik_Chemistry_Notes>  (25) 
This compound has an imine and may undergo hydrolysis.

>  <s_lp_Force_Field>  (25) 
OPLS3e

>  <r_lp_Energy>  (25) 
43.4518

>  <b_lp_Chiralities_Consistent>  (25) 
1

>  <s_lp_Variant>  (25) 
10:0-2

>  <s_i_glide_gridfile>  (25) 
pfpi4k_grid

>  <i_i_glide_lignum>  (25) 
18

>  <i_i_glide_rotatable_bonds>  (25) 
4

>  <r_i_docking_score>  (25) 
-3.3365

>  <r_i_glide_ligand_efficiency>  (25) 
-0.158881

>  <r_i_glide_ligand_efficiency_sa>  (25) 
-0.43834

>  <r_i_glide_ligand_efficiency_ln>  (25) 
-0.824942

>  <r_i_glide_gscore>  (25) 
-3.3365

>  <r_i_glide_lipo>  (25) 
-0.30221

>  <r_i_glide_hbond>  (25) 
0

>  <r_i_glide_metal>  (25) 
-0

>  <r_i_glide_rewards>  (25) 
-1.5277

>  <r_i_glide_evdw>  (25) 
-27.3777

>  <r_i_glide_ecoul>  (25) 
-4.56893

>  <r_i_glide_erotb>  (25) 
0.87537

>  <r_i_glide_esite>  (25) 
-0.32773

>  <r_i_glide_emodel>  (25) 
-38.5331

>  <r_i_glide_energy>  (25) 
-31.9467

>  <r_i_glide_einternal>  (25) 
1.4348

>  <r_i_glide_intrahb_reward>  (25) 
-0

>  <i_i_glide_confnum>  (25) 
2

>  <i_i_glide_posenum>  (25) 
3

>  <r_i_glide_eff_state_penalty>  (25) 
0

>  <ligand_id>  (25) 
10

>  <original_smiles>  (25) 
ON=C(c1nnnn1C1CCCC1)c1nnc2n1CCC2

>  <smiles>  (25) 
[H]ON=C(c1nnnn1C1([H])C([H])([H])C([H])([H])C([H])([H])C1([H])[H])c1nnc2n1C([H])([H])C([H])([H])C2([H])[H]

$$$$
10:1:2
     RDKit          3D

 37 40  0  0  1  0  0  0  0  0999 V2000
    3.3055    0.9063    1.9256 O   0  0  0  0  0  0  0  0  0  0  0  0
    3.4167   -0.3745    1.3045 N   0  0  0  0  0  0  0  0  0  0  0  0
    2.6078   -1.2185    1.8244 C   0  0  0  0  0  0  0  0  0  0  0  0
    2.6785   -2.6384    1.3736 C   0  0  0  0  0  0  0  0  0  0  0  0
    2.4613   -3.6944    2.1556 N   0  0  0  0  0  0  0  0  0  0  0  0
    2.7017   -4.7777    1.3489 N   0  0  0  0  0  0  0  0  0  0  0  0
    3.0486   -4.4045    0.1590 N   0  0  0  0  0  0  0  0  0  0  0  0
    3.0192   -3.0453    0.1292 N   0  0  0  0  0  0  0  0  0  0  0  0
    3.4081   -2.3581   -1.1179 C   0  0  0  0  0  0  0  0  0  0  0  0
    2.7003   -2.9069   -2.3832 C   0  0  0  0  0  0  0  0  0  0  0  0
    3.7757   -3.0559   -3.4632 C   0  0  0  0  0  0  0  0  0  0  0  0
    5.0108   -2.3371   -2.9250 C   0  0  0  0  0  0  0  0  0  0  0  0
    4.9150   -2.4594   -1.4070 C   0  0  0  0  0  0  0  0  0  0  0  0
    1.5654   -0.8979    2.8577 C   0  0  0  0  0  0  0  0  0  0  0  0
    1.2984   -1.6492    3.9517 N   0  0  0  0  0  0  0  0  0  0  0  0
    0.2359   -1.0357    4.6048 N   0  0  0  0  0  0  0  0  0  0  0  0
   -0.0131    0.0347    3.8583 C   0  0  0  0  0  0  0  0  0  0  0  0
    0.7505    0.1813    2.7912 N   0  0  0  0  0  0  0  0  0  0  0  0
    0.4527    1.3429    1.9953 C   0  0  0  0  0  0  0  0  0  0  0  0
   -0.9795    1.6673    2.4786 C   0  0  0  0  0  0  0  0  0  0  0  0
   -1.0347    1.1043    3.9183 C   0  0  0  0  0  0  0  0  0  0  0  0
    3.9829    1.4112    1.4953 H   0  0  0  0  0  0  0  0  0  0  0  0
    3.1395   -1.2995   -1.0656 H   0  0  0  0  0  0  0  0  0  0  0  0
    2.1822   -3.8543   -2.2411 H   0  0  0  0  0  0  0  0  0  0  0  0
    1.9343   -2.2028   -2.7020 H   0  0  0  0  0  0  0  0  0  0  0  0
    3.9972   -4.1133   -3.6072 H   0  0  0  0  0  0  0  0  0  0  0  0
    3.4464   -2.6620   -4.4232 H   0  0  0  0  0  0  0  0  0  0  0  0
    5.9340   -2.7591   -3.3208 H   0  0  0  0  0  0  0  0  0  0  0  0
    4.9665   -1.2844   -3.2046 H   0  0  0  0  0  0  0  0  0  0  0  0
    5.4977   -1.6977   -0.8829 H   0  0  0  0  0  0  0  0  0  0  0  0
    5.3084   -3.4340   -1.1145 H   0  0  0  0  0  0  0  0  0  0  0  0
    1.1269    2.1484    2.2985 H   0  0  0  0  0  0  0  0  0  0  0  0
    0.5545    1.1417    0.9322 H   0  0  0  0  0  0  0  0  0  0  0  0
   -1.2794    2.7101    2.3802 H   0  0  0  0  0  0  0  0  0  0  0  0
   -1.6676    1.0766    1.8697 H   0  0  0  0  0  0  0  0  0  0  0  0
   -2.0151    0.7157    4.2098 H   0  0  0  0  0  0  0  0  0  0  0  0
   -0.7003    1.8583    4.6345 H   0  0  0  0  0  0  0  0  0  0  0  0
  1  2  1  0
  1 22  1  0
  2  3  2  3
  3  4  1  0
  3 14  1  0
  4  8  1  0
  4  5  2  0
  5  6  1  0
  6  7  2  0
  7  8  1  0
  8  9  1  0
  9 13  1  0
  9 10  1  0
  9 23  1  0
 10 11  1  0
 10 24  1  0
 10 25  1  0
 11 12  1  0
 11 26  1  0
 11 27  1  0
 12 13  1  0
 12 28  1  0
 12 29  1  0
 13 30  1  0
 13 31  1  0
 14 18  1  0
 14 15  2  0
 15 16  1  0
 16 17  2  0
 17 21  1  0
 17 18  1  0
 18 19  1  0
 19 20  1  0
 19 32  1  0
 19 33  1  0
 20 21  1  0
 20 34  1  0
 20 35  1  0
 21 36  1  0
 21 37  1  0
M  END
>  <i_m_ct_stereo_status>  (26) 
1

>  <s_m_source_file>  (26) 
/var/tmp/pbs.5076255.sched01/tmpi0kgw23q/0rwfjwt46.sdf

>  <i_m_source_file_index>  (26) 
18

>  <i_lp_mmshare_version>  (26) 
48012

>  <i_f3d_flags>  (26) 
0

>  <s_epik_input>  (26) 
W0NIMl0xW0NIMl1bQ0gyXW4oYzEyKWMobm4yKUMoPU5cW09IXSlcYzNubm5uM1tDSF00W0NIMl1bQ0gyXVtDSDJdW0NIMl00

>  <s_epik_cmdline>  (26) 
J2VwaWtfcHl0aG9uJywgJy1waHQnLCAnMi4wJywgJy1waCcsICc3LjAnLCAnLXRuJywgJzgnLCAnLW1hJywgJzIwMCcsICctaW1hZScsICc8aW5maWxlLm1hZT4nLCAnLW9tYWUnLCAnPG91dGZpbGUubWFlPic=

>  <r_epik_Ionization_Penalty>  (26) 
0.0909725

>  <r_epik_Ionization_Penalty_Charging>  (26) 
0

>  <r_epik_Ionization_Penalty_Neutral>  (26) 
0.0909725

>  <r_epik_State_Penalty>  (26) 
0.0813223

>  <r_epik_Charging_Adjusted_Penalty>  (26) 
0.0813223

>  <i_epik_Tot_Q>  (26) 
0

>  <i_epik_Tot_abs_Q>  (26) 
0

>  <s_epik_Chemistry_Notes>  (26) 
This compound has an imine and may undergo hydrolysis.

>  <s_lp_Force_Field>  (26) 
OPLS3e

>  <r_lp_Energy>  (26) 
43.4518

>  <b_lp_Chiralities_Consistent>  (26) 
1

>  <s_lp_Variant>  (26) 
10:0-2

>  <s_i_glide_gridfile>  (26) 
pfpi4k_grid

>  <i_i_glide_lignum>  (26) 
18

>  <i_i_glide_rotatable_bonds>  (26) 
4

>  <r_i_docking_score>  (26) 
-3.3119

>  <r_i_glide_ligand_efficiency>  (26) 
-0.15771

>  <r_i_glide_ligand_efficiency_sa>  (26) 
-0.435109

>  <r_i_glide_ligand_efficiency_ln>  (26) 
-0.818861

>  <r_i_glide_gscore>  (26) 
-3.3119

>  <r_i_glide_lipo>  (26) 
-0.274152

>  <r_i_glide_hbond>  (26) 
-0.247193

>  <r_i_glide_metal>  (26) 
-0

>  <r_i_glide_rewards>  (26) 
-1.44335

>  <r_i_glide_evdw>  (26) 
-29.5788

>  <r_i_glide_ecoul>  (26) 
-3.34873

>  <r_i_glide_erotb>  (26) 
0.87537

>  <r_i_glide_esite>  (26) 
-0.241326

>  <r_i_glide_emodel>  (26) 
-39.553

>  <r_i_glide_energy>  (26) 
-32.9276

>  <r_i_glide_einternal>  (26) 
1.24814

>  <r_i_glide_intrahb_reward>  (26) 
-0

>  <i_i_glide_confnum>  (26) 
2

>  <i_i_glide_posenum>  (26) 
14

>  <r_i_glide_eff_state_penalty>  (26) 
0

>  <ligand_id>  (26) 
10

>  <original_smiles>  (26) 
ON=C(c1nnnn1C1CCCC1)c1nnc2n1CCC2

>  <smiles>  (26) 
[H]ON=C(c1nnnn1C1([H])C([H])([H])C([H])([H])C([H])([H])C1([H])[H])c1nnc2n1C([H])([H])C([H])([H])C2([H])[H]

$$$$
10:2:0
     RDKit          3D

 36 39  0  0  1  0  0  0  0  0999 V2000
    5.4149   -1.5148    2.3681 O   0  0  0  0  0  0  0  0  0  0  0  0
    4.8305   -2.7910    2.3994 N   0  0  0  0  0  0  0  0  0  0  0  0
    5.2236   -3.5691    1.4660 C   0  0  0  0  0  0  0  0  0  0  0  0
    6.2100   -3.2271    0.4326 C   0  0  0  0  0  0  0  0  0  0  0  0
    7.5257   -3.2581    0.5631 N   0  0  0  0  0  0  0  0  0  0  0  0
    7.9895   -2.7889   -0.6397 N   0  0  0  0  0  0  0  0  0  0  0  0
    7.0067   -2.5164   -1.4337 N   0  0  0  0  0  0  0  0  0  0  0  0
    5.8431   -2.7982   -0.7910 N   0  0  0  0  0  0  0  0  0  0  0  0
    4.5537   -2.5638   -1.4587 C   0  0  0  0  0  0  0  0  0  0  0  0
    4.4841   -3.2157   -2.8587 C   0  0  0  0  0  0  0  0  0  0  0  0
    3.5339   -2.3394   -3.6585 C   0  0  0  0  0  0  0  0  0  0  0  0
    3.8020   -0.9216   -3.1602 C   0  0  0  0  0  0  0  0  0  0  0  0
    4.2532   -1.0640   -1.6959 C   0  0  0  0  0  0  0  0  0  0  0  0
    4.6021   -4.8932    1.3520 C   0  0  0  0  0  0  0  0  0  0  0  0
    3.2774   -5.1130    1.2790 N   0  0  0  0  0  0  0  0  0  0  0  0
    3.1231   -6.4963    1.2938 N   0  0  0  0  0  0  0  0  0  0  0  0
    4.3756   -6.9439    1.3514 C   0  0  0  0  0  0  0  0  0  0  0  0
    5.3297   -6.0299    1.3825 N   0  0  0  0  0  0  0  0  0  0  0  0
    6.6731   -6.5225    1.5080 C   0  0  0  0  0  0  0  0  0  0  0  0
    6.4017   -7.9691    2.0013 C   0  0  0  0  0  0  0  0  0  0  0  0
    4.9742   -8.2903    1.4799 C   0  0  0  0  0  0  0  0  0  0  0  0
    3.7220   -2.9638   -0.8645 H   0  0  0  0  0  0  0  0  0  0  0  0
    5.4366   -3.2026   -3.3875 H   0  0  0  0  0  0  0  0  0  0  0  0
    4.1694   -4.2551   -2.8105 H   0  0  0  0  0  0  0  0  0  0  0  0
    3.7135   -2.4353   -4.7251 H   0  0  0  0  0  0  0  0  0  0  0  0
    2.4998   -2.6180   -3.4677 H   0  0  0  0  0  0  0  0  0  0  0  0
    4.6107   -0.4748   -3.7376 H   0  0  0  0  0  0  0  0  0  0  0  0
    2.9287   -0.2735   -3.2685 H   0  0  0  0  0  0  0  0  0  0  0  0
    3.4692   -0.7305   -1.0100 H   0  0  0  0  0  0  0  0  0  0  0  0
    5.1136   -0.4149   -1.5203 H   0  0  0  0  0  0  0  0  0  0  0  0
    7.1249   -6.5337    0.5150 H   0  0  0  0  0  0  0  0  0  0  0  0
    7.2739   -5.9138    2.1818 H   0  0  0  0  0  0  0  0  0  0  0  0
    7.1569   -8.7127    1.7529 H   0  0  0  0  0  0  0  0  0  0  0  0
    6.3365   -7.9511    3.0909 H   0  0  0  0  0  0  0  0  0  0  0  0
    4.3842   -8.9341    2.1375 H   0  0  0  0  0  0  0  0  0  0  0  0
    5.0261   -8.7267    0.4827 H   0  0  0  0  0  0  0  0  0  0  0  0
  1  2  1  0
  2  3  2  3
  3  4  1  0
  3 14  1  0
  4  8  1  0
  4  5  2  0
  5  6  1  0
  6  7  2  0
  7  8  1  0
  8  9  1  0
  9 13  1  0
  9 10  1  0
  9 22  1  0
 10 11  1  0
 10 23  1  0
 10 24  1  0
 11 12  1  0
 11 25  1  0
 11 26  1  0
 12 13  1  0
 12 27  1  0
 12 28  1  0
 13 29  1  0
 13 30  1  0
 14 18  1  0
 14 15  2  0
 15 16  1  0
 16 17  2  0
 17 21  1  0
 17 18  1  0
 18 19  1  0
 19 20  1  0
 19 31  1  0
 19 32  1  0
 20 21  1  0
 20 33  1  0
 20 34  1  0
 21 35  1  0
 21 36  1  0
M  CHG  1   1  -1
M  END
>  <i_m_ct_stereo_status>  (27) 
1

>  <s_m_source_file>  (27) 
/var/tmp/pbs.5076255.sched01/tmpi0kgw23q/0rwfjwt46.sdf

>  <i_m_source_file_index>  (27) 
19

>  <i_lp_mmshare_version>  (27) 
48012

>  <i_f3d_flags>  (27) 
0

>  <s_epik_input>  (27) 
W0NIMl0xW0NIMl1bQ0gyXW4oYzEyKWMobm4yKUMoPU5cW09IXSlcYzNubm5uM1tDSF00W0NIMl1bQ0gyXVtDSDJdW0NIMl00

>  <s_epik_cmdline>  (27) 
J2VwaWtfcHl0aG9uJywgJy1waHQnLCAnMi4wJywgJy1waCcsICc3LjAnLCAnLXRuJywgJzgnLCAnLW1hJywgJzIwMCcsICctaW1hZScsICc8aW5maWxlLm1hZT4nLCAnLW9tYWUnLCAnPG91dGZpbGUubWFlPic=

>  <r_epik_Ionization_Penalty>  (27) 
1.15509

>  <r_epik_Ionization_Penalty_Charging>  (27) 
1.15509

>  <r_epik_Ionization_Penalty_Neutral>  (27) 
7.4163e-09

>  <r_epik_State_Penalty>  (27) 
1.21682

>  <r_epik_Charging_Adjusted_Penalty>  (27) 
2.3719

>  <i_epik_Tot_Q>  (27) 
-1

>  <i_epik_Tot_abs_Q>  (27) 
1

>  <s_epik_Chemistry_Notes>  (27) 
This compound has an imine and may undergo hydrolysis.

>  <s_lp_Force_Field>  (27) 
OPLS3e

>  <r_lp_Energy>  (27) 
41.1877

>  <b_lp_Chiralities_Consistent>  (27) 
1

>  <s_lp_Variant>  (27) 
10:0-3

>  <s_i_glide_gridfile>  (27) 
pfpi4k_grid

>  <i_i_glide_lignum>  (27) 
19

>  <i_i_glide_rotatable_bonds>  (27) 
3

>  <r_i_docking_score>  (27) 
-3.412

>  <r_i_glide_ligand_efficiency>  (27) 
-0.162476

>  <r_i_glide_ligand_efficiency_sa>  (27) 
-0.44826

>  <r_i_glide_ligand_efficiency_ln>  (27) 
-0.843611

>  <r_i_glide_gscore>  (27) 
-3.412

>  <r_i_glide_lipo>  (27) 
-0.599572

>  <r_i_glide_hbond>  (27) 
0

>  <r_i_glide_metal>  (27) 
-0

>  <r_i_glide_rewards>  (27) 
-1.86992

>  <r_i_glide_evdw>  (27) 
-30.3697

>  <r_i_glide_ecoul>  (27) 
-0.0841877

>  <r_i_glide_erotb>  (27) 
0.660546

>  <r_i_glide_esite>  (27) 
-0.0719418

>  <r_i_glide_emodel>  (27) 
-36.2698

>  <r_i_glide_energy>  (27) 
-30.4539

>  <r_i_glide_einternal>  (27) 
3.49499

>  <r_i_glide_intrahb_reward>  (27) 
-0

>  <i_i_glide_confnum>  (27) 
1

>  <i_i_glide_posenum>  (27) 
30

>  <r_i_glide_eff_state_penalty>  (27) 
0

>  <ligand_id>  (27) 
10

>  <original_smiles>  (27) 
ON=C(c1nnnn1C1CCCC1)c1nnc2n1CCC2

>  <smiles>  (27) 
[H]C1([H])c2nnc(C(=N[O-])c3nnnn3C3([H])C([H])([H])C([H])([H])C([H])([H])C3([H])[H])n2C([H])([H])C1([H])[H]

$$$$
10:2:1
     RDKit          3D

 36 39  0  0  1  0  0  0  0  0999 V2000
    4.5842   -4.7728    1.8031 O   0  0  0  0  0  0  0  0  0  0  0  0
    3.8718   -3.6002    2.0957 N   0  0  0  0  0  0  0  0  0  0  0  0
    4.2334   -2.5624    1.4418 C   0  0  0  0  0  0  0  0  0  0  0  0
    5.3645   -2.5183    0.4712 C   0  0  0  0  0  0  0  0  0  0  0  0
    6.6375   -2.7712    0.7531 N   0  0  0  0  0  0  0  0  0  0  0  0
    7.2669   -2.6930   -0.4688 N   0  0  0  0  0  0  0  0  0  0  0  0
    6.4254   -2.3988   -1.4130 N   0  0  0  0  0  0  0  0  0  0  0  0
    5.1986   -2.2548   -0.8381 N   0  0  0  0  0  0  0  0  0  0  0  0
    4.0329   -1.9292   -1.6679 C   0  0  0  0  0  0  0  0  0  0  0  0
    3.6094   -3.1168   -2.5477 C   0  0  0  0  0  0  0  0  0  0  0  0
    2.9855   -2.4919   -3.7908 C   0  0  0  0  0  0  0  0  0  0  0  0
    3.7892   -1.2126   -4.0234 C   0  0  0  0  0  0  0  0  0  0  0  0
    4.2938   -0.7607   -2.6521 C   0  0  0  0  0  0  0  0  0  0  0  0
    3.5213   -1.2836    1.6724 C   0  0  0  0  0  0  0  0  0  0  0  0
    3.9299   -0.0844    1.2108 N   0  0  0  0  0  0  0  0  0  0  0  0
    3.0230    0.8544    1.6946 N   0  0  0  0  0  0  0  0  0  0  0  0
    2.1484    0.1246    2.3768 C   0  0  0  0  0  0  0  0  0  0  0  0
    2.3897   -1.1742    2.4049 N   0  0  0  0  0  0  0  0  0  0  0  0
    1.4430   -1.9467    3.1758 C   0  0  0  0  0  0  0  0  0  0  0  0
    0.8196   -0.8413    4.0612 C   0  0  0  0  0  0  0  0  0  0  0  0
    0.9818    0.4537    3.2228 C   0  0  0  0  0  0  0  0  0  0  0  0
    3.1780   -1.6533   -1.0381 H   0  0  0  0  0  0  0  0  0  0  0  0
    4.4768   -3.7078   -2.8481 H   0  0  0  0  0  0  0  0  0  0  0  0
    2.9208   -3.7861   -2.0239 H   0  0  0  0  0  0  0  0  0  0  0  0
    3.0111   -3.1654   -4.6471 H   0  0  0  0  0  0  0  0  0  0  0  0
    1.9431   -2.2500   -3.5924 H   0  0  0  0  0  0  0  0  0  0  0  0
    4.6477   -1.4405   -4.6500 H   0  0  0  0  0  0  0  0  0  0  0  0
    3.2129   -0.4361   -4.5245 H   0  0  0  0  0  0  0  0  0  0  0  0
    3.7933    0.1479   -2.3346 H   0  0  0  0  0  0  0  0  0  0  0  0
    5.3388   -0.4717   -2.7238 H   0  0  0  0  0  0  0  0  0  0  0  0
    0.6948   -2.3421    2.4915 H   0  0  0  0  0  0  0  0  0  0  0  0
    1.9165   -2.7524    3.7286 H   0  0  0  0  0  0  0  0  0  0  0  0
   -0.1949   -1.0266    4.4133 H   0  0  0  0  0  0  0  0  0  0  0  0
    1.4417   -0.7256    4.9513 H   0  0  0  0  0  0  0  0  0  0  0  0
    1.1533    1.3552    3.8158 H   0  0  0  0  0  0  0  0  0  0  0  0
    0.1229    0.5953    2.5666 H   0  0  0  0  0  0  0  0  0  0  0  0
  1  2  1  0
  2  3  2  3
  3  4  1  0
  3 14  1  0
  4  8  1  0
  4  5  2  0
  5  6  1  0
  6  7  2  0
  7  8  1  0
  8  9  1  0
  9 13  1  0
  9 10  1  0
  9 22  1  0
 10 11  1  0
 10 23  1  0
 10 24  1  0
 11 12  1  0
 11 25  1  0
 11 26  1  0
 12 13  1  0
 12 27  1  0
 12 28  1  0
 13 29  1  0
 13 30  1  0
 14 18  1  0
 14 15  2  0
 15 16  1  0
 16 17  2  0
 17 21  1  0
 17 18  1  0
 18 19  1  0
 19 20  1  0
 19 31  1  0
 19 32  1  0
 20 21  1  0
 20 33  1  0
 20 34  1  0
 21 35  1  0
 21 36  1  0
M  CHG  1   1  -1
M  END
>  <i_m_ct_stereo_status>  (28) 
1

>  <s_m_source_file>  (28) 
/var/tmp/pbs.5076255.sched01/tmpi0kgw23q/0rwfjwt46.sdf

>  <i_m_source_file_index>  (28) 
19

>  <i_lp_mmshare_version>  (28) 
48012

>  <i_f3d_flags>  (28) 
0

>  <s_epik_input>  (28) 
W0NIMl0xW0NIMl1bQ0gyXW4oYzEyKWMobm4yKUMoPU5cW09IXSlcYzNubm5uM1tDSF00W0NIMl1bQ0gyXVtDSDJdW0NIMl00

>  <s_epik_cmdline>  (28) 
J2VwaWtfcHl0aG9uJywgJy1waHQnLCAnMi4wJywgJy1waCcsICc3LjAnLCAnLXRuJywgJzgnLCAnLW1hJywgJzIwMCcsICctaW1hZScsICc8aW5maWxlLm1hZT4nLCAnLW9tYWUnLCAnPG91dGZpbGUubWFlPic=

>  <r_epik_Ionization_Penalty>  (28) 
1.15509

>  <r_epik_Ionization_Penalty_Charging>  (28) 
1.15509

>  <r_epik_Ionization_Penalty_Neutral>  (28) 
7.4163e-09

>  <r_epik_State_Penalty>  (28) 
1.21682

>  <r_epik_Charging_Adjusted_Penalty>  (28) 
2.3719

>  <i_epik_Tot_Q>  (28) 
-1

>  <i_epik_Tot_abs_Q>  (28) 
1

>  <s_epik_Chemistry_Notes>  (28) 
This compound has an imine and may undergo hydrolysis.

>  <s_lp_Force_Field>  (28) 
OPLS3e

>  <r_lp_Energy>  (28) 
41.1877

>  <b_lp_Chiralities_Consistent>  (28) 
1

>  <s_lp_Variant>  (28) 
10:0-3

>  <s_i_glide_gridfile>  (28) 
pfpi4k_grid

>  <i_i_glide_lignum>  (28) 
19

>  <i_i_glide_rotatable_bonds>  (28) 
3

>  <r_i_docking_score>  (28) 
-2.8546

>  <r_i_glide_ligand_efficiency>  (28) 
-0.135933

>  <r_i_glide_ligand_efficiency_sa>  (28) 
-0.37503

>  <r_i_glide_ligand_efficiency_ln>  (28) 
-0.705795

>  <r_i_glide_gscore>  (28) 
-2.8546

>  <r_i_glide_lipo>  (28) 
-0.300951

>  <r_i_glide_hbond>  (28) 
0

>  <r_i_glide_metal>  (28) 
-0

>  <r_i_glide_rewards>  (28) 
-1.50844

>  <r_i_glide_evdw>  (28) 
-29.0585

>  <r_i_glide_ecoul>  (28) 
-0.820114

>  <r_i_glide_erotb>  (28) 
0.660546

>  <r_i_glide_esite>  (28) 
-0.129815

>  <r_i_glide_emodel>  (28) 
-35.4237

>  <r_i_glide_energy>  (28) 
-29.8786

>  <r_i_glide_einternal>  (28) 
0.822283

>  <r_i_glide_intrahb_reward>  (28) 
-0

>  <i_i_glide_confnum>  (28) 
4

>  <i_i_glide_posenum>  (28) 
34

>  <r_i_glide_eff_state_penalty>  (28) 
0

>  <ligand_id>  (28) 
10

>  <original_smiles>  (28) 
ON=C(c1nnnn1C1CCCC1)c1nnc2n1CCC2

>  <smiles>  (28) 
[H]C1([H])c2nnc(C(=N[O-])c3nnnn3C3([H])C([H])([H])C([H])([H])C([H])([H])C3([H])[H])n2C([H])([H])C1([H])[H]

$$$$
10:2:2
     RDKit          3D

 36 39  0  0  1  0  0  0  0  0999 V2000
    2.8389   -3.7489    0.6976 O   0  0  0  0  0  0  0  0  0  0  0  0
    2.5826   -2.5885    1.4437 N   0  0  0  0  0  0  0  0  0  0  0  0
    3.5117   -1.7143    1.4064 C   0  0  0  0  0  0  0  0  0  0  0  0
    4.7377   -1.7809    0.5913 C   0  0  0  0  0  0  0  0  0  0  0  0
    5.9817   -1.8130    1.0551 N   0  0  0  0  0  0  0  0  0  0  0  0
    6.7585   -1.8873   -0.0692 N   0  0  0  0  0  0  0  0  0  0  0  0
    6.0242   -1.8710   -1.1377 N   0  0  0  0  0  0  0  0  0  0  0  0
    4.7272   -1.7845   -0.7566 N   0  0  0  0  0  0  0  0  0  0  0  0
    3.6654   -1.7634   -1.7743 C   0  0  0  0  0  0  0  0  0  0  0  0
    3.5559   -3.0941   -2.5425 C   0  0  0  0  0  0  0  0  0  0  0  0
    3.0266   -2.7278   -3.9173 C   0  0  0  0  0  0  0  0  0  0  0  0
    3.6448   -1.3638   -4.2157 C   0  0  0  0  0  0  0  0  0  0  0  0
    3.8563   -0.6770   -2.8613 C   0  0  0  0  0  0  0  0  0  0  0  0
    3.4160   -0.5397    2.2905 C   0  0  0  0  0  0  0  0  0  0  0  0
    4.3400   -0.1993    3.2122 N   0  0  0  0  0  0  0  0  0  0  0  0
    3.7963    0.8725    3.9122 N   0  0  0  0  0  0  0  0  0  0  0  0
    2.6368    1.0835    3.3065 C   0  0  0  0  0  0  0  0  0  0  0  0
    2.3303    0.2582    2.3183 N   0  0  0  0  0  0  0  0  0  0  0  0
    1.0370    0.4714    1.7276 C   0  0  0  0  0  0  0  0  0  0  0  0
    0.3416    1.3400    2.8041 C   0  0  0  0  0  0  0  0  0  0  0  0
    1.5198    2.0251    3.5380 C   0  0  0  0  0  0  0  0  0  0  0  0
    2.6919   -1.5865   -1.3119 H   0  0  0  0  0  0  0  0  0  0  0  0
    4.5286   -3.5720   -2.6585 H   0  0  0  0  0  0  0  0  0  0  0  0
    2.9028   -3.8144   -2.0415 H   0  0  0  0  0  0  0  0  0  0  0  0
    3.2745   -3.4789   -4.6722 H   0  0  0  0  0  0  0  0  0  0  0  0
    1.9427   -2.6408   -3.8792 H   0  0  0  0  0  0  0  0  0  0  0  0
    4.6142   -1.5017   -4.6841 H   0  0  0  0  0  0  0  0  0  0  0  0
    3.0282   -0.7663   -4.8850 H   0  0  0  0  0  0  0  0  0  0  0  0
    3.1326    0.1233   -2.7147 H   0  0  0  0  0  0  0  0  0  0  0  0
    4.8363   -0.2032   -2.8496 H   0  0  0  0  0  0  0  0  0  0  0  0
    1.1813    1.0505    0.8241 H   0  0  0  0  0  0  0  0  0  0  0  0
    0.5367   -0.4666    1.4971 H   0  0  0  0  0  0  0  0  0  0  0  0
   -0.4367    2.0156    2.4433 H   0  0  0  0  0  0  0  0  0  0  0  0
   -0.1271    0.6665    3.5186 H   0  0  0  0  0  0  0  0  0  0  0  0
    1.3560    2.1898    4.6060 H   0  0  0  0  0  0  0  0  0  0  0  0
    1.7704    2.9644    3.0430 H   0  0  0  0  0  0  0  0  0  0  0  0
  1  2  1  0
  2  3  2  3
  3  4  1  0
  3 14  1  0
  4  8  1  0
  4  5  2  0
  5  6  1  0
  6  7  2  0
  7  8  1  0
  8  9  1  0
  9 13  1  0
  9 10  1  0
  9 22  1  0
 10 11  1  0
 10 23  1  0
 10 24  1  0
 11 12  1  0
 11 25  1  0
 11 26  1  0
 12 13  1  0
 12 27  1  0
 12 28  1  0
 13 29  1  0
 13 30  1  0
 14 18  1  0
 14 15  2  0
 15 16  1  0
 16 17  2  0
 17 21  1  0
 17 18  1  0
 18 19  1  0
 19 20  1  0
 19 31  1  0
 19 32  1  0
 20 21  1  0
 20 33  1  0
 20 34  1  0
 21 35  1  0
 21 36  1  0
M  CHG  1   1  -1
M  END
>  <i_m_ct_stereo_status>  (29) 
1

>  <s_m_source_file>  (29) 
/var/tmp/pbs.5076255.sched01/tmpi0kgw23q/0rwfjwt46.sdf

>  <i_m_source_file_index>  (29) 
19

>  <i_lp_mmshare_version>  (29) 
48012

>  <i_f3d_flags>  (29) 
0

>  <s_epik_input>  (29) 
W0NIMl0xW0NIMl1bQ0gyXW4oYzEyKWMobm4yKUMoPU5cW09IXSlcYzNubm5uM1tDSF00W0NIMl1bQ0gyXVtDSDJdW0NIMl00

>  <s_epik_cmdline>  (29) 
J2VwaWtfcHl0aG9uJywgJy1waHQnLCAnMi4wJywgJy1waCcsICc3LjAnLCAnLXRuJywgJzgnLCAnLW1hJywgJzIwMCcsICctaW1hZScsICc8aW5maWxlLm1hZT4nLCAnLW9tYWUnLCAnPG91dGZpbGUubWFlPic=

>  <r_epik_Ionization_Penalty>  (29) 
1.15509

>  <r_epik_Ionization_Penalty_Charging>  (29) 
1.15509

>  <r_epik_Ionization_Penalty_Neutral>  (29) 
7.4163e-09

>  <r_epik_State_Penalty>  (29) 
1.21682

>  <r_epik_Charging_Adjusted_Penalty>  (29) 
2.3719

>  <i_epik_Tot_Q>  (29) 
-1

>  <i_epik_Tot_abs_Q>  (29) 
1

>  <s_epik_Chemistry_Notes>  (29) 
This compound has an imine and may undergo hydrolysis.

>  <s_lp_Force_Field>  (29) 
OPLS3e

>  <r_lp_Energy>  (29) 
41.1877

>  <b_lp_Chiralities_Consistent>  (29) 
1

>  <s_lp_Variant>  (29) 
10:0-3

>  <s_i_glide_gridfile>  (29) 
pfpi4k_grid

>  <i_i_glide_lignum>  (29) 
19

>  <i_i_glide_rotatable_bonds>  (29) 
3

>  <r_i_docking_score>  (29) 
-2.69786

>  <r_i_glide_ligand_efficiency>  (29) 
-0.128469

>  <r_i_glide_ligand_efficiency_sa>  (29) 
-0.354437

>  <r_i_glide_ligand_efficiency_ln>  (29) 
-0.667039

>  <r_i_glide_gscore>  (29) 
-2.69786

>  <r_i_glide_lipo>  (29) 
-0.19339

>  <r_i_glide_hbond>  (29) 
0

>  <r_i_glide_metal>  (29) 
-0

>  <r_i_glide_rewards>  (29) 
-1.46812

>  <r_i_glide_evdw>  (29) 
-28.4681

>  <r_i_glide_ecoul>  (29) 
-0.414701

>  <r_i_glide_erotb>  (29) 
0.660546

>  <r_i_glide_esite>  (29) 
-0.211282

>  <r_i_glide_emodel>  (29) 
-33.4873

>  <r_i_glide_energy>  (29) 
-28.8828

>  <r_i_glide_einternal>  (29) 
2.41387

>  <r_i_glide_intrahb_reward>  (29) 
-0

>  <i_i_glide_confnum>  (29) 
1

>  <i_i_glide_posenum>  (29) 
1

>  <r_i_glide_eff_state_penalty>  (29) 
0

>  <ligand_id>  (29) 
10

>  <original_smiles>  (29) 
ON=C(c1nnnn1C1CCCC1)c1nnc2n1CCC2

>  <smiles>  (29) 
[H]C1([H])c2nnc(C(=N[O-])c3nnnn3C3([H])C([H])([H])C([H])([H])C([H])([H])C3([H])[H])n2C([H])([H])C1([H])[H]

$$$$
10:3:0
     RDKit          3D

 36 39  0  0  1  0  0  0  0  0999 V2000
    1.0045   -5.8640   -0.2394 O   0  0  0  0  0  0  0  0  0  0  0  0
    2.0568   -5.4578    0.5816 N   0  0  0  0  0  0  0  0  0  0  0  0
    2.0731   -5.9333    1.7676 C   0  0  0  0  0  0  0  0  0  0  0  0
    3.1555   -5.5086    2.6755 C   0  0  0  0  0  0  0  0  0  0  0  0
    3.0743   -5.5381    3.9990 N   0  0  0  0  0  0  0  0  0  0  0  0
    4.2567   -4.9848    4.4146 N   0  0  0  0  0  0  0  0  0  0  0  0
    4.9965   -4.6232    3.4054 N   0  0  0  0  0  0  0  0  0  0  0  0
    4.3356   -4.9752    2.2714 N   0  0  0  0  0  0  0  0  0  0  0  0
    4.9603   -4.6666    0.9706 C   0  0  0  0  0  0  0  0  0  0  0  0
    6.4602   -5.0427    0.8726 C   0  0  0  0  0  0  0  0  0  0  0  0
    7.1697   -3.8661    0.1852 C   0  0  0  0  0  0  0  0  0  0  0  0
    6.0623   -2.9651   -0.3616 C   0  0  0  0  0  0  0  0  0  0  0  0
    4.8997   -3.1684    0.6096 C   0  0  0  0  0  0  0  0  0  0  0  0
    1.0582   -6.8615    2.3361 C   0  0  0  0  0  0  0  0  0  0  0  0
   -0.2751   -6.6509    2.3281 N   0  0  0  0  0  0  0  0  0  0  0  0
   -0.8469   -7.7805    2.9107 N   0  0  0  0  0  0  0  0  0  0  0  0
    0.2050   -8.5422    3.2107 C   0  0  0  0  0  0  0  0  0  0  0  0
    1.3839   -8.0432    2.8921 N   0  0  0  0  0  0  0  0  0  0  0  0
    2.5221   -8.8698    3.2251 C   0  0  0  0  0  0  0  0  0  0  0  0
    1.8197  -10.2430    3.3362 C   0  0  0  0  0  0  0  0  0  0  0  0
    0.3673   -9.9041    3.7551 C   0  0  0  0  0  0  0  0  0  0  0  0
    4.4820   -5.2271    0.1608 H   0  0  0  0  0  0  0  0  0  0  0  0
    6.9397   -5.2463    1.8298 H   0  0  0  0  0  0  0  0  0  0  0  0
    6.5625   -5.9552    0.2851 H   0  0  0  0  0  0  0  0  0  0  0  0
    7.7524   -3.3197    0.9267 H   0  0  0  0  0  0  0  0  0  0  0  0
    7.8624   -4.1913   -0.5909 H   0  0  0  0  0  0  0  0  0  0  0  0
    6.3706   -1.9222   -0.4334 H   0  0  0  0  0  0  0  0  0  0  0  0
    5.7727   -3.2986   -1.3585 H   0  0  0  0  0  0  0  0  0  0  0  0
    3.9395   -2.8818    0.1765 H   0  0  0  0  0  0  0  0  0  0  0  0
    5.0607   -2.5478    1.4924 H   0  0  0  0  0  0  0  0  0  0  0  0
    3.3047   -8.8106    2.4739 H   0  0  0  0  0  0  0  0  0  0  0  0
    2.8996   -8.5624    4.2010 H   0  0  0  0  0  0  0  0  0  0  0  0
    1.7617  -10.6633    2.3328 H   0  0  0  0  0  0  0  0  0  0  0  0
    2.3110  -10.9893    3.9669 H   0  0  0  0  0  0  0  0  0  0  0  0
    0.2859   -9.8486    4.8387 H   0  0  0  0  0  0  0  0  0  0  0  0
   -0.3878  -10.5836    3.3601 H   0  0  0  0  0  0  0  0  0  0  0  0
  1  2  1  0
  2  3  2  3
  3  4  1  0
  3 14  1  0
  4  8  1  0
  4  5  2  0
  5  6  1  0
  6  7  2  0
  7  8  1  0
  8  9  1  0
  9 13  1  0
  9 10  1  0
  9 22  1  0
 10 11  1  0
 10 23  1  0
 10 24  1  0
 11 12  1  0
 11 25  1  0
 11 26  1  0
 12 13  1  0
 12 27  1  0
 12 28  1  0
 13 29  1  0
 13 30  1  0
 14 18  1  0
 14 15  2  0
 15 16  1  0
 16 17  2  0
 17 21  1  0
 17 18  1  0
 18 19  1  0
 19 20  1  0
 19 31  1  0
 19 32  1  0
 20 21  1  0
 20 33  1  0
 20 34  1  0
 21 35  1  0
 21 36  1  0
M  CHG  1   1  -1
M  END
>  <i_m_ct_stereo_status>  (30) 
1

>  <s_m_source_file>  (30) 
/var/tmp/pbs.5076255.sched01/tmpi0kgw23q/0rwfjwt46.sdf

>  <i_m_source_file_index>  (30) 
20

>  <i_lp_mmshare_version>  (30) 
48012

>  <i_f3d_flags>  (30) 
0

>  <s_epik_input>  (30) 
W0NIMl0xW0NIMl1bQ0gyXW4oYzEyKWMobm4yKUMoPU5cW09IXSlcYzNubm5uM1tDSF00W0NIMl1bQ0gyXVtDSDJdW0NIMl00

>  <s_epik_cmdline>  (30) 
J2VwaWtfcHl0aG9uJywgJy1waHQnLCAnMi4wJywgJy1waCcsICc3LjAnLCAnLXRuJywgJzgnLCAnLW1hJywgJzIwMCcsICctaW1hZScsICc8aW5maWxlLm1hZT4nLCAnLW9tYWUnLCAnPG91dGZpbGUubWFlPic=

>  <r_epik_Ionization_Penalty>  (30) 
1.15509

>  <r_epik_Ionization_Penalty_Charging>  (30) 
1.15509

>  <r_epik_Ionization_Penalty_Neutral>  (30) 
7.4163e-09

>  <r_epik_State_Penalty>  (30) 
1.21682

>  <r_epik_Charging_Adjusted_Penalty>  (30) 
2.3719

>  <i_epik_Tot_Q>  (30) 
-1

>  <i_epik_Tot_abs_Q>  (30) 
1

>  <s_epik_Chemistry_Notes>  (30) 
This compound has an imine and may undergo hydrolysis.

>  <s_lp_Force_Field>  (30) 
OPLS3e

>  <r_lp_Energy>  (30) 
43.642

>  <b_lp_Chiralities_Consistent>  (30) 
1

>  <s_lp_Variant>  (30) 
10:0-4

>  <s_i_glide_gridfile>  (30) 
pfpi4k_grid

>  <i_i_glide_lignum>  (30) 
20

>  <i_i_glide_rotatable_bonds>  (30) 
3

>  <r_i_docking_score>  (30) 
-3.02771

>  <r_i_glide_ligand_efficiency>  (30) 
-0.144177

>  <r_i_glide_ligand_efficiency_sa>  (30) 
-0.397772

>  <r_i_glide_ligand_efficiency_ln>  (30) 
-0.748595

>  <r_i_glide_gscore>  (30) 
-3.02771

>  <r_i_glide_lipo>  (30) 
-0.409957

>  <r_i_glide_hbond>  (30) 
0

>  <r_i_glide_metal>  (30) 
-0

>  <r_i_glide_rewards>  (30) 
-1.45695

>  <r_i_glide_evdw>  (30) 
-20.7842

>  <r_i_glide_ecoul>  (30) 
-2.18114

>  <r_i_glide_erotb>  (30) 
0.660546

>  <r_i_glide_esite>  (30) 
-0.454972

>  <r_i_glide_emodel>  (30) 
-29.5

>  <r_i_glide_energy>  (30) 
-22.9653

>  <r_i_glide_einternal>  (30) 
0.483623

>  <r_i_glide_intrahb_reward>  (30) 
-0

>  <i_i_glide_confnum>  (30) 
3

>  <i_i_glide_posenum>  (30) 
2

>  <r_i_glide_eff_state_penalty>  (30) 
0

>  <ligand_id>  (30) 
10

>  <original_smiles>  (30) 
ON=C(c1nnnn1C1CCCC1)c1nnc2n1CCC2

>  <smiles>  (30) 
[H]C1([H])c2nnc(C(=N[O-])c3nnnn3C3([H])C([H])([H])C([H])([H])C([H])([H])C3([H])[H])n2C([H])([H])C1([H])[H]

$$$$
10:3:1
     RDKit          3D

 36 39  0  0  1  0  0  0  0  0999 V2000
    4.6314   -5.8725    3.9157 O   0  0  0  0  0  0  0  0  0  0  0  0
    3.4752   -6.5805    3.5573 N   0  0  0  0  0  0  0  0  0  0  0  0
    2.8698   -6.1916    2.5037 C   0  0  0  0  0  0  0  0  0  0  0  0
    1.5507   -6.8030    2.1847 C   0  0  0  0  0  0  0  0  0  0  0  0
    0.6441   -6.2625    1.3787 N   0  0  0  0  0  0  0  0  0  0  0  0
   -0.4411   -7.0983    1.4614 N   0  0  0  0  0  0  0  0  0  0  0  0
   -0.1916   -8.1129    2.2380 N   0  0  0  0  0  0  0  0  0  0  0  0
    1.0791   -7.9714    2.7089 N   0  0  0  0  0  0  0  0  0  0  0  0
    1.6047   -9.0113    3.5952 C   0  0  0  0  0  0  0  0  0  0  0  0
    1.6884  -10.3901    2.9208 C   0  0  0  0  0  0  0  0  0  0  0  0
    1.1934  -11.3994    3.9624 C   0  0  0  0  0  0  0  0  0  0  0  0
    1.0706  -10.6323    5.2781 C   0  0  0  0  0  0  0  0  0  0  0  0
    0.7456   -9.2072    4.8554 C   0  0  0  0  0  0  0  0  0  0  0  0
    3.3454   -5.1431    1.5541 C   0  0  0  0  0  0  0  0  0  0  0  0
    2.6156   -4.0810    1.1595 N   0  0  0  0  0  0  0  0  0  0  0  0
    3.4317   -3.3226    0.3324 N   0  0  0  0  0  0  0  0  0  0  0  0
    4.5619   -4.0230    0.2848 C   0  0  0  0  0  0  0  0  0  0  0  0
    4.5787   -5.1297    1.0018 N   0  0  0  0  0  0  0  0  0  0  0  0
    5.8310   -5.8652    0.9600 C   0  0  0  0  0  0  0  0  0  0  0  0
    6.7904   -4.7248    0.5370 C   0  0  0  0  0  0  0  0  0  0  0  0
    5.8970   -3.7631   -0.2927 C   0  0  0  0  0  0  0  0  0  0  0  0
    2.6269   -8.8125    3.9364 H   0  0  0  0  0  0  0  0  0  0  0  0
    1.0926  -10.4686    2.0126 H   0  0  0  0  0  0  0  0  0  0  0  0
    2.7259  -10.5980    2.6464 H   0  0  0  0  0  0  0  0  0  0  0  0
    0.2149  -11.7724    3.6663 H   0  0  0  0  0  0  0  0  0  0  0  0
    1.8691  -12.2503    4.0579 H   0  0  0  0  0  0  0  0  0  0  0  0
    0.3048  -11.0546    5.9295 H   0  0  0  0  0  0  0  0  0  0  0  0
    2.0223  -10.6588    5.8126 H   0  0  0  0  0  0  0  0  0  0  0  0
    0.9892   -8.4769    5.6282 H   0  0  0  0  0  0  0  0  0  0  0  0
   -0.3273   -9.1449    4.6574 H   0  0  0  0  0  0  0  0  0  0  0  0
    6.1033   -6.3207    1.9077 H   0  0  0  0  0  0  0  0  0  0  0  0
    5.7562   -6.6301    0.1831 H   0  0  0  0  0  0  0  0  0  0  0  0
    7.0857   -4.1758    1.4342 H   0  0  0  0  0  0  0  0  0  0  0  0
    7.7152   -5.0394    0.0517 H   0  0  0  0  0  0  0  0  0  0  0  0
    5.8521   -4.0757   -1.3336 H   0  0  0  0  0  0  0  0  0  0  0  0
    6.1570   -2.7055   -0.2126 H   0  0  0  0  0  0  0  0  0  0  0  0
  1  2  1  0
  2  3  2  3
  3  4  1  0
  3 14  1  0
  4  8  1  0
  4  5  2  0
  5  6  1  0
  6  7  2  0
  7  8  1  0
  8  9  1  0
  9 13  1  0
  9 10  1  0
  9 22  1  0
 10 11  1  0
 10 23  1  0
 10 24  1  0
 11 12  1  0
 11 25  1  0
 11 26  1  0
 12 13  1  0
 12 27  1  0
 12 28  1  0
 13 29  1  0
 13 30  1  0
 14 18  1  0
 14 15  2  0
 15 16  1  0
 16 17  2  0
 17 21  1  0
 17 18  1  0
 18 19  1  0
 19 20  1  0
 19 31  1  0
 19 32  1  0
 20 21  1  0
 20 33  1  0
 20 34  1  0
 21 35  1  0
 21 36  1  0
M  CHG  1   1  -1
M  END
>  <i_m_ct_stereo_status>  (31) 
1

>  <s_m_source_file>  (31) 
/var/tmp/pbs.5076255.sched01/tmpi0kgw23q/0rwfjwt46.sdf

>  <i_m_source_file_index>  (31) 
20

>  <i_lp_mmshare_version>  (31) 
48012

>  <i_f3d_flags>  (31) 
0

>  <s_epik_input>  (31) 
W0NIMl0xW0NIMl1bQ0gyXW4oYzEyKWMobm4yKUMoPU5cW09IXSlcYzNubm5uM1tDSF00W0NIMl1bQ0gyXVtDSDJdW0NIMl00

>  <s_epik_cmdline>  (31) 
J2VwaWtfcHl0aG9uJywgJy1waHQnLCAnMi4wJywgJy1waCcsICc3LjAnLCAnLXRuJywgJzgnLCAnLW1hJywgJzIwMCcsICctaW1hZScsICc8aW5maWxlLm1hZT4nLCAnLW9tYWUnLCAnPG91dGZpbGUubWFlPic=

>  <r_epik_Ionization_Penalty>  (31) 
1.15509

>  <r_epik_Ionization_Penalty_Charging>  (31) 
1.15509

>  <r_epik_Ionization_Penalty_Neutral>  (31) 
7.4163e-09

>  <r_epik_State_Penalty>  (31) 
1.21682

>  <r_epik_Charging_Adjusted_Penalty>  (31) 
2.3719

>  <i_epik_Tot_Q>  (31) 
-1

>  <i_epik_Tot_abs_Q>  (31) 
1

>  <s_epik_Chemistry_Notes>  (31) 
This compound has an imine and may undergo hydrolysis.

>  <s_lp_Force_Field>  (31) 
OPLS3e

>  <r_lp_Energy>  (31) 
43.642

>  <b_lp_Chiralities_Consistent>  (31) 
1

>  <s_lp_Variant>  (31) 
10:0-4

>  <s_i_glide_gridfile>  (31) 
pfpi4k_grid

>  <i_i_glide_lignum>  (31) 
20

>  <i_i_glide_rotatable_bonds>  (31) 
3

>  <r_i_docking_score>  (31) 
-2.9739

>  <r_i_glide_ligand_efficiency>  (31) 
-0.141614

>  <r_i_glide_ligand_efficiency_sa>  (31) 
-0.390704

>  <r_i_glide_ligand_efficiency_ln>  (31) 
-0.735292

>  <r_i_glide_gscore>  (31) 
-2.9739

>  <r_i_glide_lipo>  (31) 
-0.553091

>  <r_i_glide_hbond>  (31) 
0

>  <r_i_glide_metal>  (31) 
-0

>  <r_i_glide_rewards>  (31) 
-1.5623

>  <r_i_glide_evdw>  (31) 
-22.676

>  <r_i_glide_ecoul>  (31) 
-0.294364

>  <r_i_glide_erotb>  (31) 
0.660546

>  <r_i_glide_esite>  (31) 
-0.34111

>  <r_i_glide_emodel>  (31) 
-28.7652

>  <r_i_glide_energy>  (31) 
-22.9703

>  <r_i_glide_einternal>  (31) 
1.27436

>  <r_i_glide_intrahb_reward>  (31) 
-0

>  <i_i_glide_confnum>  (31) 
3

>  <i_i_glide_posenum>  (31) 
5

>  <r_i_glide_eff_state_penalty>  (31) 
0

>  <ligand_id>  (31) 
10

>  <original_smiles>  (31) 
ON=C(c1nnnn1C1CCCC1)c1nnc2n1CCC2

>  <smiles>  (31) 
[H]C1([H])c2nnc(C(=N[O-])c3nnnn3C3([H])C([H])([H])C([H])([H])C([H])([H])C3([H])[H])n2C([H])([H])C1([H])[H]

$$$$
10:3:2
     RDKit          3D

 36 39  0  0  1  0  0  0  0  0999 V2000
   -2.5768    3.2695    4.4964 O   0  0  0  0  0  0  0  0  0  0  0  0
   -2.2204    3.2524    5.8474 N   0  0  0  0  0  0  0  0  0  0  0  0
   -1.5326    2.2462    6.2280 C   0  0  0  0  0  0  0  0  0  0  0  0
   -1.1429    2.1375    7.6544 C   0  0  0  0  0  0  0  0  0  0  0  0
   -0.8286    0.9928    8.2575 N   0  0  0  0  0  0  0  0  0  0  0  0
   -0.5746    1.3549    9.5598 N   0  0  0  0  0  0  0  0  0  0  0  0
   -0.7184    2.6331    9.7249 N   0  0  0  0  0  0  0  0  0  0  0  0
   -1.0659    3.1676    8.5240 N   0  0  0  0  0  0  0  0  0  0  0  0
   -1.2802    4.6294    8.4384 C   0  0  0  0  0  0  0  0  0  0  0  0
   -0.0707    5.4634    8.9045 C   0  0  0  0  0  0  0  0  0  0  0  0
   -0.6390    6.6087    9.7548 C   0  0  0  0  0  0  0  0  0  0  0  0
   -2.1537    6.5789    9.5528 C   0  0  0  0  0  0  0  0  0  0  0  0
   -2.4699    5.1081    9.2867 C   0  0  0  0  0  0  0  0  0  0  0  0
   -1.0922    1.1261    5.3528 C   0  0  0  0  0  0  0  0  0  0  0  0
   -1.4657   -0.1621    5.5168 N   0  0  0  0  0  0  0  0  0  0  0  0
   -0.8613   -0.8665    4.4806 N   0  0  0  0  0  0  0  0  0  0  0  0
   -0.1895    0.0680    3.8049 C   0  0  0  0  0  0  0  0  0  0  0  0
   -0.2745    1.2954    4.2878 N   0  0  0  0  0  0  0  0  0  0  0  0
    0.4478    2.3001    3.5477 C   0  0  0  0  0  0  0  0  0  0  0  0
    0.6011    1.5854    2.1824 C   0  0  0  0  0  0  0  0  0  0  0  0
    0.6058    0.0804    2.5471 C   0  0  0  0  0  0  0  0  0  0  0  0
   -1.4554    4.9468    7.4131 H   0  0  0  0  0  0  0  0  0  0  0  0
    0.6646    4.8966    9.4769 H   0  0  0  0  0  0  0  0  0  0  0  0
    0.4502    5.8567    8.0312 H   0  0  0  0  0  0  0  0  0  0  0  0
   -0.4102    6.4179   10.8031 H   0  0  0  0  0  0  0  0  0  0  0  0
   -0.2078    7.5761    9.4978 H   0  0  0  0  0  0  0  0  0  0  0  0
   -2.6893    6.9727   10.4159 H   0  0  0  0  0  0  0  0  0  0  0  0
   -2.4275    7.1808    8.6855 H   0  0  0  0  0  0  0  0  0  0  0  0
   -3.4262    4.9680    8.7798 H   0  0  0  0  0  0  0  0  0  0  0  0
   -2.5289    4.5825   10.2429 H   0  0  0  0  0  0  0  0  0  0  0  0
   -0.0783    3.2516    3.5041 H   0  0  0  0  0  0  0  0  0  0  0  0
    1.4327    2.4359    4.0064 H   0  0  0  0  0  0  0  0  0  0  0  0
   -0.3038    1.7763    1.5982 H   0  0  0  0  0  0  0  0  0  0  0  0
    1.4385    1.9048    1.5660 H   0  0  0  0  0  0  0  0  0  0  0  0
    1.6160   -0.2566    2.7679 H   0  0  0  0  0  0  0  0  0  0  0  0
    0.1894   -0.5581    1.7651 H   0  0  0  0  0  0  0  0  0  0  0  0
  1  2  1  0
  2  3  2  3
  3  4  1  0
  3 14  1  0
  4  8  1  0
  4  5  2  0
  5  6  1  0
  6  7  2  0
  7  8  1  0
  8  9  1  0
  9 13  1  0
  9 10  1  0
  9 22  1  0
 10 11  1  0
 10 23  1  0
 10 24  1  0
 11 12  1  0
 11 25  1  0
 11 26  1  0
 12 13  1  0
 12 27  1  0
 12 28  1  0
 13 29  1  0
 13 30  1  0
 14 18  1  0
 14 15  2  0
 15 16  1  0
 16 17  2  0
 17 21  1  0
 17 18  1  0
 18 19  1  0
 19 20  1  0
 19 31  1  0
 19 32  1  0
 20 21  1  0
 20 33  1  0
 20 34  1  0
 21 35  1  0
 21 36  1  0
M  CHG  1   1  -1
M  END
>  <i_m_ct_stereo_status>  (32) 
1

>  <s_m_source_file>  (32) 
/var/tmp/pbs.5076255.sched01/tmpi0kgw23q/0rwfjwt46.sdf

>  <i_m_source_file_index>  (32) 
20

>  <i_lp_mmshare_version>  (32) 
48012

>  <i_f3d_flags>  (32) 
0

>  <s_epik_input>  (32) 
W0NIMl0xW0NIMl1bQ0gyXW4oYzEyKWMobm4yKUMoPU5cW09IXSlcYzNubm5uM1tDSF00W0NIMl1bQ0gyXVtDSDJdW0NIMl00

>  <s_epik_cmdline>  (32) 
J2VwaWtfcHl0aG9uJywgJy1waHQnLCAnMi4wJywgJy1waCcsICc3LjAnLCAnLXRuJywgJzgnLCAnLW1hJywgJzIwMCcsICctaW1hZScsICc8aW5maWxlLm1hZT4nLCAnLW9tYWUnLCAnPG91dGZpbGUubWFlPic=

>  <r_epik_Ionization_Penalty>  (32) 
1.15509

>  <r_epik_Ionization_Penalty_Charging>  (32) 
1.15509

>  <r_epik_Ionization_Penalty_Neutral>  (32) 
7.4163e-09

>  <r_epik_State_Penalty>  (32) 
1.21682

>  <r_epik_Charging_Adjusted_Penalty>  (32) 
2.3719

>  <i_epik_Tot_Q>  (32) 
-1

>  <i_epik_Tot_abs_Q>  (32) 
1

>  <s_epik_Chemistry_Notes>  (32) 
This compound has an imine and may undergo hydrolysis.

>  <s_lp_Force_Field>  (32) 
OPLS3e

>  <r_lp_Energy>  (32) 
43.642

>  <b_lp_Chiralities_Consistent>  (32) 
1

>  <s_lp_Variant>  (32) 
10:0-4

>  <s_i_glide_gridfile>  (32) 
pfpi4k_grid

>  <i_i_glide_lignum>  (32) 
20

>  <i_i_glide_rotatable_bonds>  (32) 
3

>  <r_i_docking_score>  (32) 
-2.62086

>  <r_i_glide_ligand_efficiency>  (32) 
-0.124803

>  <r_i_glide_ligand_efficiency_sa>  (32) 
-0.344322

>  <r_i_glide_ligand_efficiency_ln>  (32) 
-0.648003

>  <r_i_glide_gscore>  (32) 
-2.62086

>  <r_i_glide_lipo>  (32) 
-0.0364296

>  <r_i_glide_hbond>  (32) 
0

>  <r_i_glide_metal>  (32) 
-0

>  <r_i_glide_rewards>  (32) 
-1.45022

>  <r_i_glide_evdw>  (32) 
-21.2893

>  <r_i_glide_ecoul>  (32) 
-2.79967

>  <r_i_glide_erotb>  (32) 
0.660546

>  <r_i_glide_esite>  (32) 
-0.310343

>  <r_i_glide_emodel>  (32) 
-29.539

>  <r_i_glide_energy>  (32) 
-24.0889

>  <r_i_glide_einternal>  (32) 
1.09279

>  <r_i_glide_intrahb_reward>  (32) 
-0

>  <i_i_glide_confnum>  (32) 
3

>  <i_i_glide_posenum>  (32) 
32

>  <r_i_glide_eff_state_penalty>  (32) 
0

>  <ligand_id>  (32) 
10

>  <original_smiles>  (32) 
ON=C(c1nnnn1C1CCCC1)c1nnc2n1CCC2

>  <smiles>  (32) 
[H]C1([H])c2nnc(C(=N[O-])c3nnnn3C3([H])C([H])([H])C([H])([H])C([H])([H])C3([H])[H])n2C([H])([H])C1([H])[H]

$$$$
11:0:0
     RDKit          3D

 51 55  0  0  1  0  0  0  0  0999 V2000
    1.5552   -3.0255    5.7750 C   0  0  0  0  0  0  0  0  0  0  0  0
    2.1923   -3.8182    4.8960 C   0  0  0  0  0  0  0  0  0  0  0  0
    1.7694   -5.2120    4.4775 C   0  0  1  0  0  0  0  0  0  0  0  0
    0.3705   -5.4135    4.4803 O   0  0  0  0  0  0  0  0  0  0  0  0
    2.3926   -5.3807    3.0826 C   0  0  0  0  0  0  0  0  0  0  0  0
    3.7446   -4.6274    3.1422 C   0  0  1  0  0  0  0  0  0  0  0  0
    4.7944   -5.5405    3.8264 C   0  0  0  0  0  0  0  0  0  0  0  0
    4.3116   -4.1649    1.7403 C   0  0  1  0  0  0  0  0  0  0  0  0
    4.1148   -5.1833    0.5630 C   0  0  1  0  0  0  0  0  0  0  0  0
    2.7850   -5.2478    0.0786 O   0  0  0  0  0  0  0  0  0  0  0  0
    5.0138   -4.8269   -0.6276 C   0  0  0  0  0  0  0  0  0  0  0  0
    4.8410   -3.3758   -1.0090 C   0  0  0  0  0  0  0  0  0  0  0  0
    4.5273   -2.8459   -2.2021 C   0  0  0  0  0  0  0  0  0  0  0  0
    4.2362   -3.4857   -3.5453 C   0  0  0  0  0  0  0  0  0  0  0  0
    4.4810   -1.4021   -2.0545 C   0  0  0  0  0  0  0  0  0  0  0  0
    4.2159   -0.5787   -2.9304 O   0  0  0  0  0  0  0  0  0  0  0  0
    4.8398   -1.0071   -0.6316 C   0  0  0  0  0  0  0  0  0  0  0  0
    5.0338   -2.3600    0.0957 C   0  0  1  0  0  0  0  0  0  0  0  0
    4.1189   -2.6516    1.3363 C   0  0  1  0  0  0  0  0  0  0  0  0
    2.6326   -2.3274    1.0331 C   0  0  0  0  0  0  0  0  0  0  0  0
    4.6095   -1.7903    2.5388 C   0  0  1  0  0  0  0  0  0  0  0  0
    4.6398   -0.3947    2.2913 O   0  0  0  0  0  0  0  0  0  0  0  0
    3.7851   -2.0636    3.7673 C   0  0  2  0  0  0  0  0  0  0  0  0
    4.4578   -2.8122    4.7810 O   0  0  0  0  0  0  0  0  0  0  0  0
    3.3967   -3.4854    4.0890 C   0  0  1  0  0  0  0  0  0  0  0  0
    1.9342   -2.0392    5.9924 H   0  0  0  0  0  0  0  0  0  0  0  0
    0.6616   -3.3429    6.2967 H   0  0  0  0  0  0  0  0  0  0  0  0
    2.2173   -5.9150    5.1806 H   0  0  0  0  0  0  0  0  0  0  0  0
    0.2192   -6.3488    4.4794 H   0  0  0  0  0  0  0  0  0  0  0  0
    2.4947   -6.4250    2.7870 H   0  0  0  0  0  0  0  0  0  0  0  0
    1.7331   -4.8993    2.3626 H   0  0  0  0  0  0  0  0  0  0  0  0
    5.7422   -5.0166    3.9750 H   0  0  0  0  0  0  0  0  0  0  0  0
    5.0036   -6.4261    3.2239 H   0  0  0  0  0  0  0  0  0  0  0  0
    4.4780   -5.8841    4.8144 H   0  0  0  0  0  0  0  0  0  0  0  0
    5.3908   -4.2052    1.8993 H   0  0  0  0  0  0  0  0  0  0  0  0
    4.3850   -6.1826    0.9074 H   0  0  0  0  0  0  0  0  0  0  0  0
    2.8204   -5.5719   -0.8210 H   0  0  0  0  0  0  0  0  0  0  0  0
    6.0552   -4.9690   -0.3273 H   0  0  0  0  0  0  0  0  0  0  0  0
    4.8491   -5.4843   -1.4790 H   0  0  0  0  0  0  0  0  0  0  0  0
    3.2249   -3.2315   -3.8595 H   0  0  0  0  0  0  0  0  0  0  0  0
    4.3243   -4.5686   -3.5258 H   0  0  0  0  0  0  0  0  0  0  0  0
    4.9207   -3.1162   -4.3038 H   0  0  0  0  0  0  0  0  0  0  0  0
    5.7613   -0.4269   -0.6375 H   0  0  0  0  0  0  0  0  0  0  0  0
    4.0514   -0.3832   -0.2137 H   0  0  0  0  0  0  0  0  0  0  0  0
    6.0772   -2.4354    0.4023 H   0  0  0  0  0  0  0  0  0  0  0  0
    2.4455   -1.2568    0.9518 H   0  0  0  0  0  0  0  0  0  0  0  0
    1.9665   -2.6979    1.8112 H   0  0  0  0  0  0  0  0  0  0  0  0
    2.3027   -2.7669    0.0933 H   0  0  0  0  0  0  0  0  0  0  0  0
    5.6358   -2.0738    2.7858 H   0  0  0  0  0  0  0  0  0  0  0  0
    3.7613   -0.0986    2.1049 H   0  0  0  0  0  0  0  0  0  0  0  0
    3.1085   -1.2820    4.1029 H   0  0  0  0  0  0  0  0  0  0  0  0
  1  2  2  0
  1 26  1  0
  1 27  1  0
  2 25  1  0
  2  3  1  0
  3  4  1  0
  3  5  1  0
  3 28  1  1
  4 29  1  0
  5  6  1  0
  5 30  1  0
  5 31  1  0
  6 25  1  0
  6  7  1  1
  6  8  1  0
  7 32  1  0
  7 33  1  0
  7 34  1  0
  8 19  1  0
  8  9  1  0
  8 35  1  1
  9 10  1  0
  9 11  1  0
  9 36  1  1
 10 37  1  0
 11 12  1  0
 11 38  1  0
 11 39  1  0
 12 18  1  0
 12 13  2  0
 13 14  1  0
 13 15  1  0
 14 40  1  0
 14 41  1  0
 14 42  1  0
 15 16  2  0
 15 17  1  0
 17 18  1  0
 17 43  1  0
 17 44  1  0
 18 19  1  0
 18 45  1  1
 19 20  1  6
 19 21  1  0
 20 46  1  0
 20 47  1  0
 20 48  1  0
 21 22  1  0
 21 23  1  0
 21 49  1  1
 22 50  1  0
 23 25  1  0
 23 24  1  0
 23 51  1  1
 25 24  1  1
M  END
>  <i_m_ct_stereo_status>  (33) 
1

>  <s_m_source_file>  (33) 
/var/tmp/pbs.5076255.sched01/tmpi0kgw23q/0rwfjwt46.sdf

>  <i_m_source_file_index>  (33) 
21

>  <i_lp_mmshare_version>  (33) 
48012

>  <i_f3d_flags>  (33) 
0

>  <s_epik_input>  (33) 
W0NIMl09QzFbQ0BASF0oW09IXSlbQ0gyXVtDQEBdKFtDQF0xMjMpKFtDSDNdKVtDQEBIXTRbQ0BAXShbQ0gzXSkoW0NAQEhdKFtPSF0pW0NAQEhdMk8zKVtDQEhdNUMoW0NIMl1bQ0BASF00W09IXSk9QyhbQ0gzXSlDKD1PKVtDSDJdNQ==

>  <s_epik_cmdline>  (33) 
J2VwaWtfcHl0aG9uJywgJy1waHQnLCAnMi4wJywgJy1waCcsICc3LjAnLCAnLXRuJywgJzgnLCAnLW1hJywgJzIwMCcsICctaW1hZScsICc8aW5maWxlLm1hZT4nLCAnLW9tYWUnLCAnPG91dGZpbGUubWFlPic=

>  <r_lp_tautomer_probability>  (33) 
0.499977

>  <r_epik_Ionization_Penalty>  (33) 
2.41144e-07

>  <r_epik_Ionization_Penalty_Charging>  (33) 
0

>  <r_epik_Ionization_Penalty_Neutral>  (33) 
2.41144e-07

>  <r_epik_State_Penalty>  (33) 
0.41068

>  <r_epik_Charging_Adjusted_Penalty>  (33) 
0.41068

>  <i_epik_Tot_Q>  (33) 
0

>  <i_epik_Tot_abs_Q>  (33) 
0

>  <s_lp_Force_Field>  (33) 
OPLS3e

>  <r_lp_Energy>  (33) 
28.5107

>  <b_lp_Chiralities_Consistent>  (33) 
1

>  <s_lp_Variant>  (33) 
11:0-1

>  <s_i_glide_gridfile>  (33) 
pfpi4k_grid

>  <i_i_glide_lignum>  (33) 
21

>  <i_i_glide_rotatable_bonds>  (33) 
3

>  <r_i_docking_score>  (33) 
-3.61592

>  <r_i_glide_ligand_efficiency>  (33) 
-0.144637

>  <r_i_glide_ligand_efficiency_sa>  (33) 
-0.42292

>  <r_i_glide_ligand_efficiency_ln>  (33) 
-0.857081

>  <r_i_glide_gscore>  (33) 
-3.61592

>  <r_i_glide_lipo>  (33) 
-0.321766

>  <r_i_glide_hbond>  (33) 
-0.32

>  <r_i_glide_metal>  (33) 
-0

>  <r_i_glide_rewards>  (33) 
-1.04715

>  <r_i_glide_evdw>  (33) 
-25.5643

>  <r_i_glide_ecoul>  (33) 
-4.03748

>  <r_i_glide_erotb>  (33) 
0

>  <r_i_glide_esite>  (33) 
-0.0431608

>  <r_i_glide_emodel>  (33) 
-35.7784

>  <r_i_glide_energy>  (33) 
-29.6018

>  <r_i_glide_einternal>  (33) 
1.45619

>  <r_i_glide_intrahb_reward>  (33) 
-0

>  <i_i_glide_confnum>  (33) 
1

>  <i_i_glide_posenum>  (33) 
28

>  <r_i_glide_eff_state_penalty>  (33) 
0

>  <ligand_id>  (33) 
11

>  <original_smiles>  (33) 
C=C1C(O)CC2(C)C3C(O)CC4=C(C)C(=O)CC4C3(C)C(O)C3OC132

>  <smiles>  (33) 
[H]OC1([H])C(=C([H])[H])C23OC2([H])C([H])(O[H])C2(C([H])([H])[H])C4([H])C(=C(C([H])([H])[H])C(=O)C4([H])[H])C([H])([H])C([H])(O[H])C2([H])C3(C([H])([H])[H])C1([H])[H]

$$$$
11:0:1
     RDKit          3D

 51 55  0  0  1  0  0  0  0  0999 V2000
    3.3781   -2.9942   -2.6450 C   0  0  0  0  0  0  0  0  0  0  0  0
    4.1501   -2.6191   -1.6128 C   0  0  0  0  0  0  0  0  0  0  0  0
    5.0116   -1.3848   -1.5760 C   0  0  1  0  0  0  0  0  0  0  0  0
    4.5040   -0.3500   -2.3901 O   0  0  0  0  0  0  0  0  0  0  0  0
    5.1033   -1.0456   -0.0740 C   0  0  0  0  0  0  0  0  0  0  0  0
    5.1373   -2.4139    0.6536 C   0  0  1  0  0  0  0  0  0  0  0  0
    6.5769   -2.9828    0.5813 C   0  0  0  0  0  0  0  0  0  0  0  0
    4.6783   -2.3881    2.1699 C   0  0  1  0  0  0  0  0  0  0  0  0
    5.1578   -1.1446    2.9949 C   0  0  1  0  0  0  0  0  0  0  0  0
    4.4848    0.0527    2.6602 O   0  0  0  0  0  0  0  0  0  0  0  0
    4.9872   -1.3746    4.5051 C   0  0  0  0  0  0  0  0  0  0  0  0
    3.5851   -1.8564    4.8124 C   0  0  0  0  0  0  0  0  0  0  0  0
    2.6968   -1.3538    5.6813 C   0  0  0  0  0  0  0  0  0  0  0  0
    2.7846   -0.1578    6.6104 C   0  0  0  0  0  0  0  0  0  0  0  0
    1.4908   -2.1724    5.6240 C   0  0  0  0  0  0  0  0  0  0  0  0
    0.4467   -2.0108    6.2583 O   0  0  0  0  0  0  0  0  0  0  0  0
    1.6790   -3.3132    4.6351 C   0  0  0  0  0  0  0  0  0  0  0  0
    3.0959   -3.0665    4.0470 C   0  0  1  0  0  0  0  0  0  0  0  0
    3.2083   -2.8663    2.4951 C   0  0  1  0  0  0  0  0  0  0  0  0
    2.1509   -1.8503    1.9841 C   0  0  0  0  0  0  0  0  0  0  0  0
    3.0227   -4.2456    1.7900 C   0  0  1  0  0  0  0  0  0  0  0  0
    1.8160   -4.9200    2.0930 O   0  0  0  0  0  0  0  0  0  0  0  0
    3.1568   -4.1197    0.2993 C   0  0  2  0  0  0  0  0  0  0  0  0
    4.3646   -4.6686   -0.2335 O   0  0  0  0  0  0  0  0  0  0  0  0
    4.2444   -3.2421   -0.2634 C   0  0  1  0  0  0  0  0  0  0  0  0
    2.7391   -3.8536   -2.5646 H   0  0  0  0  0  0  0  0  0  0  0  0
    3.3534   -2.4479   -3.5797 H   0  0  0  0  0  0  0  0  0  0  0  0
    5.9953   -1.6609   -1.9516 H   0  0  0  0  0  0  0  0  0  0  0  0
    3.6376   -0.1221   -2.0792 H   0  0  0  0  0  0  0  0  0  0  0  0
    5.9571   -0.4155    0.1668 H   0  0  0  0  0  0  0  0  0  0  0  0
    4.2081   -0.4921    0.2093 H   0  0  0  0  0  0  0  0  0  0  0  0
    6.6255   -3.9943    0.9948 H   0  0  0  0  0  0  0  0  0  0  0  0
    7.2758   -2.3648    1.1467 H   0  0  0  0  0  0  0  0  0  0  0  0
    6.9547   -3.0567   -0.4426 H   0  0  0  0  0  0  0  0  0  0  0  0
    5.2661   -3.1968    2.6061 H   0  0  0  0  0  0  0  0  0  0  0  0
    6.2106   -0.9747    2.7836 H   0  0  0  0  0  0  0  0  0  0  0  0
    3.5583   -0.0751    2.8134 H   0  0  0  0  0  0  0  0  0  0  0  0
    5.6739   -2.1589    4.8209 H   0  0  0  0  0  0  0  0  0  0  0  0
    5.2480   -0.4814    5.0705 H   0  0  0  0  0  0  0  0  0  0  0  0
    2.0064    0.5576    6.3546 H   0  0  0  0  0  0  0  0  0  0  0  0
    3.7402    0.3594    6.5602 H   0  0  0  0  0  0  0  0  0  0  0  0
    2.6204   -0.4632    7.6415 H   0  0  0  0  0  0  0  0  0  0  0  0
    1.6311   -4.2581    5.1723 H   0  0  0  0  0  0  0  0  0  0  0  0
    0.8766   -3.2952    3.8996 H   0  0  0  0  0  0  0  0  0  0  0  0
    3.7374   -3.8951    4.3435 H   0  0  0  0  0  0  0  0  0  0  0  0
    1.1407   -2.2557    2.0207 H   0  0  0  0  0  0  0  0  0  0  0  0
    2.3289   -1.5700    0.9444 H   0  0  0  0  0  0  0  0  0  0  0  0
    2.1276   -0.9343    2.5688 H   0  0  0  0  0  0  0  0  0  0  0  0
    3.8172   -4.9211    2.1092 H   0  0  0  0  0  0  0  0  0  0  0  0
    1.8439   -5.1676    3.0069 H   0  0  0  0  0  0  0  0  0  0  0  0
    2.2583   -4.2301   -0.3016 H   0  0  0  0  0  0  0  0  0  0  0  0
  1  2  2  0
  1 26  1  0
  1 27  1  0
  2 25  1  0
  2  3  1  0
  3  4  1  0
  3  5  1  0
  3 28  1  6
  4 29  1  0
  5  6  1  0
  5 30  1  0
  5 31  1  0
  6 25  1  0
  6  7  1  1
  6  8  1  0
  7 32  1  0
  7 33  1  0
  7 34  1  0
  8 19  1  0
  8  9  1  0
  8 35  1  1
  9 10  1  0
  9 11  1  0
  9 36  1  1
 10 37  1  0
 11 12  1  0
 11 38  1  0
 11 39  1  0
 12 18  1  0
 12 13  2  0
 13 14  1  0
 13 15  1  0
 14 40  1  0
 14 41  1  0
 14 42  1  0
 15 16  2  0
 15 17  1  0
 17 18  1  0
 17 43  1  0
 17 44  1  0
 18 19  1  0
 18 45  1  1
 19 20  1  6
 19 21  1  0
 20 46  1  0
 20 47  1  0
 20 48  1  0
 21 22  1  0
 21 23  1  0
 21 49  1  1
 22 50  1  0
 23 25  1  0
 23 24  1  0
 23 51  1  6
 25 24  1  6
M  END
>  <i_m_ct_stereo_status>  (34) 
1

>  <s_m_source_file>  (34) 
/var/tmp/pbs.5076255.sched01/tmpi0kgw23q/0rwfjwt46.sdf

>  <i_m_source_file_index>  (34) 
21

>  <i_lp_mmshare_version>  (34) 
48012

>  <i_f3d_flags>  (34) 
0

>  <s_epik_input>  (34) 
W0NIMl09QzFbQ0BASF0oW09IXSlbQ0gyXVtDQEBdKFtDQF0xMjMpKFtDSDNdKVtDQEBIXTRbQ0BAXShbQ0gzXSkoW0NAQEhdKFtPSF0pW0NAQEhdMk8zKVtDQEhdNUMoW0NIMl1bQ0BASF00W09IXSk9QyhbQ0gzXSlDKD1PKVtDSDJdNQ==

>  <s_epik_cmdline>  (34) 
J2VwaWtfcHl0aG9uJywgJy1waHQnLCAnMi4wJywgJy1waCcsICc3LjAnLCAnLXRuJywgJzgnLCAnLW1hJywgJzIwMCcsICctaW1hZScsICc8aW5maWxlLm1hZT4nLCAnLW9tYWUnLCAnPG91dGZpbGUubWFlPic=

>  <r_lp_tautomer_probability>  (34) 
0.499977

>  <r_epik_Ionization_Penalty>  (34) 
2.41144e-07

>  <r_epik_Ionization_Penalty_Charging>  (34) 
0

>  <r_epik_Ionization_Penalty_Neutral>  (34) 
2.41144e-07

>  <r_epik_State_Penalty>  (34) 
0.41068

>  <r_epik_Charging_Adjusted_Penalty>  (34) 
0.41068

>  <i_epik_Tot_Q>  (34) 
0

>  <i_epik_Tot_abs_Q>  (34) 
0

>  <s_lp_Force_Field>  (34) 
OPLS3e

>  <r_lp_Energy>  (34) 
28.5107

>  <b_lp_Chiralities_Consistent>  (34) 
1

>  <s_lp_Variant>  (34) 
11:0-1

>  <s_i_glide_gridfile>  (34) 
pfpi4k_grid

>  <i_i_glide_lignum>  (34) 
21

>  <i_i_glide_rotatable_bonds>  (34) 
3

>  <r_i_docking_score>  (34) 
-2.88572

>  <r_i_glide_ligand_efficiency>  (34) 
-0.115429

>  <r_i_glide_ligand_efficiency_sa>  (34) 
-0.337516

>  <r_i_glide_ligand_efficiency_ln>  (34) 
-0.684003

>  <r_i_glide_gscore>  (34) 
-2.88572

>  <r_i_glide_lipo>  (34) 
-0.342818

>  <r_i_glide_hbond>  (34) 
-0.0134193

>  <r_i_glide_metal>  (34) 
-0

>  <r_i_glide_rewards>  (34) 
-1.04715

>  <r_i_glide_evdw>  (34) 
-22.9124

>  <r_i_glide_ecoul>  (34) 
-2.24408

>  <r_i_glide_erotb>  (34) 
0

>  <r_i_glide_esite>  (34) 
-0.000102615

>  <r_i_glide_emodel>  (34) 
-30.3896

>  <r_i_glide_energy>  (34) 
-25.1565

>  <r_i_glide_einternal>  (34) 
0.437748

>  <r_i_glide_intrahb_reward>  (34) 
-0

>  <i_i_glide_confnum>  (34) 
1

>  <i_i_glide_posenum>  (34) 
32

>  <r_i_glide_eff_state_penalty>  (34) 
0

>  <ligand_id>  (34) 
11

>  <original_smiles>  (34) 
C=C1C(O)CC2(C)C3C(O)CC4=C(C)C(=O)CC4C3(C)C(O)C3OC132

>  <smiles>  (34) 
[H]OC1([H])C(=C([H])[H])C23OC2([H])C([H])(O[H])C2(C([H])([H])[H])C4([H])C(=C(C([H])([H])[H])C(=O)C4([H])[H])C([H])([H])C([H])(O[H])C2([H])C3(C([H])([H])[H])C1([H])[H]

$$$$
11:0:2
     RDKit          3D

 51 55  0  0  1  0  0  0  0  0999 V2000
    3.6752   -3.1645   -2.9676 C   0  0  0  0  0  0  0  0  0  0  0  0
    4.3227   -2.5894   -1.9471 C   0  0  0  0  0  0  0  0  0  0  0  0
    4.8286   -1.1739   -1.9370 C   0  0  1  0  0  0  0  0  0  0  0  0
    4.0725   -0.3093   -2.7552 O   0  0  0  0  0  0  0  0  0  0  0  0
    4.8690   -0.8008   -0.4472 C   0  0  0  0  0  0  0  0  0  0  0  0
    5.2768   -2.1000    0.2852 C   0  0  1  0  0  0  0  0  0  0  0  0
    6.8148   -2.2772    0.1845 C   0  0  0  0  0  0  0  0  0  0  0  0
    4.8691   -2.1587    1.8155 C   0  0  1  0  0  0  0  0  0  0  0  0
    5.0266   -0.8089    2.5987 C   0  0  1  0  0  0  0  0  0  0  0  0
    4.0247    0.1405    2.2843 O   0  0  0  0  0  0  0  0  0  0  0  0
    4.9452   -1.0253    4.1163 C   0  0  0  0  0  0  0  0  0  0  0  0
    3.7188   -1.8340    4.4692 C   0  0  0  0  0  0  0  0  0  0  0  0
    2.7560   -1.5499    5.3543 C   0  0  0  0  0  0  0  0  0  0  0  0
    2.5605   -0.3515    6.2647 C   0  0  0  0  0  0  0  0  0  0  0  0
    1.7996   -2.6515    5.3474 C   0  0  0  0  0  0  0  0  0  0  0  0
    0.7609   -2.7445    6.0033 O   0  0  0  0  0  0  0  0  0  0  0  0
    2.2468   -3.7353    4.3762 C   0  0  0  0  0  0  0  0  0  0  0  0
    3.5388   -3.1502    3.7420 C   0  0  1  0  0  0  0  0  0  0  0  0
    3.5688   -2.9706    2.1843 C   0  0  1  0  0  0  0  0  0  0  0  0
    2.2829   -2.2618    1.6886 C   0  0  0  0  0  0  0  0  0  0  0  0
    3.7103   -4.3672    1.5066 C   0  0  1  0  0  0  0  0  0  0  0  0
    2.6919   -5.2956    1.8277 O   0  0  0  0  0  0  0  0  0  0  0  0
    3.7825   -4.2451    0.0133 C   0  0  2  0  0  0  0  0  0  0  0  0
    5.0759   -4.5018   -0.5358 O   0  0  0  0  0  0  0  0  0  0  0  0
    4.6081   -3.1460   -0.5967 C   0  0  1  0  0  0  0  0  0  0  0  0
    3.3314   -4.1775   -2.8774 H   0  0  0  0  0  0  0  0  0  0  0  0
    3.4758   -2.6615   -3.9047 H   0  0  0  0  0  0  0  0  0  0  0  0
    5.8411   -1.2038   -2.3209 H   0  0  0  0  0  0  0  0  0  0  0  0
    3.2030   -0.2198   -2.3869 H   0  0  0  0  0  0  0  0  0  0  0  0
    5.5571    0.0121   -0.2317 H   0  0  0  0  0  0  0  0  0  0  0  0
    3.8655   -0.4899   -0.1580 H   0  0  0  0  0  0  0  0  0  0  0  0
    7.1315   -3.2312    0.6145 H   0  0  0  0  0  0  0  0  0  0  0  0
    7.3468   -1.4891    0.7216 H   0  0  0  0  0  0  0  0  0  0  0  0
    7.1779   -2.2793   -0.8470 H   0  0  0  0  0  0  0  0  0  0  0  0
    5.6556   -2.7778    2.2539 H   0  0  0  0  0  0  0  0  0  0  0  0
    5.9915   -0.3649    2.3534 H   0  0  0  0  0  0  0  0  0  0  0  0
    4.0640    0.3337    1.3606 H   0  0  0  0  0  0  0  0  0  0  0  0
    5.7998   -1.6204    4.4400 H   0  0  0  0  0  0  0  0  0  0  0  0
    4.9847   -0.0786    4.6531 H   0  0  0  0  0  0  0  0  0  0  0  0
    1.6193    0.1345    6.0157 H   0  0  0  0  0  0  0  0  0  0  0  0
    3.3544    0.3861    6.1764 H   0  0  0  0  0  0  0  0  0  0  0  0
    2.5008   -0.6684    7.3051 H   0  0  0  0  0  0  0  0  0  0  0  0
    2.4584   -4.6503    4.9269 H   0  0  0  0  0  0  0  0  0  0  0  0
    1.4556   -3.9401    3.6570 H   0  0  0  0  0  0  0  0  0  0  0  0
    4.3760   -3.7783    4.0371 H   0  0  0  0  0  0  0  0  0  0  0  0
    1.4169   -2.9100    1.7731 H   0  0  0  0  0  0  0  0  0  0  0  0
    2.3600   -1.9729    0.6395 H   0  0  0  0  0  0  0  0  0  0  0  0
    2.0421   -1.3658    2.2547 H   0  0  0  0  0  0  0  0  0  0  0  0
    4.6544   -4.8150    1.8275 H   0  0  0  0  0  0  0  0  0  0  0  0
    2.9784   -6.1439    1.5215 H   0  0  0  0  0  0  0  0  0  0  0  0
    2.9265   -4.5863   -0.5626 H   0  0  0  0  0  0  0  0  0  0  0  0
  1  2  2  0
  1 26  1  0
  1 27  1  0
  2 25  1  0
  2  3  1  0
  3  4  1  0
  3  5  1  0
  3 28  1  6
  4 29  1  0
  5  6  1  0
  5 30  1  0
  5 31  1  0
  6 25  1  0
  6  7  1  1
  6  8  1  0
  7 32  1  0
  7 33  1  0
  7 34  1  0
  8 19  1  0
  8  9  1  0
  8 35  1  1
  9 10  1  0
  9 11  1  0
  9 36  1  1
 10 37  1  0
 11 12  1  0
 11 38  1  0
 11 39  1  0
 12 18  1  0
 12 13  2  0
 13 14  1  0
 13 15  1  0
 14 40  1  0
 14 41  1  0
 14 42  1  0
 15 16  2  0
 15 17  1  0
 17 18  1  0
 17 43  1  0
 17 44  1  0
 18 19  1  0
 18 45  1  1
 19 20  1  6
 19 21  1  0
 20 46  1  0
 20 47  1  0
 20 48  1  0
 21 22  1  0
 21 23  1  0
 21 49  1  1
 22 50  1  0
 23 25  1  0
 23 24  1  0
 23 51  1  6
 25 24  1  6
M  END
>  <i_m_ct_stereo_status>  (35) 
1

>  <s_m_source_file>  (35) 
/var/tmp/pbs.5076255.sched01/tmpi0kgw23q/0rwfjwt46.sdf

>  <i_m_source_file_index>  (35) 
21

>  <i_lp_mmshare_version>  (35) 
48012

>  <i_f3d_flags>  (35) 
0

>  <s_epik_input>  (35) 
W0NIMl09QzFbQ0BASF0oW09IXSlbQ0gyXVtDQEBdKFtDQF0xMjMpKFtDSDNdKVtDQEBIXTRbQ0BAXShbQ0gzXSkoW0NAQEhdKFtPSF0pW0NAQEhdMk8zKVtDQEhdNUMoW0NIMl1bQ0BASF00W09IXSk9QyhbQ0gzXSlDKD1PKVtDSDJdNQ==

>  <s_epik_cmdline>  (35) 
J2VwaWtfcHl0aG9uJywgJy1waHQnLCAnMi4wJywgJy1waCcsICc3LjAnLCAnLXRuJywgJzgnLCAnLW1hJywgJzIwMCcsICctaW1hZScsICc8aW5maWxlLm1hZT4nLCAnLW9tYWUnLCAnPG91dGZpbGUubWFlPic=

>  <r_lp_tautomer_probability>  (35) 
0.499977

>  <r_epik_Ionization_Penalty>  (35) 
2.41144e-07

>  <r_epik_Ionization_Penalty_Charging>  (35) 
0

>  <r_epik_Ionization_Penalty_Neutral>  (35) 
2.41144e-07

>  <r_epik_State_Penalty>  (35) 
0.41068

>  <r_epik_Charging_Adjusted_Penalty>  (35) 
0.41068

>  <i_epik_Tot_Q>  (35) 
0

>  <i_epik_Tot_abs_Q>  (35) 
0

>  <s_lp_Force_Field>  (35) 
OPLS3e

>  <r_lp_Energy>  (35) 
28.5107

>  <b_lp_Chiralities_Consistent>  (35) 
1

>  <s_lp_Variant>  (35) 
11:0-1

>  <s_i_glide_gridfile>  (35) 
pfpi4k_grid

>  <i_i_glide_lignum>  (35) 
21

>  <i_i_glide_rotatable_bonds>  (35) 
3

>  <r_i_docking_score>  (35) 
-2.80242

>  <r_i_glide_ligand_efficiency>  (35) 
-0.112097

>  <r_i_glide_ligand_efficiency_sa>  (35) 
-0.327773

>  <r_i_glide_ligand_efficiency_ln>  (35) 
-0.664258

>  <r_i_glide_gscore>  (35) 
-2.80242

>  <r_i_glide_lipo>  (35) 
-0.344352

>  <r_i_glide_hbond>  (35) 
0

>  <r_i_glide_metal>  (35) 
-0

>  <r_i_glide_rewards>  (35) 
-1.04726

>  <r_i_glide_evdw>  (35) 
-21.929

>  <r_i_glide_ecoul>  (35) 
-2.09575

>  <r_i_glide_erotb>  (35) 
0

>  <r_i_glide_esite>  (35) 
0

>  <r_i_glide_emodel>  (35) 
-28.9774

>  <r_i_glide_energy>  (35) 
-24.0247

>  <r_i_glide_einternal>  (35) 
0.722014

>  <r_i_glide_intrahb_reward>  (35) 
-0

>  <i_i_glide_confnum>  (35) 
1

>  <i_i_glide_posenum>  (35) 
1

>  <r_i_glide_eff_state_penalty>  (35) 
0

>  <ligand_id>  (35) 
11

>  <original_smiles>  (35) 
C=C1C(O)CC2(C)C3C(O)CC4=C(C)C(=O)CC4C3(C)C(O)C3OC132

>  <smiles>  (35) 
[H]OC1([H])C(=C([H])[H])C23OC2([H])C([H])(O[H])C2(C([H])([H])[H])C4([H])C(=C(C([H])([H])[H])C(=O)C4([H])[H])C([H])([H])C([H])(O[H])C2([H])C3(C([H])([H])[H])C1([H])[H]

$$$$
11:1:0
     RDKit          3D

 51 55  0  0  1  0  0  0  0  0999 V2000
    4.8888   -3.3783   -3.1117 C   0  0  0  0  0  0  0  0  0  0  0  0
    4.8034   -2.6790   -1.9697 C   0  0  0  0  0  0  0  0  0  0  0  0
    4.1375   -1.3311   -1.8041 C   0  0  1  0  0  0  0  0  0  0  0  0
    3.0143   -1.1658   -2.6478 O   0  0  0  0  0  0  0  0  0  0  0  0
    3.7707   -1.2830   -0.3086 C   0  0  0  0  0  0  0  0  0  0  0  0
    4.8837   -2.0591    0.4349 C   0  0  1  0  0  0  0  0  0  0  0  0
    6.0984   -1.1025    0.5754 C   0  0  0  0  0  0  0  0  0  0  0  0
    4.3340   -2.6512    1.8151 C   0  0  2  0  0  0  0  0  0  0  0  0
    5.0904   -2.1661    3.1045 C   0  0  1  0  0  0  0  0  0  0  0  0
    4.9715   -0.7669    3.2944 O   0  0  0  0  0  0  0  0  0  0  0  0
    4.5905   -2.7916    4.4223 C   0  0  0  0  0  0  0  0  0  0  0  0
    4.6442   -4.3199    4.3565 C   0  0  1  0  0  0  0  0  0  0  0  0
    4.0761   -5.1105    5.5704 C   0  0  1  0  0  0  0  0  0  0  0  0
    3.9137   -4.3547    6.8994 C   0  0  0  0  0  0  0  0  0  0  0  0
    2.7733   -5.6796    5.0241 C   0  0  0  0  0  0  0  0  0  0  0  0
    1.9191   -6.2115    5.7293 O   0  0  0  0  0  0  0  0  0  0  0  0
    2.7178   -5.4859    3.5873 C   0  0  0  0  0  0  0  0  0  0  0  0
    3.7724   -4.7492    3.1960 C   0  0  0  0  0  0  0  0  0  0  0  0
    4.0683   -4.2110    1.7847 C   0  0  1  0  0  0  0  0  0  0  0  0
    2.8236   -4.5043    0.8996 C   0  0  0  0  0  0  0  0  0  0  0  0
    5.2751   -4.9798    1.1646 C   0  0  2  0  0  0  0  0  0  0  0  0
    6.5006   -4.8369    1.8591 O   0  0  0  0  0  0  0  0  0  0  0  0
    5.5131   -4.5541   -0.2647 C   0  0  2  0  0  0  0  0  0  0  0  0
    6.5754   -3.6283   -0.5249 O   0  0  0  0  0  0  0  0  0  0  0  0
    5.2505   -3.1044   -0.6152 C   0  0  1  0  0  0  0  0  0  0  0  0
    5.3556   -4.3506   -3.1324 H   0  0  0  0  0  0  0  0  0  0  0  0
    4.4904   -2.9997   -4.0439 H   0  0  0  0  0  0  0  0  0  0  0  0
    4.8761   -0.5599   -2.0276 H   0  0  0  0  0  0  0  0  0  0  0  0
    2.2434   -1.0557   -2.1001 H   0  0  0  0  0  0  0  0  0  0  0  0
    3.6366   -0.2699    0.0687 H   0  0  0  0  0  0  0  0  0  0  0  0
    2.8192   -1.7977   -0.1745 H   0  0  0  0  0  0  0  0  0  0  0  0
    6.9161   -1.5506    1.1395 H   0  0  0  0  0  0  0  0  0  0  0  0
    5.8257   -0.1570    1.0438 H   0  0  0  0  0  0  0  0  0  0  0  0
    6.5180   -0.8452   -0.3952 H   0  0  0  0  0  0  0  0  0  0  0  0
    3.3423   -2.2189    1.9535 H   0  0  0  0  0  0  0  0  0  0  0  0
    6.1457   -2.4083    3.0073 H   0  0  0  0  0  0  0  0  0  0  0  0
    4.0547   -0.5406    3.3408 H   0  0  0  0  0  0  0  0  0  0  0  0
    5.2086   -2.4417    5.2495 H   0  0  0  0  0  0  0  0  0  0  0  0
    3.5744   -2.4614    4.6378 H   0  0  0  0  0  0  0  0  0  0  0  0
    3.5776   -5.0275    7.6905 H   0  0  0  0  0  0  0  0  0  0  0  0
    3.1804   -3.5521    6.8273 H   0  0  0  0  0  0  0  0  0  0  0  0
    4.8584   -3.9237    7.2309 H   0  0  0  0  0  0  0  0  0  0  0  0
    1.9170   -5.8709    2.9783 H   0  0  0  0  0  0  0  0  0  0  0  0
    4.7239   -5.9678    5.7542 H   0  0  0  0  0  0  0  0  0  0  0  0
    5.6730   -4.6386    4.2069 H   0  0  0  0  0  0  0  0  0  0  0  0
    2.9072   -4.1300   -0.1183 H   0  0  0  0  0  0  0  0  0  0  0  0
    1.9329   -4.0445    1.3266 H   0  0  0  0  0  0  0  0  0  0  0  0
    2.6431   -5.5771    0.8116 H   0  0  0  0  0  0  0  0  0  0  0  0
    5.0553   -6.0512    1.1519 H   0  0  0  0  0  0  0  0  0  0  0  0
    6.4195   -5.2313    2.7131 H   0  0  0  0  0  0  0  0  0  0  0  0
    5.3348   -5.3039   -1.0320 H   0  0  0  0  0  0  0  0  0  0  0  0
  1  2  2  0
  1 26  1  0
  1 27  1  0
  2 25  1  0
  2  3  1  0
  3  4  1  0
  3  5  1  0
  3 28  1  1
  4 29  1  0
  5  6  1  0
  5 30  1  0
  5 31  1  0
  6 25  1  0
  6  7  1  1
  6  8  1  0
  7 32  1  0
  7 33  1  0
  7 34  1  0
  8 19  1  0
  8  9  1  0
  8 35  1  1
  9 10  1  0
  9 11  1  0
  9 36  1  6
 10 37  1  0
 11 38  1  0
 11 39  1  0
 11 12  1  0
 12 18  1  0
 12 45  1  6
 12 13  1  0
 13 14  1  0
 13 44  1  1
 13 15  1  0
 14 40  1  0
 14 41  1  0
 14 42  1  0
 15 16  2  0
 15 17  1  0
 17 18  2  0
 17 43  1  0
 18 19  1  0
 19 20  1  6
 19 21  1  0
 20 46  1  0
 20 47  1  0
 20 48  1  0
 21 22  1  0
 21 23  1  0
 21 49  1  6
 22 50  1  0
 23 25  1  0
 23 24  1  0
 23 51  1  6
 25 24  1  6
M  END
>  <i_m_ct_stereo_status>  (36) 
1

>  <s_m_source_file>  (36) 
/var/tmp/pbs.5076255.sched01/tmpi0kgw23q/0rwfjwt46.sdf

>  <i_m_source_file_index>  (36) 
22

>  <i_lp_mmshare_version>  (36) 
48012

>  <i_f3d_flags>  (36) 
0

>  <s_epik_input>  (36) 
W0NIMl09QzFbQ0BASF0oW09IXSlbQ0gyXVtDQEBdKFtDQF0xMjMpKFtDSDNdKVtDQEBIXTRbQ0BAXShbQ0gzXSkoW0NAQEhdKFtPSF0pW0NAQEhdMk8zKVtDQEhdNUMoW0NIMl1bQ0BASF00W09IXSk9QyhbQ0gzXSlDKD1PKVtDSDJdNQ==

>  <s_epik_cmdline>  (36) 
J2VwaWtfcHl0aG9uJywgJy1waHQnLCAnMi4wJywgJy1waCcsICc3LjAnLCAnLXRuJywgJzgnLCAnLW1hJywgJzIwMCcsICctaW1hZScsICc8aW5maWxlLm1hZT4nLCAnLW9tYWUnLCAnPG91dGZpbGUubWFlPic=

>  <r_lp_tautomer_probability>  (36) 
0.499977

>  <r_epik_Ionization_Penalty>  (36) 
2.28305e-07

>  <r_epik_Ionization_Penalty_Charging>  (36) 
0

>  <r_epik_Ionization_Penalty_Neutral>  (36) 
2.28305e-07

>  <r_epik_State_Penalty>  (36) 
0.41068

>  <r_epik_Charging_Adjusted_Penalty>  (36) 
0.41068

>  <i_epik_Tot_Q>  (36) 
0

>  <i_epik_Tot_abs_Q>  (36) 
0

>  <s_lp_Force_Field>  (36) 
OPLS3e

>  <r_lp_Energy>  (36) 
40.5591

>  <b_lp_Chiralities_Consistent>  (36) 
1

>  <s_lp_Variant>  (36) 
11:0-2

>  <s_i_glide_gridfile>  (36) 
pfpi4k_grid

>  <i_i_glide_lignum>  (36) 
22

>  <i_i_glide_rotatable_bonds>  (36) 
3

>  <r_i_docking_score>  (36) 
-3.5163

>  <r_i_glide_ligand_efficiency>  (36) 
-0.140652

>  <r_i_glide_ligand_efficiency_sa>  (36) 
-0.411269

>  <r_i_glide_ligand_efficiency_ln>  (36) 
-0.833469

>  <r_i_glide_gscore>  (36) 
-3.5163

>  <r_i_glide_lipo>  (36) 
-0.610235

>  <r_i_glide_hbond>  (36) 
-0.16

>  <r_i_glide_metal>  (36) 
-0

>  <r_i_glide_rewards>  (36) 
-1.04715

>  <r_i_glide_evdw>  (36) 
-24.215

>  <r_i_glide_ecoul>  (36) 
-3.25443

>  <r_i_glide_erotb>  (36) 
0

>  <r_i_glide_esite>  (36) 
0

>  <r_i_glide_emodel>  (36) 
-32.8729

>  <r_i_glide_energy>  (36) 
-27.4694

>  <r_i_glide_einternal>  (36) 
1.16904

>  <r_i_glide_intrahb_reward>  (36) 
-0

>  <i_i_glide_confnum>  (36) 
1

>  <i_i_glide_posenum>  (36) 
20

>  <r_i_glide_eff_state_penalty>  (36) 
0

>  <ligand_id>  (36) 
11

>  <original_smiles>  (36) 
C=C1C(O)CC2(C)C3C(O)CC4=C(C)C(=O)CC4C3(C)C(O)C3OC132

>  <smiles>  (36) 
[H]OC1([H])C(=C([H])[H])C23OC2([H])C([H])(O[H])C2(C([H])([H])[H])C4=C([H])C(=O)C([H])(C([H])([H])[H])C4([H])C([H])([H])C([H])(O[H])C2([H])C3(C([H])([H])[H])C1([H])[H]

$$$$
11:1:1
     RDKit          3D

 51 55  0  0  1  0  0  0  0  0999 V2000
    4.8252   -3.4169   -3.1103 C   0  0  0  0  0  0  0  0  0  0  0  0
    4.7565   -2.7211   -1.9627 C   0  0  0  0  0  0  0  0  0  0  0  0
    4.1268   -1.3585   -1.7954 C   0  0  1  0  0  0  0  0  0  0  0  0
    3.0190   -1.1591   -2.6437 O   0  0  0  0  0  0  0  0  0  0  0  0
    3.7546   -1.3041   -0.3028 C   0  0  0  0  0  0  0  0  0  0  0  0
    4.8426   -2.1154    0.4434 C   0  0  1  0  0  0  0  0  0  0  0  0
    6.0838   -1.1937    0.5923 C   0  0  0  0  0  0  0  0  0  0  0  0
    4.2701   -2.6977    1.8179 C   0  0  2  0  0  0  0  0  0  0  0  0
    5.0328   -2.2403    3.1138 C   0  0  1  0  0  0  0  0  0  0  0  0
    4.9534   -0.8398    3.3088 O   0  0  0  0  0  0  0  0  0  0  0  0
    4.5092   -2.8567    4.4249 C   0  0  0  0  0  0  0  0  0  0  0  0
    4.5203   -4.3854    4.3522 C   0  0  1  0  0  0  0  0  0  0  0  0
    3.9236   -5.1645    5.5583 C   0  0  1  0  0  0  0  0  0  0  0  0
    3.7755   -4.4100    6.8920 C   0  0  0  0  0  0  0  0  0  0  0  0
    2.6091   -5.6928    5.0040 C   0  0  0  0  0  0  0  0  0  0  0  0
    1.7347   -6.2017    5.7030 O   0  0  0  0  0  0  0  0  0  0  0  0
    2.5656   -5.4905    3.5690 C   0  0  0  0  0  0  0  0  0  0  0  0
    3.6398   -4.7832    3.1849 C   0  0  0  0  0  0  0  0  0  0  0  0
    3.9592   -4.2493    1.7787 C   0  0  1  0  0  0  0  0  0  0  0  0
    2.7108   -4.5017    0.8873 C   0  0  0  0  0  0  0  0  0  0  0  0
    5.1426   -5.0532    1.1636 C   0  0  2  0  0  0  0  0  0  0  0  0
    6.3596   -4.9659    1.8842 O   0  0  0  0  0  0  0  0  0  0  0  0
    5.4050   -4.6277   -0.2634 C   0  0  2  0  0  0  0  0  0  0  0  0
    6.4956   -3.7320   -0.5072 O   0  0  0  0  0  0  0  0  0  0  0  0
    5.1862   -3.1672   -0.6065 C   0  0  1  0  0  0  0  0  0  0  0  0
    5.2589   -4.4016   -3.1358 H   0  0  0  0  0  0  0  0  0  0  0  0
    4.4387   -3.0175   -4.0396 H   0  0  0  0  0  0  0  0  0  0  0  0
    4.8846   -0.6053   -2.0147 H   0  0  0  0  0  0  0  0  0  0  0  0
    2.2386   -1.0582   -2.1007 H   0  0  0  0  0  0  0  0  0  0  0  0
    3.6475   -0.2864    0.0716 H   0  0  0  0  0  0  0  0  0  0  0  0
    2.7879   -1.7905   -0.1720 H   0  0  0  0  0  0  0  0  0  0  0  0
    6.8845   -1.6690    1.1587 H   0  0  0  0  0  0  0  0  0  0  0  0
    5.8366   -0.2436    1.0656 H   0  0  0  0  0  0  0  0  0  0  0  0
    6.5157   -0.9444   -0.3764 H   0  0  0  0  0  0  0  0  0  0  0  0
    3.2900   -2.2375    1.9532 H   0  0  0  0  0  0  0  0  0  0  0  0
    6.0802   -2.5169    3.0213 H   0  0  0  0  0  0  0  0  0  0  0  0
    4.0407   -0.5923    3.3682 H   0  0  0  0  0  0  0  0  0  0  0  0
    5.1317   -2.5282    5.2572 H   0  0  0  0  0  0  0  0  0  0  0  0
    3.5017   -2.4995    4.6371 H   0  0  0  0  0  0  0  0  0  0  0  0
    3.4169   -5.0756    7.6784 H   0  0  0  0  0  0  0  0  0  0  0  0
    3.0662   -3.5866    6.8212 H   0  0  0  0  0  0  0  0  0  0  0  0
    4.7301   -4.0077    7.2310 H   0  0  0  0  0  0  0  0  0  0  0  0
    1.7581   -5.8495    2.9519 H   0  0  0  0  0  0  0  0  0  0  0  0
    4.5459   -6.0406    5.7435 H   0  0  0  0  0  0  0  0  0  0  0  0
    5.5386   -4.7357    4.1954 H   0  0  0  0  0  0  0  0  0  0  0  0
    2.8080   -4.1238   -0.1280 H   0  0  0  0  0  0  0  0  0  0  0  0
    1.8332   -4.0190    1.3164 H   0  0  0  0  0  0  0  0  0  0  0  0
    2.5012   -5.5687    0.7939 H   0  0  0  0  0  0  0  0  0  0  0  0
    4.8860   -6.1177    1.1429 H   0  0  0  0  0  0  0  0  0  0  0  0
    7.0113   -5.4903    1.4388 H   0  0  0  0  0  0  0  0  0  0  0  0
    5.2047   -5.3627   -1.0375 H   0  0  0  0  0  0  0  0  0  0  0  0
  1  2  2  0
  1 26  1  0
  1 27  1  0
  2 25  1  0
  2  3  1  0
  3  4  1  0
  3  5  1  0
  3 28  1  1
  4 29  1  0
  5  6  1  0
  5 30  1  0
  5 31  1  0
  6 25  1  0
  6  7  1  1
  6  8  1  0
  7 32  1  0
  7 33  1  0
  7 34  1  0
  8 19  1  0
  8  9  1  0
  8 35  1  1
  9 10  1  0
  9 11  1  0
  9 36  1  6
 10 37  1  0
 11 38  1  0
 11 39  1  0
 11 12  1  0
 12 18  1  0
 12 45  1  6
 12 13  1  0
 13 14  1  0
 13 44  1  1
 13 15  1  0
 14 40  1  0
 14 41  1  0
 14 42  1  0
 15 16  2  0
 15 17  1  0
 17 18  2  0
 17 43  1  0
 18 19  1  0
 19 20  1  6
 19 21  1  0
 20 46  1  0
 20 47  1  0
 20 48  1  0
 21 22  1  0
 21 23  1  0
 21 49  1  6
 22 50  1  0
 23 25  1  0
 23 24  1  0
 23 51  1  6
 25 24  1  6
M  END
>  <i_m_ct_stereo_status>  (37) 
1

>  <s_m_source_file>  (37) 
/var/tmp/pbs.5076255.sched01/tmpi0kgw23q/0rwfjwt46.sdf

>  <i_m_source_file_index>  (37) 
22

>  <i_lp_mmshare_version>  (37) 
48012

>  <i_f3d_flags>  (37) 
0

>  <s_epik_input>  (37) 
W0NIMl09QzFbQ0BASF0oW09IXSlbQ0gyXVtDQEBdKFtDQF0xMjMpKFtDSDNdKVtDQEBIXTRbQ0BAXShbQ0gzXSkoW0NAQEhdKFtPSF0pW0NAQEhdMk8zKVtDQEhdNUMoW0NIMl1bQ0BASF00W09IXSk9QyhbQ0gzXSlDKD1PKVtDSDJdNQ==

>  <s_epik_cmdline>  (37) 
J2VwaWtfcHl0aG9uJywgJy1waHQnLCAnMi4wJywgJy1waCcsICc3LjAnLCAnLXRuJywgJzgnLCAnLW1hJywgJzIwMCcsICctaW1hZScsICc8aW5maWxlLm1hZT4nLCAnLW9tYWUnLCAnPG91dGZpbGUubWFlPic=

>  <r_lp_tautomer_probability>  (37) 
0.499977

>  <r_epik_Ionization_Penalty>  (37) 
2.28305e-07

>  <r_epik_Ionization_Penalty_Charging>  (37) 
0

>  <r_epik_Ionization_Penalty_Neutral>  (37) 
2.28305e-07

>  <r_epik_State_Penalty>  (37) 
0.41068

>  <r_epik_Charging_Adjusted_Penalty>  (37) 
0.41068

>  <i_epik_Tot_Q>  (37) 
0

>  <i_epik_Tot_abs_Q>  (37) 
0

>  <s_lp_Force_Field>  (37) 
OPLS3e

>  <r_lp_Energy>  (37) 
40.5591

>  <b_lp_Chiralities_Consistent>  (37) 
1

>  <s_lp_Variant>  (37) 
11:0-2

>  <s_i_glide_gridfile>  (37) 
pfpi4k_grid

>  <i_i_glide_lignum>  (37) 
22

>  <i_i_glide_rotatable_bonds>  (37) 
3

>  <r_i_docking_score>  (37) 
-3.47789

>  <r_i_glide_ligand_efficiency>  (37) 
-0.139116

>  <r_i_glide_ligand_efficiency_sa>  (37) 
-0.406776

>  <r_i_glide_ligand_efficiency_ln>  (37) 
-0.824364

>  <r_i_glide_gscore>  (37) 
-3.47789

>  <r_i_glide_lipo>  (37) 
-0.559425

>  <r_i_glide_hbond>  (37) 
-0.16

>  <r_i_glide_metal>  (37) 
-0

>  <r_i_glide_rewards>  (37) 
-1.04715

>  <r_i_glide_evdw>  (37) 
-24.3317

>  <r_i_glide_ecoul>  (37) 
-3.29818

>  <r_i_glide_erotb>  (37) 
0

>  <r_i_glide_esite>  (37) 
0

>  <r_i_glide_emodel>  (37) 
-33.0106

>  <r_i_glide_energy>  (37) 
-27.6299

>  <r_i_glide_einternal>  (37) 
1.13031

>  <r_i_glide_intrahb_reward>  (37) 
-0

>  <i_i_glide_confnum>  (37) 
1

>  <i_i_glide_posenum>  (37) 
30

>  <r_i_glide_eff_state_penalty>  (37) 
0

>  <ligand_id>  (37) 
11

>  <original_smiles>  (37) 
C=C1C(O)CC2(C)C3C(O)CC4=C(C)C(=O)CC4C3(C)C(O)C3OC132

>  <smiles>  (37) 
[H]OC1([H])C(=C([H])[H])C23OC2([H])C([H])(O[H])C2(C([H])([H])[H])C4=C([H])C(=O)C([H])(C([H])([H])[H])C4([H])C([H])([H])C([H])(O[H])C2([H])C3(C([H])([H])[H])C1([H])[H]

$$$$
11:1:2
     RDKit          3D

 51 55  0  0  1  0  0  0  0  0999 V2000
    4.8431   -3.4418   -3.1323 C   0  0  0  0  0  0  0  0  0  0  0  0
    4.7891   -2.7332   -1.9832 C   0  0  0  0  0  0  0  0  0  0  0  0
    4.1817   -1.3619   -1.8434 C   0  0  1  0  0  0  0  0  0  0  0  0
    3.0735   -1.1679   -2.6975 O   0  0  0  0  0  0  0  0  0  0  0  0
    3.8085   -1.2767   -0.3544 C   0  0  0  0  0  0  0  0  0  0  0  0
    4.8706   -2.1001    0.4074 C   0  0  1  0  0  0  0  0  0  0  0  0
    6.1341   -1.2077    0.5468 C   0  0  0  0  0  0  0  0  0  0  0  0
    4.2858   -2.6530    1.7861 C   0  0  2  0  0  0  0  0  0  0  0  0
    5.0502   -2.1975    3.0807 C   0  0  1  0  0  0  0  0  0  0  0  0
    4.9966   -0.7934    3.2521 O   0  0  0  0  0  0  0  0  0  0  0  0
    4.5098   -2.7813    4.3999 C   0  0  0  0  0  0  0  0  0  0  0  0
    4.4923   -4.3121    4.3487 C   0  0  1  0  0  0  0  0  0  0  0  0
    3.8775   -5.0600    5.5608 C   0  0  1  0  0  0  0  0  0  0  0  0
    3.7360   -4.2867    6.8878 C   0  0  0  0  0  0  0  0  0  0  0  0
    2.5649   -5.5668    4.9967 C   0  0  0  0  0  0  0  0  0  0  0  0
    1.6812   -6.0507    5.7118 O   0  0  0  0  0  0  0  0  0  0  0  0
    2.5174   -5.3964    3.5598 C   0  0  0  0  0  0  0  0  0  0  0  0
    3.6187   -4.7071    3.1770 C   0  0  0  0  0  0  0  0  0  0  0  0
    3.9454   -4.1995    1.7699 C   0  0  1  0  0  0  0  0  0  0  0  0
    2.6974   -4.4406    0.8751 C   0  0  0  0  0  0  0  0  0  0  0  0
    5.1159   -5.0329    1.1766 C   0  0  2  0  0  0  0  0  0  0  0  0
    6.3290   -4.9329    1.8971 O   0  0  0  0  0  0  0  0  0  0  0  0
    5.3891   -4.6277   -0.2490 C   0  0  2  0  0  0  0  0  0  0  0  0
    6.4958   -3.7472   -0.4737 O   0  0  0  0  0  0  0  0  0  0  0  0
    5.1972   -3.1739   -0.6186 C   0  0  1  0  0  0  0  0  0  0  0  0
    5.2569   -4.4306   -3.1360 H   0  0  0  0  0  0  0  0  0  0  0  0
    4.4713   -3.0457   -4.0656 H   0  0  0  0  0  0  0  0  0  0  0  0
    4.9534   -0.6282   -2.0787 H   0  0  0  0  0  0  0  0  0  0  0  0
    2.2963   -1.0595   -2.1570 H   0  0  0  0  0  0  0  0  0  0  0  0
    3.7249   -0.2560    0.0156 H   0  0  0  0  0  0  0  0  0  0  0  0
    2.8345   -1.7471   -0.2215 H   0  0  0  0  0  0  0  0  0  0  0  0
    6.9235   -1.6858    1.1260 H   0  0  0  0  0  0  0  0  0  0  0  0
    5.9025   -0.2471    1.0018 H   0  0  0  0  0  0  0  0  0  0  0  0
    6.5738   -0.9847   -0.4235 H   0  0  0  0  0  0  0  0  0  0  0  0
    3.3150   -2.1722    1.9027 H   0  0  0  0  0  0  0  0  0  0  0  0
    6.0974   -2.4872    3.0019 H   0  0  0  0  0  0  0  0  0  0  0  0
    4.0901   -0.5200    3.2842 H   0  0  0  0  0  0  0  0  0  0  0  0
    5.1353   -2.4498    5.2292 H   0  0  0  0  0  0  0  0  0  0  0  0
    3.5077   -2.4025    4.5983 H   0  0  0  0  0  0  0  0  0  0  0  0
    3.3631   -4.9366    7.6826 H   0  0  0  0  0  0  0  0  0  0  0  0
    3.0417   -3.4517    6.7978 H   0  0  0  0  0  0  0  0  0  0  0  0
    4.6991   -3.8989    7.2224 H   0  0  0  0  0  0  0  0  0  0  0  0
    1.7088   -5.7402    2.9370 H   0  0  0  0  0  0  0  0  0  0  0  0
    4.4750   -5.9507    5.7648 H   0  0  0  0  0  0  0  0  0  0  0  0
    5.5032   -4.6885    4.1986 H   0  0  0  0  0  0  0  0  0  0  0  0
    2.8060   -4.0797   -0.1441 H   0  0  0  0  0  0  0  0  0  0  0  0
    1.8285   -3.9396    1.2945 H   0  0  0  0  0  0  0  0  0  0  0  0
    2.4708   -5.5058    0.7948 H   0  0  0  0  0  0  0  0  0  0  0  0
    4.8510   -6.0925    1.1666 H   0  0  0  0  0  0  0  0  0  0  0  0
    6.6656   -4.0520    1.7716 H   0  0  0  0  0  0  0  0  0  0  0  0
    5.1890   -5.3651   -1.0196 H   0  0  0  0  0  0  0  0  0  0  0  0
  1  2  2  0
  1 26  1  0
  1 27  1  0
  2 25  1  0
  2  3  1  0
  3  4  1  0
  3  5  1  0
  3 28  1  6
  4 29  1  0
  5  6  1  0
  5 30  1  0
  5 31  1  0
  6 25  1  0
  6  7  1  1
  6  8  1  0
  7 32  1  0
  7 33  1  0
  7 34  1  0
  8 19  1  0
  8  9  1  0
  8 35  1  1
  9 10  1  0
  9 11  1  0
  9 36  1  6
 10 37  1  0
 11 38  1  0
 11 39  1  0
 11 12  1  0
 12 18  1  0
 12 45  1  6
 12 13  1  0
 13 14  1  0
 13 44  1  1
 13 15  1  0
 14 40  1  0
 14 41  1  0
 14 42  1  0
 15 16  2  0
 15 17  1  0
 17 18  2  0
 17 43  1  0
 18 19  1  0
 19 20  1  6
 19 21  1  0
 20 46  1  0
 20 47  1  0
 20 48  1  0
 21 22  1  0
 21 23  1  0
 21 49  1  6
 22 50  1  0
 23 25  1  0
 23 24  1  0
 23 51  1  6
 25 24  1  6
M  END
>  <i_m_ct_stereo_status>  (38) 
1

>  <s_m_source_file>  (38) 
/var/tmp/pbs.5076255.sched01/tmpi0kgw23q/0rwfjwt46.sdf

>  <i_m_source_file_index>  (38) 
22

>  <i_lp_mmshare_version>  (38) 
48012

>  <i_f3d_flags>  (38) 
0

>  <s_epik_input>  (38) 
W0NIMl09QzFbQ0BASF0oW09IXSlbQ0gyXVtDQEBdKFtDQF0xMjMpKFtDSDNdKVtDQEBIXTRbQ0BAXShbQ0gzXSkoW0NAQEhdKFtPSF0pW0NAQEhdMk8zKVtDQEhdNUMoW0NIMl1bQ0BASF00W09IXSk9QyhbQ0gzXSlDKD1PKVtDSDJdNQ==

>  <s_epik_cmdline>  (38) 
J2VwaWtfcHl0aG9uJywgJy1waHQnLCAnMi4wJywgJy1waCcsICc3LjAnLCAnLXRuJywgJzgnLCAnLW1hJywgJzIwMCcsICctaW1hZScsICc8aW5maWxlLm1hZT4nLCAnLW9tYWUnLCAnPG91dGZpbGUubWFlPic=

>  <r_lp_tautomer_probability>  (38) 
0.499977

>  <r_epik_Ionization_Penalty>  (38) 
2.28305e-07

>  <r_epik_Ionization_Penalty_Charging>  (38) 
0

>  <r_epik_Ionization_Penalty_Neutral>  (38) 
2.28305e-07

>  <r_epik_State_Penalty>  (38) 
0.41068

>  <r_epik_Charging_Adjusted_Penalty>  (38) 
0.41068

>  <i_epik_Tot_Q>  (38) 
0

>  <i_epik_Tot_abs_Q>  (38) 
0

>  <s_lp_Force_Field>  (38) 
OPLS3e

>  <r_lp_Energy>  (38) 
40.5591

>  <b_lp_Chiralities_Consistent>  (38) 
1

>  <s_lp_Variant>  (38) 
11:0-2

>  <s_i_glide_gridfile>  (38) 
pfpi4k_grid

>  <i_i_glide_lignum>  (38) 
22

>  <i_i_glide_rotatable_bonds>  (38) 
3

>  <r_i_docking_score>  (38) 
-3.46396

>  <r_i_glide_ligand_efficiency>  (38) 
-0.138559

>  <r_i_glide_ligand_efficiency_sa>  (38) 
-0.405148

>  <r_i_glide_ligand_efficiency_ln>  (38) 
-0.821063

>  <r_i_glide_gscore>  (38) 
-3.46396

>  <r_i_glide_lipo>  (38) 
-0.562447

>  <r_i_glide_hbond>  (38) 
-0.155974

>  <r_i_glide_metal>  (38) 
-0

>  <r_i_glide_rewards>  (38) 
-1.04715

>  <r_i_glide_evdw>  (38) 
-24.7346

>  <r_i_glide_ecoul>  (38) 
-3.07772

>  <r_i_glide_erotb>  (38) 
0

>  <r_i_glide_esite>  (38) 
0

>  <r_i_glide_emodel>  (38) 
-33.1106

>  <r_i_glide_energy>  (38) 
-27.8123

>  <r_i_glide_einternal>  (38) 
0.771663

>  <r_i_glide_intrahb_reward>  (38) 
-0

>  <i_i_glide_confnum>  (38) 
2

>  <i_i_glide_posenum>  (38) 
6

>  <r_i_glide_eff_state_penalty>  (38) 
0

>  <ligand_id>  (38) 
11

>  <original_smiles>  (38) 
C=C1C(O)CC2(C)C3C(O)CC4=C(C)C(=O)CC4C3(C)C(O)C3OC132

>  <smiles>  (38) 
[H]OC1([H])C(=C([H])[H])C23OC2([H])C([H])(O[H])C2(C([H])([H])[H])C4=C([H])C(=O)C([H])(C([H])([H])[H])C4([H])C([H])([H])C([H])(O[H])C2([H])C3(C([H])([H])[H])C1([H])[H]

$$$$
11:3:0
     RDKit          3D

 51 55  0  0  1  0  0  0  0  0999 V2000
    1.0081    5.6666    3.6257 C   0  0  0  0  0  0  0  0  0  0  0  0
    0.4189    4.5249    4.0227 C   0  0  0  0  0  0  0  0  0  0  0  0
   -1.0673    4.2427    4.0281 C   0  0  1  0  0  0  0  0  0  0  0  0
   -1.7296    4.7505    2.8761 O   0  0  0  0  0  0  0  0  0  0  0  0
   -1.1610    2.7139    4.1907 C   0  0  0  0  0  0  0  0  0  0  0  0
    0.0685    2.3029    5.0552 C   0  0  1  0  0  0  0  0  0  0  0  0
   -0.2262    2.6182    6.5453 C   0  0  0  0  0  0  0  0  0  0  0  0
    0.4808    0.7937    4.8276 C   0  0  2  0  0  0  0  0  0  0  0  0
   -0.3789   -0.2611    5.6134 C   0  0  1  0  0  0  0  0  0  0  0  0
   -1.7762   -0.0757    5.4674 O   0  0  0  0  0  0  0  0  0  0  0  0
   -0.0729   -1.7071    5.1757 C   0  0  0  0  0  0  0  0  0  0  0  0
    1.4238   -2.0249    5.3299 C   0  0  1  0  0  0  0  0  0  0  0  0
    1.9290   -3.3796    4.7605 C   0  0  1  0  0  0  0  0  0  0  0  0
    0.8810   -4.4610    4.4473 C   0  0  0  0  0  0  0  0  0  0  0  0
    2.7462   -2.9495    3.5466 C   0  0  0  0  0  0  0  0  0  0  0  0
    3.1658   -3.7437    2.7077 O   0  0  0  0  0  0  0  0  0  0  0  0
    2.9363   -1.5076    3.5574 C   0  0  0  0  0  0  0  0  0  0  0  0
    2.2145   -0.9857    4.5596 C   0  0  0  0  0  0  0  0  0  0  0  0
    2.0280    0.4910    4.9410 C   0  0  2  0  0  0  0  0  0  0  0  0
    2.5831    0.6573    6.3871 C   0  0  0  0  0  0  0  0  0  0  0  0
    2.8026    1.4159    3.9488 C   0  0  2  0  0  0  0  0  0  0  0  0
    4.2093    1.3129    4.0773 O   0  0  0  0  0  0  0  0  0  0  0  0
    2.4354    2.8784    4.0018 C   0  0  2  0  0  0  0  0  0  0  0  0
    2.2873    3.4935    5.2861 O   0  0  0  0  0  0  0  0  0  0  0  0
    1.0865    3.2990    4.5219 C   0  0  1  0  0  0  0  0  0  0  0  0
    2.0831    5.7687    3.6576 H   0  0  0  0  0  0  0  0  0  0  0  0
    0.4443    6.5152    3.2549 H   0  0  0  0  0  0  0  0  0  0  0  0
   -1.4895    4.7147    4.9142 H   0  0  0  0  0  0  0  0  0  0  0  0
   -1.1869    4.5497    2.1159 H   0  0  0  0  0  0  0  0  0  0  0  0
   -2.1135    2.4048    4.6179 H   0  0  0  0  0  0  0  0  0  0  0  0
   -1.0835    2.2583    3.2023 H   0  0  0  0  0  0  0  0  0  0  0  0
    0.5829    2.3086    7.2028 H   0  0  0  0  0  0  0  0  0  0  0  0
   -1.1297    2.1163    6.8869 H   0  0  0  0  0  0  0  0  0  0  0  0
   -0.3722    3.6849    6.7216 H   0  0  0  0  0  0  0  0  0  0  0  0
    0.2684    0.6088    3.7732 H   0  0  0  0  0  0  0  0  0  0  0  0
   -0.1663   -0.1734    6.6775 H   0  0  0  0  0  0  0  0  0  0  0  0
   -1.9621    0.1161    4.5590 H   0  0  0  0  0  0  0  0  0  0  0  0
   -0.6604   -2.4033    5.7714 H   0  0  0  0  0  0  0  0  0  0  0  0
   -0.3806   -1.8492    4.1404 H   0  0  0  0  0  0  0  0  0  0  0  0
    1.3578   -5.3859    4.1188 H   0  0  0  0  0  0  0  0  0  0  0  0
    0.2181   -4.1438    3.6534 H   0  0  0  0  0  0  0  0  0  0  0  0
    0.2779   -4.7031    5.3214 H   0  0  0  0  0  0  0  0  0  0  0  0
    3.5497   -0.9826    2.8424 H   0  0  0  0  0  0  0  0  0  0  0  0
    2.6420   -3.8104    5.4653 H   0  0  0  0  0  0  0  0  0  0  0  0
    1.6948   -1.9830    6.3851 H   0  0  0  0  0  0  0  0  0  0  0  0
    2.6654    1.6917    6.7095 H   0  0  0  0  0  0  0  0  0  0  0  0
    3.5893    0.2422    6.4706 H   0  0  0  0  0  0  0  0  0  0  0  0
    1.9778    0.1505    7.1374 H   0  0  0  0  0  0  0  0  0  0  0  0
    2.5659    1.1045    2.9319 H   0  0  0  0  0  0  0  0  0  0  0  0
    4.6060    1.8929    3.4336 H   0  0  0  0  0  0  0  0  0  0  0  0
    2.8935    3.5077    3.2426 H   0  0  0  0  0  0  0  0  0  0  0  0
  1  2  2  0
  1 26  1  0
  1 27  1  0
  2 25  1  0
  2  3  1  0
  3  4  1  0
  3  5  1  0
  3 28  1  1
  4 29  1  0
  5  6  1  0
  5 30  1  0
  5 31  1  0
  6 25  1  0
  6  7  1  1
  6  8  1  0
  7 32  1  0
  7 33  1  0
  7 34  1  0
  8 19  1  0
  8  9  1  0
  8 35  1  6
  9 10  1  0
  9 11  1  0
  9 36  1  1
 10 37  1  0
 11 38  1  0
 11 39  1  0
 11 12  1  0
 12 18  1  0
 12 45  1  1
 12 13  1  0
 13 14  1  0
 13 44  1  1
 13 15  1  0
 14 40  1  0
 14 41  1  0
 14 42  1  0
 15 16  2  0
 15 17  1  0
 17 18  2  0
 17 43  1  0
 18 19  1  0
 19 20  1  1
 19 21  1  0
 20 46  1  0
 20 47  1  0
 20 48  1  0
 21 22  1  0
 21 23  1  0
 21 49  1  6
 22 50  1  0
 23 25  1  0
 23 24  1  0
 23 51  1  6
 25 24  1  1
M  END
>  <i_m_ct_stereo_status>  (39) 
1

>  <s_m_source_file>  (39) 
/var/tmp/pbs.5076255.sched01/tmpi0kgw23q/0rwfjwt46.sdf

>  <i_m_source_file_index>  (39) 
24

>  <i_lp_mmshare_version>  (39) 
48012

>  <i_f3d_flags>  (39) 
0

>  <s_epik_input>  (39) 
W0NIMl09QzFbQ0BASF0oW09IXSlbQ0gyXVtDQEBdKFtDQF0xMjMpKFtDSDNdKVtDQEBIXTRbQ0BAXShbQ0gzXSkoW0NAQEhdKFtPSF0pW0NAQEhdMk8zKVtDQEhdNUMoW0NIMl1bQ0BASF00W09IXSk9QyhbQ0gzXSlDKD1PKVtDSDJdNQ==

>  <s_epik_cmdline>  (39) 
J2VwaWtfcHl0aG9uJywgJy1waHQnLCAnMi4wJywgJy1waCcsICc3LjAnLCAnLXRuJywgJzgnLCAnLW1hJywgJzIwMCcsICctaW1hZScsICc8aW5maWxlLm1hZT4nLCAnLW9tYWUnLCAnPG91dGZpbGUubWFlPic=

>  <r_lp_tautomer_probability>  (39) 
0.499977

>  <r_epik_Ionization_Penalty>  (39) 
2.28305e-07

>  <r_epik_Ionization_Penalty_Charging>  (39) 
0

>  <r_epik_Ionization_Penalty_Neutral>  (39) 
2.28305e-07

>  <r_epik_State_Penalty>  (39) 
0.41068

>  <r_epik_Charging_Adjusted_Penalty>  (39) 
0.41068

>  <i_epik_Tot_Q>  (39) 
0

>  <i_epik_Tot_abs_Q>  (39) 
0

>  <s_lp_Force_Field>  (39) 
OPLS3e

>  <r_lp_Energy>  (39) 
31.8671

>  <b_lp_Chiralities_Consistent>  (39) 
1

>  <s_lp_Variant>  (39) 
11:0-4

>  <s_i_glide_gridfile>  (39) 
pfpi4k_grid

>  <i_i_glide_lignum>  (39) 
24

>  <i_i_glide_rotatable_bonds>  (39) 
3

>  <r_i_docking_score>  (39) 
-4.11029

>  <r_i_glide_ligand_efficiency>  (39) 
-0.164411

>  <r_i_glide_ligand_efficiency_sa>  (39) 
-0.480742

>  <r_i_glide_ligand_efficiency_ln>  (39) 
-0.974261

>  <r_i_glide_gscore>  (39) 
-4.11029

>  <r_i_glide_lipo>  (39) 
-0.00286548

>  <r_i_glide_hbond>  (39) 
-0.304

>  <r_i_glide_metal>  (39) 
-0

>  <r_i_glide_rewards>  (39) 
-1.04819

>  <r_i_glide_evdw>  (39) 
-18.896

>  <r_i_glide_ecoul>  (39) 
-12.0695

>  <r_i_glide_erotb>  (39) 
0

>  <r_i_glide_esite>  (39) 
0

>  <r_i_glide_emodel>  (39) 
-39.3916

>  <r_i_glide_energy>  (39) 
-30.9655

>  <r_i_glide_einternal>  (39) 
0.804181

>  <r_i_glide_intrahb_reward>  (39) 
-0

>  <i_i_glide_confnum>  (39) 
1

>  <i_i_glide_posenum>  (39) 
1

>  <r_i_glide_eff_state_penalty>  (39) 
0

>  <ligand_id>  (39) 
11

>  <original_smiles>  (39) 
C=C1C(O)CC2(C)C3C(O)CC4=C(C)C(=O)CC4C3(C)C(O)C3OC132

>  <smiles>  (39) 
[H]OC1([H])C(=C([H])[H])C23OC2([H])C([H])(O[H])C2(C([H])([H])[H])C4=C([H])C(=O)C([H])(C([H])([H])[H])C4([H])C([H])([H])C([H])(O[H])C2([H])C3(C([H])([H])[H])C1([H])[H]

$$$$
11:3:1
     RDKit          3D

 51 55  0  0  1  0  0  0  0  0999 V2000
    3.5524   -3.1742   -3.2836 C   0  0  0  0  0  0  0  0  0  0  0  0
    4.0209   -2.6084   -2.1608 C   0  0  0  0  0  0  0  0  0  0  0  0
    4.5699   -1.2175   -2.0737 C   0  0  1  0  0  0  0  0  0  0  0  0
    3.8428   -0.3255   -2.8826 O   0  0  0  0  0  0  0  0  0  0  0  0
    4.5799   -0.9124   -0.5657 C   0  0  0  0  0  0  0  0  0  0  0  0
    4.8438   -2.2683    0.1444 C   0  0  1  0  0  0  0  0  0  0  0  0
    6.3582   -2.5952    0.0600 C   0  0  0  0  0  0  0  0  0  0  0  0
    4.2957   -2.2925    1.6302 C   0  0  2  0  0  0  0  0  0  0  0  0
    5.2229   -1.6068    2.6895 C   0  0  1  0  0  0  0  0  0  0  0  0
    5.6039   -0.3088    2.2985 O   0  0  0  0  0  0  0  0  0  0  0  0
    4.5467   -1.4598    4.0648 C   0  0  0  0  0  0  0  0  0  0  0  0
    4.0668   -2.8222    4.5864 C   0  0  1  0  0  0  0  0  0  0  0  0
    3.1919   -2.8216    5.8697 C   0  0  1  0  0  0  0  0  0  0  0  0
    3.1838   -1.5506    6.7395 C   0  0  0  0  0  0  0  0  0  0  0  0
    1.8154   -3.2050    5.3332 C   0  0  0  0  0  0  0  0  0  0  0  0
    0.7927   -3.1383    6.0133 O   0  0  0  0  0  0  0  0  0  0  0  0
    1.9163   -3.6486    3.9508 C   0  0  0  0  0  0  0  0  0  0  0  0
    3.1753   -3.4544    3.5347 C   0  0  0  0  0  0  0  0  0  0  0  0
    3.7669   -3.6900    2.1386 C   0  0  2  0  0  0  0  0  0  0  0  0
    4.8951   -4.7537    2.2960 C   0  0  0  0  0  0  0  0  0  0  0  0
    2.6660   -4.1972    1.1588 C   0  0  2  0  0  0  0  0  0  0  0  0
    2.2005   -5.5098    1.4186 O   0  0  0  0  0  0  0  0  0  0  0  0
    3.0353   -4.1366   -0.3030 C   0  0  2  0  0  0  0  0  0  0  0  0
    4.3449   -4.5839   -0.6755 O   0  0  0  0  0  0  0  0  0  0  0  0
    4.0798   -3.1759   -0.7905 C   0  0  1  0  0  0  0  0  0  0  0  0
    3.1697   -4.1854   -3.2872 H   0  0  0  0  0  0  0  0  0  0  0  0
    3.5341   -2.6482   -4.2381 H   0  0  0  0  0  0  0  0  0  0  0  0
    5.5912   -1.2459   -2.4221 H   0  0  0  0  0  0  0  0  0  0  0  0
    2.9886   -0.1875   -2.4960 H   0  0  0  0  0  0  0  0  0  0  0  0
    5.3130   -0.1546   -0.2890 H   0  0  0  0  0  0  0  0  0  0  0  0
    3.5955   -0.5436   -0.2695 H   0  0  0  0  0  0  0  0  0  0  0  0
    6.6089   -3.5185    0.5761 H   0  0  0  0  0  0  0  0  0  0  0  0
    6.9640   -1.8034    0.5017 H   0  0  0  0  0  0  0  0  0  0  0  0
    6.6979   -2.7195   -0.9702 H   0  0  0  0  0  0  0  0  0  0  0  0
    3.3979   -1.6722    1.5959 H   0  0  0  0  0  0  0  0  0  0  0  0
    6.1334   -2.1924    2.8047 H   0  0  0  0  0  0  0  0  0  0  0  0
    4.8281    0.2264    2.2443 H   0  0  0  0  0  0  0  0  0  0  0  0
    5.2459   -1.0117    4.7708 H   0  0  0  0  0  0  0  0  0  0  0  0
    3.7048   -0.7720    3.9855 H   0  0  0  0  0  0  0  0  0  0  0  0
    2.6006   -1.7034    7.6495 H   0  0  0  0  0  0  0  0  0  0  0  0
    2.7495   -0.7017    6.2138 H   0  0  0  0  0  0  0  0  0  0  0  0
    4.1907   -1.2786    7.0538 H   0  0  0  0  0  0  0  0  0  0  0  0
    1.0862   -4.0382    3.3803 H   0  0  0  0  0  0  0  0  0  0  0  0
    3.5066   -3.6505    6.5059 H   0  0  0  0  0  0  0  0  0  0  0  0
    4.9313   -3.4606    4.7637 H   0  0  0  0  0  0  0  0  0  0  0  0
    5.2818   -5.1318    1.3557 H   0  0  0  0  0  0  0  0  0  0  0  0
    4.5333   -5.6257    2.8406 H   0  0  0  0  0  0  0  0  0  0  0  0
    5.7549   -4.3768    2.8464 H   0  0  0  0  0  0  0  0  0  0  0  0
    1.8135   -3.5325    1.2634 H   0  0  0  0  0  0  0  0  0  0  0  0
    2.9022   -6.1080    1.1910 H   0  0  0  0  0  0  0  0  0  0  0  0
    2.2440   -4.3866   -1.0001 H   0  0  0  0  0  0  0  0  0  0  0  0
  1  2  2  0
  1 26  1  0
  1 27  1  0
  2 25  1  0
  2  3  1  0
  3  4  1  0
  3  5  1  0
  3 28  1  6
  4 29  1  0
  5  6  1  0
  5 30  1  0
  5 31  1  0
  6 25  1  0
  6  7  1  1
  6  8  1  0
  7 32  1  0
  7 33  1  0
  7 34  1  0
  8 19  1  0
  8  9  1  0
  8 35  1  6
  9 10  1  0
  9 11  1  0
  9 36  1  1
 10 37  1  0
 11 38  1  0
 11 39  1  0
 11 12  1  0
 12 18  1  0
 12 45  1  1
 12 13  1  0
 13 14  1  0
 13 44  1  1
 13 15  1  0
 14 40  1  0
 14 41  1  0
 14 42  1  0
 15 16  2  0
 15 17  1  0
 17 18  2  0
 17 43  1  0
 18 19  1  0
 19 20  1  1
 19 21  1  0
 20 46  1  0
 20 47  1  0
 20 48  1  0
 21 22  1  0
 21 23  1  0
 21 49  1  6
 22 50  1  0
 23 25  1  0
 23 24  1  0
 23 51  1  6
 25 24  1  6
M  END
>  <i_m_ct_stereo_status>  (40) 
1

>  <s_m_source_file>  (40) 
/var/tmp/pbs.5076255.sched01/tmpi0kgw23q/0rwfjwt46.sdf

>  <i_m_source_file_index>  (40) 
24

>  <i_lp_mmshare_version>  (40) 
48012

>  <i_f3d_flags>  (40) 
0

>  <s_epik_input>  (40) 
W0NIMl09QzFbQ0BASF0oW09IXSlbQ0gyXVtDQEBdKFtDQF0xMjMpKFtDSDNdKVtDQEBIXTRbQ0BAXShbQ0gzXSkoW0NAQEhdKFtPSF0pW0NAQEhdMk8zKVtDQEhdNUMoW0NIMl1bQ0BASF00W09IXSk9QyhbQ0gzXSlDKD1PKVtDSDJdNQ==

>  <s_epik_cmdline>  (40) 
J2VwaWtfcHl0aG9uJywgJy1waHQnLCAnMi4wJywgJy1waCcsICc3LjAnLCAnLXRuJywgJzgnLCAnLW1hJywgJzIwMCcsICctaW1hZScsICc8aW5maWxlLm1hZT4nLCAnLW9tYWUnLCAnPG91dGZpbGUubWFlPic=

>  <r_lp_tautomer_probability>  (40) 
0.499977

>  <r_epik_Ionization_Penalty>  (40) 
2.28305e-07

>  <r_epik_Ionization_Penalty_Charging>  (40) 
0

>  <r_epik_Ionization_Penalty_Neutral>  (40) 
2.28305e-07

>  <r_epik_State_Penalty>  (40) 
0.41068

>  <r_epik_Charging_Adjusted_Penalty>  (40) 
0.41068

>  <i_epik_Tot_Q>  (40) 
0

>  <i_epik_Tot_abs_Q>  (40) 
0

>  <s_lp_Force_Field>  (40) 
OPLS3e

>  <r_lp_Energy>  (40) 
31.8671

>  <b_lp_Chiralities_Consistent>  (40) 
1

>  <s_lp_Variant>  (40) 
11:0-4

>  <s_i_glide_gridfile>  (40) 
pfpi4k_grid

>  <i_i_glide_lignum>  (40) 
24

>  <i_i_glide_rotatable_bonds>  (40) 
3

>  <r_i_docking_score>  (40) 
-3.14121

>  <r_i_glide_ligand_efficiency>  (40) 
-0.125649

>  <r_i_glide_ligand_efficiency_sa>  (40) 
-0.367399

>  <r_i_glide_ligand_efficiency_ln>  (40) 
-0.744562

>  <r_i_glide_gscore>  (40) 
-3.14121

>  <r_i_glide_lipo>  (40) 
-0.309722

>  <r_i_glide_hbond>  (40) 
-0.19061

>  <r_i_glide_metal>  (40) 
-0

>  <r_i_glide_rewards>  (40) 
-1.04756

>  <r_i_glide_evdw>  (40) 
-22.7636

>  <r_i_glide_ecoul>  (40) 
-3.03427

>  <r_i_glide_erotb>  (40) 
0

>  <r_i_glide_esite>  (40) 
0

>  <r_i_glide_emodel>  (40) 
-32.5235

>  <r_i_glide_energy>  (40) 
-25.7979

>  <r_i_glide_einternal>  (40) 
0.0724229

>  <r_i_glide_intrahb_reward>  (40) 
-0

>  <i_i_glide_confnum>  (40) 
2

>  <i_i_glide_posenum>  (40) 
29

>  <r_i_glide_eff_state_penalty>  (40) 
0

>  <ligand_id>  (40) 
11

>  <original_smiles>  (40) 
C=C1C(O)CC2(C)C3C(O)CC4=C(C)C(=O)CC4C3(C)C(O)C3OC132

>  <smiles>  (40) 
[H]OC1([H])C(=C([H])[H])C23OC2([H])C([H])(O[H])C2(C([H])([H])[H])C4=C([H])C(=O)C([H])(C([H])([H])[H])C4([H])C([H])([H])C([H])(O[H])C2([H])C3(C([H])([H])[H])C1([H])[H]

$$$$
11:3:2
     RDKit          3D

 51 55  0  0  1  0  0  0  0  0999 V2000
    1.9670   -1.3646    6.7944 C   0  0  0  0  0  0  0  0  0  0  0  0
    1.9280   -2.1672    5.7178 C   0  0  0  0  0  0  0  0  0  0  0  0
    0.8191   -3.1389    5.3708 C   0  0  1  0  0  0  0  0  0  0  0  0
   -0.4705   -2.6008    5.6007 O   0  0  0  0  0  0  0  0  0  0  0  0
    1.0889   -3.4946    3.8975 C   0  0  0  0  0  0  0  0  0  0  0  0
    2.6353   -3.4354    3.7121 C   0  0  1  0  0  0  0  0  0  0  0  0
    3.2621   -4.7389    4.2763 C   0  0  0  0  0  0  0  0  0  0  0  0
    3.0492   -3.1622    2.2133 C   0  0  2  0  0  0  0  0  0  0  0  0
    3.0279   -4.4196    1.2857 C   0  0  1  0  0  0  0  0  0  0  0  0
    1.8221   -5.1517    1.3793 O   0  0  0  0  0  0  0  0  0  0  0  0
    3.2150   -4.0441   -0.1914 C   0  0  0  0  0  0  0  0  0  0  0  0
    4.5244   -3.2732   -0.4169 C   0  0  1  0  0  0  0  0  0  0  0  0
    4.7779   -2.6668   -1.8256 C   0  0  1  0  0  0  0  0  0  0  0  0
    3.9353   -3.1777   -3.0092 C   0  0  0  0  0  0  0  0  0  0  0  0
    4.6187   -1.1739   -1.5853 C   0  0  0  0  0  0  0  0  0  0  0  0
    4.5960   -0.3560   -2.5046 O   0  0  0  0  0  0  0  0  0  0  0  0
    4.5493   -0.9037   -0.1587 C   0  0  0  0  0  0  0  0  0  0  0  0
    4.5112   -2.0694    0.5011 C   0  0  0  0  0  0  0  0  0  0  0  0
    4.3650   -2.3201    2.0100 C   0  0  2  0  0  0  0  0  0  0  0  0
    5.6456   -3.0801    2.4567 C   0  0  0  0  0  0  0  0  0  0  0  0
    4.2324   -0.9693    2.7778 C   0  0  2  0  0  0  0  0  0  0  0  0
    5.4343   -0.2288    2.7724 O   0  0  0  0  0  0  0  0  0  0  0  0
    3.7495   -1.0786    4.2054 C   0  0  2  0  0  0  0  0  0  0  0  0
    4.3163   -2.0972    5.0382 O   0  0  0  0  0  0  0  0  0  0  0  0
    2.9489   -2.2782    4.6434 C   0  0  1  0  0  0  0  0  0  0  0  0
    2.8137   -0.7139    6.9610 H   0  0  0  0  0  0  0  0  0  0  0  0
    1.1744   -1.3511    7.5301 H   0  0  0  0  0  0  0  0  0  0  0  0
    0.9466   -4.0274    5.9883 H   0  0  0  0  0  0  0  0  0  0  0  0
   -0.5812   -1.8506    5.0346 H   0  0  0  0  0  0  0  0  0  0  0  0
    0.6502   -4.4522    3.6210 H   0  0  0  0  0  0  0  0  0  0  0  0
    0.6207   -2.7351    3.2682 H   0  0  0  0  0  0  0  0  0  0  0  0
    4.3394   -4.7731    4.1330 H   0  0  0  0  0  0  0  0  0  0  0  0
    2.8467   -5.6268    3.8025 H   0  0  0  0  0  0  0  0  0  0  0  0
    3.0887   -4.8477    5.3479 H   0  0  0  0  0  0  0  0  0  0  0  0
    2.2681   -2.5100    1.8209 H   0  0  0  0  0  0  0  0  0  0  0  0
    3.8294   -5.1082    1.5611 H   0  0  0  0  0  0  0  0  0  0  0  0
    1.8395   -5.6189    2.2010 H   0  0  0  0  0  0  0  0  0  0  0  0
    3.2403   -4.9729   -0.7470 H   0  0  0  0  0  0  0  0  0  0  0  0
    2.3648   -3.4642   -0.5518 H   0  0  0  0  0  0  0  0  0  0  0  0
    4.2557   -2.7211   -3.9471 H   0  0  0  0  0  0  0  0  0  0  0  0
    2.8767   -2.9494   -2.8814 H   0  0  0  0  0  0  0  0  0  0  0  0
    4.0513   -4.2537   -3.1254 H   0  0  0  0  0  0  0  0  0  0  0  0
    4.5063    0.0913    0.2570 H   0  0  0  0  0  0  0  0  0  0  0  0
    5.8281   -2.8161   -2.0861 H   0  0  0  0  0  0  0  0  0  0  0  0
    5.3677   -3.9190   -0.1733 H   0  0  0  0  0  0  0  0  0  0  0  0
    5.7511   -3.1614    3.5348 H   0  0  0  0  0  0  0  0  0  0  0  0
    6.5403   -2.5666    2.1001 H   0  0  0  0  0  0  0  0  0  0  0  0
    5.7059   -4.0953    2.0667 H   0  0  0  0  0  0  0  0  0  0  0  0
    3.4824   -0.3590    2.2739 H   0  0  0  0  0  0  0  0  0  0  0  0
    6.0775   -0.7031    3.2813 H   0  0  0  0  0  0  0  0  0  0  0  0
    3.5510   -0.1375    4.7068 H   0  0  0  0  0  0  0  0  0  0  0  0
  1  2  2  0
  1 26  1  0
  1 27  1  0
  2 25  1  0
  2  3  1  0
  3  4  1  0
  3  5  1  0
  3 28  1  1
  4 29  1  0
  5  6  1  0
  5 30  1  0
  5 31  1  0
  6 25  1  0
  6  7  1  1
  6  8  1  0
  7 32  1  0
  7 33  1  0
  7 34  1  0
  8 19  1  0
  8  9  1  0
  8 35  1  6
  9 10  1  0
  9 11  1  0
  9 36  1  1
 10 37  1  0
 11 38  1  0
 11 39  1  0
 11 12  1  0
 12 18  1  0
 12 45  1  1
 12 13  1  0
 13 14  1  0
 13 44  1  6
 13 15  1  0
 14 40  1  0
 14 41  1  0
 14 42  1  0
 15 16  2  0
 15 17  1  0
 17 18  2  0
 17 43  1  0
 18 19  1  0
 19 20  1  1
 19 21  1  0
 20 46  1  0
 20 47  1  0
 20 48  1  0
 21 22  1  0
 21 23  1  0
 21 49  1  6
 22 50  1  0
 23 25  1  0
 23 24  1  0
 23 51  1  1
 25 24  1  1
M  END
>  <i_m_ct_stereo_status>  (41) 
1

>  <s_m_source_file>  (41) 
/var/tmp/pbs.5076255.sched01/tmpi0kgw23q/0rwfjwt46.sdf

>  <i_m_source_file_index>  (41) 
24

>  <i_lp_mmshare_version>  (41) 
48012

>  <i_f3d_flags>  (41) 
0

>  <s_epik_input>  (41) 
W0NIMl09QzFbQ0BASF0oW09IXSlbQ0gyXVtDQEBdKFtDQF0xMjMpKFtDSDNdKVtDQEBIXTRbQ0BAXShbQ0gzXSkoW0NAQEhdKFtPSF0pW0NAQEhdMk8zKVtDQEhdNUMoW0NIMl1bQ0BASF00W09IXSk9QyhbQ0gzXSlDKD1PKVtDSDJdNQ==

>  <s_epik_cmdline>  (41) 
J2VwaWtfcHl0aG9uJywgJy1waHQnLCAnMi4wJywgJy1waCcsICc3LjAnLCAnLXRuJywgJzgnLCAnLW1hJywgJzIwMCcsICctaW1hZScsICc8aW5maWxlLm1hZT4nLCAnLW9tYWUnLCAnPG91dGZpbGUubWFlPic=

>  <r_lp_tautomer_probability>  (41) 
0.499977

>  <r_epik_Ionization_Penalty>  (41) 
2.28305e-07

>  <r_epik_Ionization_Penalty_Charging>  (41) 
0

>  <r_epik_Ionization_Penalty_Neutral>  (41) 
2.28305e-07

>  <r_epik_State_Penalty>  (41) 
0.41068

>  <r_epik_Charging_Adjusted_Penalty>  (41) 
0.41068

>  <i_epik_Tot_Q>  (41) 
0

>  <i_epik_Tot_abs_Q>  (41) 
0

>  <s_lp_Force_Field>  (41) 
OPLS3e

>  <r_lp_Energy>  (41) 
31.8671

>  <b_lp_Chiralities_Consistent>  (41) 
1

>  <s_lp_Variant>  (41) 
11:0-4

>  <s_i_glide_gridfile>  (41) 
pfpi4k_grid

>  <i_i_glide_lignum>  (41) 
24

>  <i_i_glide_rotatable_bonds>  (41) 
3

>  <r_i_docking_score>  (41) 
-3.04923

>  <r_i_glide_ligand_efficiency>  (41) 
-0.121969

>  <r_i_glide_ligand_efficiency_sa>  (41) 
-0.35664

>  <r_i_glide_ligand_efficiency_ln>  (41) 
-0.722759

>  <r_i_glide_gscore>  (41) 
-3.04923

>  <r_i_glide_lipo>  (41) 
-0.167123

>  <r_i_glide_hbond>  (41) 
-0.0688662

>  <r_i_glide_metal>  (41) 
-0

>  <r_i_glide_rewards>  (41) 
-1.04715

>  <r_i_glide_evdw>  (41) 
-21.6997

>  <r_i_glide_ecoul>  (41) 
-4.22519

>  <r_i_glide_erotb>  (41) 
0

>  <r_i_glide_esite>  (41) 
-0.0473228

>  <r_i_glide_emodel>  (41) 
-32.2192

>  <r_i_glide_energy>  (41) 
-25.9249

>  <r_i_glide_einternal>  (41) 
0.439615

>  <r_i_glide_intrahb_reward>  (41) 
-0

>  <i_i_glide_confnum>  (41) 
2

>  <i_i_glide_posenum>  (41) 
5

>  <r_i_glide_eff_state_penalty>  (41) 
0

>  <ligand_id>  (41) 
11

>  <original_smiles>  (41) 
C=C1C(O)CC2(C)C3C(O)CC4=C(C)C(=O)CC4C3(C)C(O)C3OC132

>  <smiles>  (41) 
[H]OC1([H])C(=C([H])[H])C23OC2([H])C([H])(O[H])C2(C([H])([H])[H])C4=C([H])C(=O)C([H])(C([H])([H])[H])C4([H])C([H])([H])C([H])(O[H])C2([H])C3(C([H])([H])[H])C1([H])[H]

$$$$
11:4:0
     RDKit          3D

 51 55  0  0  1  0  0  0  0  0999 V2000
    0.4974   -6.7817    7.9369 C   0  0  0  0  0  0  0  0  0  0  0  0
    0.2735   -6.7389    6.6140 C   0  0  0  0  0  0  0  0  0  0  0  0
    0.0129   -5.4956    5.7959 C   0  0  1  0  0  0  0  0  0  0  0  0
    0.7387   -4.3686    6.2423 O   0  0  0  0  0  0  0  0  0  0  0  0
    0.3693   -5.9314    4.3704 C   0  0  0  0  0  0  0  0  0  0  0  0
   -0.0720   -7.4111    4.2464 C   0  0  1  0  0  0  0  0  0  0  0  0
   -1.6145   -7.4858    4.0662 C   0  0  0  0  0  0  0  0  0  0  0  0
    0.6023   -8.2438    3.0764 C   0  0  1  0  0  0  0  0  0  0  0  0
    0.9129   -7.4475    1.7544 C   0  0  1  0  0  0  0  0  0  0  0  0
   -0.1810   -6.6594    1.3077 O   0  0  0  0  0  0  0  0  0  0  0  0
    2.2112   -6.5991    1.7759 C   0  0  0  0  0  0  0  0  0  0  0  0
    3.4230   -7.3359    2.4066 C   0  0  1  0  0  0  0  0  0  0  0  0
    4.6270   -6.4840    2.9010 C   0  0  1  0  0  0  0  0  0  0  0  0
    4.5860   -4.9682    2.6336 C   0  0  0  0  0  0  0  0  0  0  0  0
    4.6923   -6.8135    4.3898 C   0  0  0  0  0  0  0  0  0  0  0  0
    5.4579   -6.2463    5.1647 O   0  0  0  0  0  0  0  0  0  0  0  0
    3.7265   -7.8458    4.7276 C   0  0  0  0  0  0  0  0  0  0  0  0
    3.0123   -8.1340    3.6355 C   0  0  0  0  0  0  0  0  0  0  0  0
    1.8393   -9.1053    3.4969 C   0  0  2  0  0  0  0  0  0  0  0  0
    2.2094  -10.1360    2.4049 C   0  0  0  0  0  0  0  0  0  0  0  0
    1.5597   -9.9538    4.7799 C   0  0  2  0  0  0  0  0  0  0  0  0
    0.6132  -10.9888    4.5580 O   0  0  0  0  0  0  0  0  0  0  0  0
    1.0626   -9.1404    5.9414 C   0  0  2  0  0  0  0  0  0  0  0  0
   -0.3590   -9.0683    6.1033 O   0  0  0  0  0  0  0  0  0  0  0  0
    0.2762   -7.8770    5.6561 C   0  0  1  0  0  0  0  0  0  0  0  0
    0.6816   -7.7252    8.4326 H   0  0  0  0  0  0  0  0  0  0  0  0
    0.4958   -5.8878    8.5476 H   0  0  0  0  0  0  0  0  0  0  0  0
   -1.0479   -5.2710    5.8720 H   0  0  0  0  0  0  0  0  0  0  0  0
    1.6629   -4.5362    6.1342 H   0  0  0  0  0  0  0  0  0  0  0  0
   -0.0686   -5.2830    3.6204 H   0  0  0  0  0  0  0  0  0  0  0  0
    1.4513   -5.8730    4.2855 H   0  0  0  0  0  0  0  0  0  0  0  0
   -1.9592   -8.5225    4.0386 H   0  0  0  0  0  0  0  0  0  0  0  0
   -1.9438   -7.0159    3.1423 H   0  0  0  0  0  0  0  0  0  0  0  0
   -2.1603   -7.0067    4.8797 H   0  0  0  0  0  0  0  0  0  0  0  0
   -0.1465   -8.9845    2.7878 H   0  0  0  0  0  0  0  0  0  0  0  0
    1.0407   -8.1815    0.9584 H   0  0  0  0  0  0  0  0  0  0  0  0
   -0.8444   -7.2703    1.0166 H   0  0  0  0  0  0  0  0  0  0  0  0
    2.4712   -6.3219    0.7532 H   0  0  0  0  0  0  0  0  0  0  0  0
    2.0266   -5.6513    2.2703 H   0  0  0  0  0  0  0  0  0  0  0  0
    5.5186   -4.4959    2.9440 H   0  0  0  0  0  0  0  0  0  0  0  0
    3.7834   -4.4803    3.1840 H   0  0  0  0  0  0  0  0  0  0  0  0
    4.4563   -4.7533    1.5733 H   0  0  0  0  0  0  0  0  0  0  0  0
    3.6180   -8.2588    5.7181 H   0  0  0  0  0  0  0  0  0  0  0  0
    5.5422   -6.8779    2.4551 H   0  0  0  0  0  0  0  0  0  0  0  0
    3.8192   -8.0340    1.6685 H   0  0  0  0  0  0  0  0  0  0  0  0
    1.3490  -10.7671    2.1989 H   0  0  0  0  0  0  0  0  0  0  0  0
    3.0360  -10.7785    2.7170 H   0  0  0  0  0  0  0  0  0  0  0  0
    2.4943   -9.7097    1.4455 H   0  0  0  0  0  0  0  0  0  0  0  0
    2.4892  -10.4384    5.0902 H   0  0  0  0  0  0  0  0  0  0  0  0
   -0.2629  -10.6702    4.7869 H   0  0  0  0  0  0  0  0  0  0  0  0
    1.6317   -9.1996    6.8638 H   0  0  0  0  0  0  0  0  0  0  0  0
  1  2  2  0
  1 26  1  0
  1 27  1  0
  2 25  1  0
  2  3  1  0
  3  4  1  0
  3  5  1  0
  3 28  1  6
  4 29  1  0
  5  6  1  0
  5 30  1  0
  5 31  1  0
  6 25  1  0
  6  7  1  6
  6  8  1  0
  7 32  1  0
  7 33  1  0
  7 34  1  0
  8 19  1  0
  8  9  1  0
  8 35  1  6
  9 10  1  0
  9 11  1  0
  9 36  1  6
 10 37  1  0
 11 38  1  0
 11 39  1  0
 11 12  1  0
 12 18  1  0
 12 45  1  6
 12 13  1  0
 13 14  1  0
 13 44  1  6
 13 15  1  0
 14 40  1  0
 14 41  1  0
 14 42  1  0
 15 16  2  0
 15 17  1  0
 17 18  2  0
 17 43  1  0
 18 19  1  0
 19 20  1  6
 19 21  1  0
 20 46  1  0
 20 47  1  0
 20 48  1  0
 21 22  1  0
 21 23  1  0
 21 49  1  1
 22 50  1  0
 23 25  1  0
 23 24  1  0
 23 51  1  1
 25 24  1  1
M  END
>  <i_m_ct_stereo_status>  (42) 
1

>  <s_m_source_file>  (42) 
/var/tmp/pbs.5076255.sched01/tmpi0kgw23q/0rwfjwt46.sdf

>  <i_m_source_file_index>  (42) 
25

>  <i_lp_mmshare_version>  (42) 
48012

>  <i_f3d_flags>  (42) 
0

>  <s_epik_input>  (42) 
W0NIMl09QzFbQ0BASF0oW09IXSlbQ0gyXVtDQEBdKFtDQF0xMjMpKFtDSDNdKVtDQEBIXTRbQ0BAXShbQ0gzXSkoW0NAQEhdKFtPSF0pW0NAQEhdMk8zKVtDQEhdNUMoW0NIMl1bQ0BASF00W09IXSk9QyhbQ0gzXSlDKD1PKVtDSDJdNQ==

>  <s_epik_cmdline>  (42) 
J2VwaWtfcHl0aG9uJywgJy1waHQnLCAnMi4wJywgJy1waCcsICc3LjAnLCAnLXRuJywgJzgnLCAnLW1hJywgJzIwMCcsICctaW1hZScsICc8aW5maWxlLm1hZT4nLCAnLW9tYWUnLCAnPG91dGZpbGUubWFlPic=

>  <r_lp_tautomer_probability>  (42) 
0.499977

>  <r_epik_Ionization_Penalty>  (42) 
2.28305e-07

>  <r_epik_Ionization_Penalty_Charging>  (42) 
0

>  <r_epik_Ionization_Penalty_Neutral>  (42) 
2.28305e-07

>  <r_epik_State_Penalty>  (42) 
0.41068

>  <r_epik_Charging_Adjusted_Penalty>  (42) 
0.41068

>  <i_epik_Tot_Q>  (42) 
0

>  <i_epik_Tot_abs_Q>  (42) 
0

>  <s_lp_Force_Field>  (42) 
OPLS3e

>  <r_lp_Energy>  (42) 
34.1998

>  <b_lp_Chiralities_Consistent>  (42) 
1

>  <s_lp_Variant>  (42) 
11:0-5

>  <s_i_glide_gridfile>  (42) 
pfpi4k_grid

>  <i_i_glide_lignum>  (42) 
25

>  <i_i_glide_rotatable_bonds>  (42) 
3

>  <r_i_docking_score>  (42) 
-3.31758

>  <r_i_glide_ligand_efficiency>  (42) 
-0.132703

>  <r_i_glide_ligand_efficiency_sa>  (42) 
-0.388027

>  <r_i_glide_ligand_efficiency_ln>  (42) 
-0.786366

>  <r_i_glide_gscore>  (42) 
-3.31758

>  <r_i_glide_lipo>  (42) 
-0.059648

>  <r_i_glide_hbond>  (42) 
-0.221276

>  <r_i_glide_metal>  (42) 
-0

>  <r_i_glide_rewards>  (42) 
-1.04715

>  <r_i_glide_evdw>  (42) 
-23.5727

>  <r_i_glide_ecoul>  (42) 
-5.4058

>  <r_i_glide_erotb>  (42) 
0

>  <r_i_glide_esite>  (42) 
0

>  <r_i_glide_emodel>  (42) 
-34.1798

>  <r_i_glide_energy>  (42) 
-28.9785

>  <r_i_glide_einternal>  (42) 
0.908573

>  <r_i_glide_intrahb_reward>  (42) 
-0

>  <i_i_glide_confnum>  (42) 
2

>  <i_i_glide_posenum>  (42) 
9

>  <r_i_glide_eff_state_penalty>  (42) 
0

>  <ligand_id>  (42) 
11

>  <original_smiles>  (42) 
C=C1C(O)CC2(C)C3C(O)CC4=C(C)C(=O)CC4C3(C)C(O)C3OC132

>  <smiles>  (42) 
[H]OC1([H])C(=C([H])[H])C23OC2([H])C([H])(O[H])C2(C([H])([H])[H])C4=C([H])C(=O)C([H])(C([H])([H])[H])C4([H])C([H])([H])C([H])(O[H])C2([H])C3(C([H])([H])[H])C1([H])[H]

$$$$
11:4:1
     RDKit          3D

 51 55  0  0  1  0  0  0  0  0999 V2000
    4.6201   -0.1008    3.6760 C   0  0  0  0  0  0  0  0  0  0  0  0
    3.9252   -1.1530    3.2024 C   0  0  0  0  0  0  0  0  0  0  0  0
    2.4835   -1.1165    2.7644 C   0  0  1  0  0  0  0  0  0  0  0  0
    2.1256    0.0756    2.0809 O   0  0  0  0  0  0  0  0  0  0  0  0
    2.3933   -2.3344    1.8397 C   0  0  0  0  0  0  0  0  0  0  0  0
    3.3033   -3.4182    2.4455 C   0  0  1  0  0  0  0  0  0  0  0  0
    2.6176   -4.0797    3.6724 C   0  0  0  0  0  0  0  0  0  0  0  0
    3.7663   -4.5983    1.4703 C   0  0  1  0  0  0  0  0  0  0  0  0
    2.7325   -5.0670    0.3977 C   0  0  1  0  0  0  0  0  0  0  0  0
    1.4717   -5.4821    0.9327 O   0  0  0  0  0  0  0  0  0  0  0  0
    2.5862   -4.0661   -0.7841 C   0  0  0  0  0  0  0  0  0  0  0  0
    3.9662   -3.6782   -1.4213 C   0  0  1  0  0  0  0  0  0  0  0  0
    4.0588   -2.4723   -2.3980 C   0  0  1  0  0  0  0  0  0  0  0  0
    2.7472   -1.8238   -2.8327 C   0  0  0  0  0  0  0  0  0  0  0  0
    4.9566   -1.5209   -1.6386 C   0  0  0  0  0  0  0  0  0  0  0  0
    5.1391   -0.3933   -2.0614 O   0  0  0  0  0  0  0  0  0  0  0  0
    5.5173   -2.1372   -0.4465 C   0  0  0  0  0  0  0  0  0  0  0  0
    4.9588   -3.3449   -0.3254 C   0  0  0  0  0  0  0  0  0  0  0  0
    5.1438   -4.3794    0.7729 C   0  0  2  0  0  0  0  0  0  0  0  0
    5.6695   -5.6932    0.1315 C   0  0  0  0  0  0  0  0  0  0  0  0
    6.2295   -3.9804    1.7898 C   0  0  2  0  0  0  0  0  0  0  0  0
    6.5369   -5.0766    2.6472 O   0  0  0  0  0  0  0  0  0  0  0  0
    5.8161   -2.7761    2.5968 C   0  0  2  0  0  0  0  0  0  0  0  0
    5.3053   -3.0777    3.9166 O   0  0  0  0  0  0  0  0  0  0  0  0
    4.4105   -2.5230    2.9564 C   0  0  1  0  0  0  0  0  0  0  0  0
    5.6569   -0.2066    3.9459 H   0  0  0  0  0  0  0  0  0  0  0  0
    4.1815    0.8896    3.7903 H   0  0  0  0  0  0  0  0  0  0  0  0
    1.8412   -1.2540    3.6405 H   0  0  0  0  0  0  0  0  0  0  0  0
    1.6745   -0.1521    1.2713 H   0  0  0  0  0  0  0  0  0  0  0  0
    1.3845   -2.6766    1.7062 H   0  0  0  0  0  0  0  0  0  0  0  0
    2.7959   -2.0128    0.8835 H   0  0  0  0  0  0  0  0  0  0  0  0
    3.2852   -4.8104    4.1442 H   0  0  0  0  0  0  0  0  0  0  0  0
    1.6956   -4.6026    3.3992 H   0  0  0  0  0  0  0  0  0  0  0  0
    2.3702   -3.3549    4.4565 H   0  0  0  0  0  0  0  0  0  0  0  0
    3.9283   -5.4634    2.1106 H   0  0  0  0  0  0  0  0  0  0  0  0
    3.1128   -5.9981   -0.0245 H   0  0  0  0  0  0  0  0  0  0  0  0
    1.6680   -5.9734    1.7264 H   0  0  0  0  0  0  0  0  0  0  0  0
    1.9769   -4.5590   -1.5302 H   0  0  0  0  0  0  0  0  0  0  0  0
    1.9893   -3.1877   -0.5654 H   0  0  0  0  0  0  0  0  0  0  0  0
    2.9042   -1.0110   -3.5352 H   0  0  0  0  0  0  0  0  0  0  0  0
    2.2931   -1.3717   -1.9666 H   0  0  0  0  0  0  0  0  0  0  0  0
    2.0408   -2.5317   -3.2648 H   0  0  0  0  0  0  0  0  0  0  0  0
    6.2087   -1.6350    0.2052 H   0  0  0  0  0  0  0  0  0  0  0  0
    4.6018   -2.7589   -3.3008 H   0  0  0  0  0  0  0  0  0  0  0  0
    4.3974   -4.5184   -1.9733 H   0  0  0  0  0  0  0  0  0  0  0  0
    5.7491   -6.5144    0.8477 H   0  0  0  0  0  0  0  0  0  0  0  0
    6.6647   -5.5329   -0.2751 H   0  0  0  0  0  0  0  0  0  0  0  0
    5.0603   -6.0717   -0.6874 H   0  0  0  0  0  0  0  0  0  0  0  0
    7.1567   -3.7216    1.2683 H   0  0  0  0  0  0  0  0  0  0  0  0
    7.2977   -4.8303    3.1624 H   0  0  0  0  0  0  0  0  0  0  0  0
    6.4988   -1.9163    2.5349 H   0  0  0  0  0  0  0  0  0  0  0  0
  1  2  2  0
  1 26  1  0
  1 27  1  0
  2 25  1  0
  2  3  1  0
  3  4  1  0
  3  5  1  0
  3 28  1  1
  4 29  1  0
  5  6  1  0
  5 30  1  0
  5 31  1  0
  6 25  1  0
  6  7  1  1
  6  8  1  0
  7 32  1  0
  7 33  1  0
  7 34  1  0
  8 19  1  0
  8  9  1  0
  8 35  1  1
  9 10  1  0
  9 11  1  0
  9 36  1  6
 10 37  1  0
 11 38  1  0
 11 39  1  0
 11 12  1  0
 12 18  1  0
 12 45  1  6
 12 13  1  0
 13 14  1  0
 13 44  1  6
 13 15  1  0
 14 40  1  0
 14 41  1  0
 14 42  1  0
 15 16  2  0
 15 17  1  0
 17 18  2  0
 17 43  1  0
 18 19  1  0
 19 20  1  6
 19 21  1  0
 20 46  1  0
 20 47  1  0
 20 48  1  0
 21 22  1  0
 21 23  1  0
 21 49  1  6
 22 50  1  0
 23 25  1  0
 23 24  1  0
 23 51  1  1
 25 24  1  1
M  END
>  <i_m_ct_stereo_status>  (43) 
1

>  <s_m_source_file>  (43) 
/var/tmp/pbs.5076255.sched01/tmpi0kgw23q/0rwfjwt46.sdf

>  <i_m_source_file_index>  (43) 
25

>  <i_lp_mmshare_version>  (43) 
48012

>  <i_f3d_flags>  (43) 
0

>  <s_epik_input>  (43) 
W0NIMl09QzFbQ0BASF0oW09IXSlbQ0gyXVtDQEBdKFtDQF0xMjMpKFtDSDNdKVtDQEBIXTRbQ0BAXShbQ0gzXSkoW0NAQEhdKFtPSF0pW0NAQEhdMk8zKVtDQEhdNUMoW0NIMl1bQ0BASF00W09IXSk9QyhbQ0gzXSlDKD1PKVtDSDJdNQ==

>  <s_epik_cmdline>  (43) 
J2VwaWtfcHl0aG9uJywgJy1waHQnLCAnMi4wJywgJy1waCcsICc3LjAnLCAnLXRuJywgJzgnLCAnLW1hJywgJzIwMCcsICctaW1hZScsICc8aW5maWxlLm1hZT4nLCAnLW9tYWUnLCAnPG91dGZpbGUubWFlPic=

>  <r_lp_tautomer_probability>  (43) 
0.499977

>  <r_epik_Ionization_Penalty>  (43) 
2.28305e-07

>  <r_epik_Ionization_Penalty_Charging>  (43) 
0

>  <r_epik_Ionization_Penalty_Neutral>  (43) 
2.28305e-07

>  <r_epik_State_Penalty>  (43) 
0.41068

>  <r_epik_Charging_Adjusted_Penalty>  (43) 
0.41068

>  <i_epik_Tot_Q>  (43) 
0

>  <i_epik_Tot_abs_Q>  (43) 
0

>  <s_lp_Force_Field>  (43) 
OPLS3e

>  <r_lp_Energy>  (43) 
34.1998

>  <b_lp_Chiralities_Consistent>  (43) 
1

>  <s_lp_Variant>  (43) 
11:0-5

>  <s_i_glide_gridfile>  (43) 
pfpi4k_grid

>  <i_i_glide_lignum>  (43) 
25

>  <i_i_glide_rotatable_bonds>  (43) 
3

>  <r_i_docking_score>  (43) 
-2.87407

>  <r_i_glide_ligand_efficiency>  (43) 
-0.114963

>  <r_i_glide_ligand_efficiency_sa>  (43) 
-0.336154

>  <r_i_glide_ligand_efficiency_ln>  (43) 
-0.681242

>  <r_i_glide_gscore>  (43) 
-2.87407

>  <r_i_glide_lipo>  (43) 
-0.369757

>  <r_i_glide_hbond>  (43) 
-0.133108

>  <r_i_glide_metal>  (43) 
-0

>  <r_i_glide_rewards>  (43) 
-1.04715

>  <r_i_glide_evdw>  (43) 
-7.91697

>  <r_i_glide_ecoul>  (43) 
-5.89817

>  <r_i_glide_erotb>  (43) 
0

>  <r_i_glide_esite>  (43) 
-0.0434816

>  <r_i_glide_emodel>  (43) 
-17.6497

>  <r_i_glide_energy>  (43) 
-13.8151

>  <r_i_glide_einternal>  (43) 
1.66731

>  <r_i_glide_intrahb_reward>  (43) 
-0

>  <i_i_glide_confnum>  (43) 
2

>  <i_i_glide_posenum>  (43) 
26

>  <r_i_glide_eff_state_penalty>  (43) 
0

>  <ligand_id>  (43) 
11

>  <original_smiles>  (43) 
C=C1C(O)CC2(C)C3C(O)CC4=C(C)C(=O)CC4C3(C)C(O)C3OC132

>  <smiles>  (43) 
[H]OC1([H])C(=C([H])[H])C23OC2([H])C([H])(O[H])C2(C([H])([H])[H])C4=C([H])C(=O)C([H])(C([H])([H])[H])C4([H])C([H])([H])C([H])(O[H])C2([H])C3(C([H])([H])[H])C1([H])[H]

$$$$
11:4:2
     RDKit          3D

 51 55  0  0  1  0  0  0  0  0999 V2000
    1.5077   -5.5362    2.8289 C   0  0  0  0  0  0  0  0  0  0  0  0
    2.8008   -5.2894    2.6077 C   0  0  0  0  0  0  0  0  0  0  0  0
    3.7733   -6.2453    1.9572 C   0  0  1  0  0  0  0  0  0  0  0  0
    3.1841   -7.0113    0.9563 O   0  0  0  0  0  0  0  0  0  0  0  0
    4.8858   -5.3338    1.4222 C   0  0  0  0  0  0  0  0  0  0  0  0
    5.0061   -4.2103    2.4792 C   0  0  1  0  0  0  0  0  0  0  0  0
    5.7741   -4.7630    3.7137 C   0  0  0  0  0  0  0  0  0  0  0  0
    5.7197   -2.8680    1.9898 C   0  0  1  0  0  0  0  0  0  0  0  0
    6.8754   -3.0567    0.9239 C   0  0  1  0  0  0  0  0  0  0  0  0
    7.7889   -4.0857    1.2547 O   0  0  0  0  0  0  0  0  0  0  0  0
    6.4304   -3.2316   -0.5464 C   0  0  0  0  0  0  0  0  0  0  0  0
    5.3075   -2.2547   -0.9616 C   0  0  1  0  0  0  0  0  0  0  0  0
    4.4515   -2.6101   -2.2232 C   0  0  1  0  0  0  0  0  0  0  0  0
    4.8825   -3.8451   -3.0235 C   0  0  0  0  0  0  0  0  0  0  0  0
    3.0442   -2.7387   -1.6362 C   0  0  0  0  0  0  0  0  0  0  0  0
    2.1018   -3.1036   -2.3298 O   0  0  0  0  0  0  0  0  0  0  0  0
    3.0341   -2.3850   -0.2205 C   0  0  0  0  0  0  0  0  0  0  0  0
    4.2819   -2.0998    0.1462 C   0  0  0  0  0  0  0  0  0  0  0  0
    4.7644   -1.7204    1.5434 C   0  0  2  0  0  0  0  0  0  0  0  0
    5.5055   -0.3617    1.4358 C   0  0  0  0  0  0  0  0  0  0  0  0
    3.6129   -1.4642    2.5732 C   0  0  2  0  0  0  0  0  0  0  0  0
    4.0795   -0.9030    3.7912 O   0  0  0  0  0  0  0  0  0  0  0  0
    2.8579   -2.7053    2.9398 C   0  0  2  0  0  0  0  0  0  0  0  0
    3.2971   -3.4024    4.1243 O   0  0  0  0  0  0  0  0  0  0  0  0
    3.5437   -4.0471    2.8700 C   0  0  1  0  0  0  0  0  0  0  0  0
    0.8723   -4.7895    3.2941 H   0  0  0  0  0  0  0  0  0  0  0  0
    1.0443   -6.4848    2.5695 H   0  0  0  0  0  0  0  0  0  0  0  0
    4.1614   -6.9141    2.7241 H   0  0  0  0  0  0  0  0  0  0  0  0
    3.1135   -6.4932    0.1629 H   0  0  0  0  0  0  0  0  0  0  0  0
    5.8072   -5.8706    1.2313 H   0  0  0  0  0  0  0  0  0  0  0  0
    4.5299   -4.9031    0.4905 H   0  0  0  0  0  0  0  0  0  0  0  0
    5.8469   -4.0054    4.5001 H   0  0  0  0  0  0  0  0  0  0  0  0
    6.7863   -5.0858    3.4604 H   0  0  0  0  0  0  0  0  0  0  0  0
    5.2822   -5.6207    4.1759 H   0  0  0  0  0  0  0  0  0  0  0  0
    6.2013   -2.4687    2.8803 H   0  0  0  0  0  0  0  0  0  0  0  0
    7.4803   -2.1503    0.9528 H   0  0  0  0  0  0  0  0  0  0  0  0
    7.3157   -4.8906    1.3494 H   0  0  0  0  0  0  0  0  0  0  0  0
    7.2882   -3.0808   -1.1982 H   0  0  0  0  0  0  0  0  0  0  0  0
    6.1380   -4.2608   -0.7158 H   0  0  0  0  0  0  0  0  0  0  0  0
    4.2596   -3.9565   -3.9114 H   0  0  0  0  0  0  0  0  0  0  0  0
    4.7582   -4.7430   -2.4293 H   0  0  0  0  0  0  0  0  0  0  0  0
    5.9207   -3.7865   -3.3454 H   0  0  0  0  0  0  0  0  0  0  0  0
    2.1453   -2.3487    0.3767 H   0  0  0  0  0  0  0  0  0  0  0  0
    4.4450   -1.7471   -2.8851 H   0  0  0  0  0  0  0  0  0  0  0  0
    5.7449   -1.2729   -1.1438 H   0  0  0  0  0  0  0  0  0  0  0  0
    5.9856   -0.0876    2.3764 H   0  0  0  0  0  0  0  0  0  0  0  0
    4.8192    0.4404    1.1566 H   0  0  0  0  0  0  0  0  0  0  0  0
    6.3060   -0.3466    0.6971 H   0  0  0  0  0  0  0  0  0  0  0  0
    2.9047   -0.7483    2.1548 H   0  0  0  0  0  0  0  0  0  0  0  0
    4.4242   -0.0444    3.6259 H   0  0  0  0  0  0  0  0  0  0  0  0
    1.7789   -2.6801    2.7864 H   0  0  0  0  0  0  0  0  0  0  0  0
  1  2  2  0
  1 26  1  0
  1 27  1  0
  2 25  1  0
  2  3  1  0
  3  4  1  0
  3  5  1  0
  3 28  1  1
  4 29  1  0
  5  6  1  0
  5 30  1  0
  5 31  1  0
  6 25  1  0
  6  7  1  1
  6  8  1  0
  7 32  1  0
  7 33  1  0
  7 34  1  0
  8 19  1  0
  8  9  1  0
  8 35  1  1
  9 10  1  0
  9 11  1  0
  9 36  1  6
 10 37  1  0
 11 38  1  0
 11 39  1  0
 11 12  1  0
 12 18  1  0
 12 45  1  6
 12 13  1  0
 13 14  1  0
 13 44  1  6
 13 15  1  0
 14 40  1  0
 14 41  1  0
 14 42  1  0
 15 16  2  0
 15 17  1  0
 17 18  2  0
 17 43  1  0
 18 19  1  0
 19 20  1  6
 19 21  1  0
 20 46  1  0
 20 47  1  0
 20 48  1  0
 21 22  1  0
 21 23  1  0
 21 49  1  6
 22 50  1  0
 23 25  1  0
 23 24  1  0
 23 51  1  1
 25 24  1  1
M  END
>  <i_m_ct_stereo_status>  (44) 
1

>  <s_m_source_file>  (44) 
/var/tmp/pbs.5076255.sched01/tmpi0kgw23q/0rwfjwt46.sdf

>  <i_m_source_file_index>  (44) 
25

>  <i_lp_mmshare_version>  (44) 
48012

>  <i_f3d_flags>  (44) 
0

>  <s_epik_input>  (44) 
W0NIMl09QzFbQ0BASF0oW09IXSlbQ0gyXVtDQEBdKFtDQF0xMjMpKFtDSDNdKVtDQEBIXTRbQ0BAXShbQ0gzXSkoW0NAQEhdKFtPSF0pW0NAQEhdMk8zKVtDQEhdNUMoW0NIMl1bQ0BASF00W09IXSk9QyhbQ0gzXSlDKD1PKVtDSDJdNQ==

>  <s_epik_cmdline>  (44) 
J2VwaWtfcHl0aG9uJywgJy1waHQnLCAnMi4wJywgJy1waCcsICc3LjAnLCAnLXRuJywgJzgnLCAnLW1hJywgJzIwMCcsICctaW1hZScsICc8aW5maWxlLm1hZT4nLCAnLW9tYWUnLCAnPG91dGZpbGUubWFlPic=

>  <r_lp_tautomer_probability>  (44) 
0.499977

>  <r_epik_Ionization_Penalty>  (44) 
2.28305e-07

>  <r_epik_Ionization_Penalty_Charging>  (44) 
0

>  <r_epik_Ionization_Penalty_Neutral>  (44) 
2.28305e-07

>  <r_epik_State_Penalty>  (44) 
0.41068

>  <r_epik_Charging_Adjusted_Penalty>  (44) 
0.41068

>  <i_epik_Tot_Q>  (44) 
0

>  <i_epik_Tot_abs_Q>  (44) 
0

>  <s_lp_Force_Field>  (44) 
OPLS3e

>  <r_lp_Energy>  (44) 
34.1998

>  <b_lp_Chiralities_Consistent>  (44) 
1

>  <s_lp_Variant>  (44) 
11:0-5

>  <s_i_glide_gridfile>  (44) 
pfpi4k_grid

>  <i_i_glide_lignum>  (44) 
25

>  <i_i_glide_rotatable_bonds>  (44) 
3

>  <r_i_docking_score>  (44) 
-2.8145

>  <r_i_glide_ligand_efficiency>  (44) 
-0.11258

>  <r_i_glide_ligand_efficiency_sa>  (44) 
-0.329186

>  <r_i_glide_ligand_efficiency_ln>  (44) 
-0.66712

>  <r_i_glide_gscore>  (44) 
-2.8145

>  <r_i_glide_lipo>  (44) 
-0.492731

>  <r_i_glide_hbond>  (44) 
0

>  <r_i_glide_metal>  (44) 
-0

>  <r_i_glide_rewards>  (44) 
-1.04715

>  <r_i_glide_evdw>  (44) 
-21.4715

>  <r_i_glide_ecoul>  (44) 
-1.15134

>  <r_i_glide_erotb>  (44) 
0

>  <r_i_glide_esite>  (44) 
-0.028334

>  <r_i_glide_emodel>  (44) 
-27.5139

>  <r_i_glide_energy>  (44) 
-22.6229

>  <r_i_glide_einternal>  (44) 
0.482892

>  <r_i_glide_intrahb_reward>  (44) 
-0

>  <i_i_glide_confnum>  (44) 
1

>  <i_i_glide_posenum>  (44) 
5

>  <r_i_glide_eff_state_penalty>  (44) 
0

>  <ligand_id>  (44) 
11

>  <original_smiles>  (44) 
C=C1C(O)CC2(C)C3C(O)CC4=C(C)C(=O)CC4C3(C)C(O)C3OC132

>  <smiles>  (44) 
[H]OC1([H])C(=C([H])[H])C23OC2([H])C([H])(O[H])C2(C([H])([H])[H])C4=C([H])C(=O)C([H])(C([H])([H])[H])C4([H])C([H])([H])C([H])(O[H])C2([H])C3(C([H])([H])[H])C1([H])[H]

$$$$
12:0:0
     RDKit          3D

 13 14  0  0  1  0  0  0  0  0999 V2000
    3.4143    0.1483   -4.9296 Cl  0  0  0  0  0  0  0  0  0  0  0  0
    3.6369   -0.9356   -3.6068 C   0  0  0  0  0  0  0  0  0  0  0  0
    2.8218   -2.0907   -3.5333 C   0  0  0  0  0  0  0  0  0  0  0  0
    2.9953   -2.9580   -2.4797 C   0  0  0  0  0  0  0  0  0  0  0  0
    3.9667   -2.6566   -1.5776 N   0  0  0  0  0  0  0  0  0  0  0  0
    4.3376   -3.3517   -0.4763 N   0  0  0  0  0  0  0  0  0  0  0  0
    5.3276   -2.6047   -0.0025 C   0  0  0  0  0  0  0  0  0  0  0  0
    5.6498   -1.4900   -0.7212 N   0  0  0  0  0  0  0  0  0  0  0  0
    4.7605   -1.5071   -1.7096 C   0  0  0  0  0  0  0  0  0  0  0  0
    4.5936   -0.6526   -2.7281 N   0  0  0  0  0  0  0  0  0  0  0  0
    2.0532   -2.2735   -4.2753 H   0  0  0  0  0  0  0  0  0  0  0  0
    2.4080   -3.8550   -2.3229 H   0  0  0  0  0  0  0  0  0  0  0  0
    5.8528   -2.8856    0.9005 H   0  0  0  0  0  0  0  0  0  0  0  0
  1  2  1  0
  2 10  2  0
  2  3  1  0
  3  4  2  0
  3 11  1  0
  4  5  1  0
  4 12  1  0
  5  9  1  0
  5  6  1  0
  6  7  2  0
  7  8  1  0
  7 13  1  0
  8  9  2  0
  9 10  1  0
M  END
>  <i_m_ct_stereo_status>  (45) 
1

>  <s_m_source_file>  (45) 
/var/tmp/pbs.5076255.sched01/tmpi0kgw23q/0rwfjwt46.sdf

>  <i_m_source_file_index>  (45) 
26

>  <i_lp_mmshare_version>  (45) 
48012

>  <i_f3d_flags>  (45) 
0

>  <s_epik_input>  (45) 
W2NIXTFbY0hdYyhDbCluYyhuMTIpbltjSF1uMg==

>  <s_epik_cmdline>  (45) 
J2VwaWtfcHl0aG9uJywgJy1waHQnLCAnMi4wJywgJy1waCcsICc3LjAnLCAnLXRuJywgJzgnLCAnLW1hJywgJzIwMCcsICctaW1hZScsICc8aW5maWxlLm1hZT4nLCAnLW9tYWUnLCAnPG91dGZpbGUubWFlPic=

>  <r_lp_tautomer_probability>  (45) 
1

>  <r_epik_Ionization_Penalty>  (45) 
4.60113e-09

>  <r_epik_Ionization_Penalty_Charging>  (45) 
0

>  <r_epik_Ionization_Penalty_Neutral>  (45) 
4.60113e-09

>  <r_epik_State_Penalty>  (45) 
-0

>  <r_epik_Charging_Adjusted_Penalty>  (45) 
0

>  <i_epik_Tot_Q>  (45) 
0

>  <i_epik_Tot_abs_Q>  (45) 
0

>  <s_lp_Force_Field>  (45) 
OPLS3e

>  <r_lp_Energy>  (45) 
12.8243

>  <b_lp_Chiralities_Consistent>  (45) 
1

>  <s_lp_Variant>  (45) 
12:0-1

>  <s_i_glide_gridfile>  (45) 
pfpi4k_grid

>  <i_i_glide_lignum>  (45) 
26

>  <i_i_glide_rotatable_bonds>  (45) 
0

>  <r_i_docking_score>  (45) 
-4.45166

>  <r_i_glide_ligand_efficiency>  (45) 
-0.445166

>  <r_i_glide_ligand_efficiency_sa>  (45) 
-0.959081

>  <r_i_glide_ligand_efficiency_ln>  (45) 
-1.34793

>  <r_i_glide_gscore>  (45) 
-4.45166

>  <r_i_glide_lipo>  (45) 
-0.58239

>  <r_i_glide_hbond>  (45) 
0

>  <r_i_glide_metal>  (45) 
-0

>  <r_i_glide_rewards>  (45) 
-2.26749

>  <r_i_glide_evdw>  (45) 
-21.0193

>  <r_i_glide_ecoul>  (45) 
-3.22155

>  <r_i_glide_erotb>  (45) 
0

>  <r_i_glide_esite>  (45) 
-0.0675805

>  <r_i_glide_emodel>  (45) 
-31.3965

>  <r_i_glide_energy>  (45) 
-24.2408

>  <r_i_glide_einternal>  (45) 
0

>  <r_i_glide_intrahb_reward>  (45) 
-0

>  <i_i_glide_confnum>  (45) 
1

>  <i_i_glide_posenum>  (45) 
2

>  <r_i_glide_eff_state_penalty>  (45) 
0

>  <ligand_id>  (45) 
12

>  <original_smiles>  (45) 
Clc1ccn2ncnc2n1

>  <smiles>  (45) 
[H]c1nc2nc(Cl)c([H])c([H])n2n1

$$$$
12:0:1
     RDKit          3D

 13 14  0  0  1  0  0  0  0  0999 V2000
    1.0194  -11.3945    3.7383 Cl  0  0  0  0  0  0  0  0  0  0  0  0
    0.8361   -9.8546    2.9907 C   0  0  0  0  0  0  0  0  0  0  0  0
   -0.4668   -9.3031    2.8825 C   0  0  0  0  0  0  0  0  0  0  0  0
   -0.6209   -8.0813    2.2709 C   0  0  0  0  0  0  0  0  0  0  0  0
    0.5018   -7.4653    1.8118 N   0  0  0  0  0  0  0  0  0  0  0  0
    0.6064   -6.2620    1.1786 N   0  0  0  0  0  0  0  0  0  0  0  0
    1.9188   -6.1711    0.9885 C   0  0  0  0  0  0  0  0  0  0  0  0
    2.6691   -7.2149    1.4514 N   0  0  0  0  0  0  0  0  0  0  0  0
    1.7727   -8.0508    1.9610 C   0  0  0  0  0  0  0  0  0  0  0  0
    1.9318   -9.2481    2.5509 N   0  0  0  0  0  0  0  0  0  0  0  0
   -1.3232   -9.8467    3.2702 H   0  0  0  0  0  0  0  0  0  0  0  0
   -1.5757   -7.5892    2.1248 H   0  0  0  0  0  0  0  0  0  0  0  0
    2.3555   -5.3119    0.4958 H   0  0  0  0  0  0  0  0  0  0  0  0
  1  2  1  0
  2 10  2  0
  2  3  1  0
  3  4  2  0
  3 11  1  0
  4  5  1  0
  4 12  1  0
  5  9  1  0
  5  6  1  0
  6  7  2  0
  7  8  1  0
  7 13  1  0
  8  9  2  0
  9 10  1  0
M  END
>  <i_m_ct_stereo_status>  (46) 
1

>  <s_m_source_file>  (46) 
/var/tmp/pbs.5076255.sched01/tmpi0kgw23q/0rwfjwt46.sdf

>  <i_m_source_file_index>  (46) 
26

>  <i_lp_mmshare_version>  (46) 
48012

>  <i_f3d_flags>  (46) 
0

>  <s_epik_input>  (46) 
W2NIXTFbY0hdYyhDbCluYyhuMTIpbltjSF1uMg==

>  <s_epik_cmdline>  (46) 
J2VwaWtfcHl0aG9uJywgJy1waHQnLCAnMi4wJywgJy1waCcsICc3LjAnLCAnLXRuJywgJzgnLCAnLW1hJywgJzIwMCcsICctaW1hZScsICc8aW5maWxlLm1hZT4nLCAnLW9tYWUnLCAnPG91dGZpbGUubWFlPic=

>  <r_lp_tautomer_probability>  (46) 
1

>  <r_epik_Ionization_Penalty>  (46) 
4.60113e-09

>  <r_epik_Ionization_Penalty_Charging>  (46) 
0

>  <r_epik_Ionization_Penalty_Neutral>  (46) 
4.60113e-09

>  <r_epik_State_Penalty>  (46) 
-0

>  <r_epik_Charging_Adjusted_Penalty>  (46) 
0

>  <i_epik_Tot_Q>  (46) 
0

>  <i_epik_Tot_abs_Q>  (46) 
0

>  <s_lp_Force_Field>  (46) 
OPLS3e

>  <r_lp_Energy>  (46) 
12.8243

>  <b_lp_Chiralities_Consistent>  (46) 
1

>  <s_lp_Variant>  (46) 
12:0-1

>  <s_i_glide_gridfile>  (46) 
pfpi4k_grid

>  <i_i_glide_lignum>  (46) 
26

>  <i_i_glide_rotatable_bonds>  (46) 
0

>  <r_i_docking_score>  (46) 
-4.25036

>  <r_i_glide_ligand_efficiency>  (46) 
-0.425036

>  <r_i_glide_ligand_efficiency_sa>  (46) 
-0.915712

>  <r_i_glide_ligand_efficiency_ln>  (46) 
-1.28698

>  <r_i_glide_gscore>  (46) 
-4.25036

>  <r_i_glide_lipo>  (46) 
-0.238993

>  <r_i_glide_hbond>  (46) 
-0.16

>  <r_i_glide_metal>  (46) 
-0

>  <r_i_glide_rewards>  (46) 
-2.25

>  <r_i_glide_evdw>  (46) 
-16.506

>  <r_i_glide_ecoul>  (46) 
-4.27515

>  <r_i_glide_erotb>  (46) 
0

>  <r_i_glide_esite>  (46) 
-0.13479

>  <r_i_glide_emodel>  (46) 
-27.611

>  <r_i_glide_energy>  (46) 
-20.7812

>  <r_i_glide_einternal>  (46) 
0

>  <r_i_glide_intrahb_reward>  (46) 
-0

>  <i_i_glide_confnum>  (46) 
2

>  <i_i_glide_posenum>  (46) 
40

>  <r_i_glide_eff_state_penalty>  (46) 
0

>  <ligand_id>  (46) 
12

>  <original_smiles>  (46) 
Clc1ccn2ncnc2n1

>  <smiles>  (46) 
[H]c1nc2nc(Cl)c([H])c([H])n2n1

$$$$
12:0:2
     RDKit          3D

 13 14  0  0  1  0  0  0  0  0999 V2000
    4.2608   -8.3411    1.2734 Cl  0  0  0  0  0  0  0  0  0  0  0  0
    2.6447   -8.6063    1.8180 C   0  0  0  0  0  0  0  0  0  0  0  0
    2.3196   -9.8663    2.3785 C   0  0  0  0  0  0  0  0  0  0  0  0
    1.0285  -10.0959    2.7999 C   0  0  0  0  0  0  0  0  0  0  0  0
    0.1405   -9.0775    2.6423 N   0  0  0  0  0  0  0  0  0  0  0  0
   -1.1740   -9.0619    2.9601 N   0  0  0  0  0  0  0  0  0  0  0  0
   -1.5287   -7.8357    2.6164 C   0  0  0  0  0  0  0  0  0  0  0  0
   -0.5534   -7.0420    2.0823 N   0  0  0  0  0  0  0  0  0  0  0  0
    0.5151   -7.8420    2.0899 C   0  0  0  0  0  0  0  0  0  0  0  0
    1.7734   -7.6093    1.6822 N   0  0  0  0  0  0  0  0  0  0  0  0
    3.0674  -10.6509    2.4437 H   0  0  0  0  0  0  0  0  0  0  0  0
    0.6722  -11.0301    3.2265 H   0  0  0  0  0  0  0  0  0  0  0  0
   -2.5455   -7.4973    2.7546 H   0  0  0  0  0  0  0  0  0  0  0  0
  1  2  1  0
  2 10  2  0
  2  3  1  0
  3  4  2  0
  3 11  1  0
  4  5  1  0
  4 12  1  0
  5  9  1  0
  5  6  1  0
  6  7  2  0
  7  8  1  0
  7 13  1  0
  8  9  2  0
  9 10  1  0
M  END
>  <i_m_ct_stereo_status>  (47) 
1

>  <s_m_source_file>  (47) 
/var/tmp/pbs.5076255.sched01/tmpi0kgw23q/0rwfjwt46.sdf

>  <i_m_source_file_index>  (47) 
26

>  <i_lp_mmshare_version>  (47) 
48012

>  <i_f3d_flags>  (47) 
0

>  <s_epik_input>  (47) 
W2NIXTFbY0hdYyhDbCluYyhuMTIpbltjSF1uMg==

>  <s_epik_cmdline>  (47) 
J2VwaWtfcHl0aG9uJywgJy1waHQnLCAnMi4wJywgJy1waCcsICc3LjAnLCAnLXRuJywgJzgnLCAnLW1hJywgJzIwMCcsICctaW1hZScsICc8aW5maWxlLm1hZT4nLCAnLW9tYWUnLCAnPG91dGZpbGUubWFlPic=

>  <r_lp_tautomer_probability>  (47) 
1

>  <r_epik_Ionization_Penalty>  (47) 
4.60113e-09

>  <r_epik_Ionization_Penalty_Charging>  (47) 
0

>  <r_epik_Ionization_Penalty_Neutral>  (47) 
4.60113e-09

>  <r_epik_State_Penalty>  (47) 
-0

>  <r_epik_Charging_Adjusted_Penalty>  (47) 
0

>  <i_epik_Tot_Q>  (47) 
0

>  <i_epik_Tot_abs_Q>  (47) 
0

>  <s_lp_Force_Field>  (47) 
OPLS3e

>  <r_lp_Energy>  (47) 
12.8243

>  <b_lp_Chiralities_Consistent>  (47) 
1

>  <s_lp_Variant>  (47) 
12:0-1

>  <s_i_glide_gridfile>  (47) 
pfpi4k_grid

>  <i_i_glide_lignum>  (47) 
26

>  <i_i_glide_rotatable_bonds>  (47) 
0

>  <r_i_docking_score>  (47) 
-4.09534

>  <r_i_glide_ligand_efficiency>  (47) 
-0.409534

>  <r_i_glide_ligand_efficiency_sa>  (47) 
-0.882315

>  <r_i_glide_ligand_efficiency_ln>  (47) 
-1.24004

>  <r_i_glide_gscore>  (47) 
-4.09534

>  <r_i_glide_lipo>  (47) 
-0.162931

>  <r_i_glide_hbond>  (47) 
-0.136552

>  <r_i_glide_metal>  (47) 
-0

>  <r_i_glide_rewards>  (47) 
-2.25

>  <r_i_glide_evdw>  (47) 
-17.7682

>  <r_i_glide_ecoul>  (47) 
-3.50449

>  <r_i_glide_erotb>  (47) 
0

>  <r_i_glide_esite>  (47) 
-0.131776

>  <r_i_glide_emodel>  (47) 
-27.8537

>  <r_i_glide_energy>  (47) 
-21.2727

>  <r_i_glide_einternal>  (47) 
0

>  <r_i_glide_intrahb_reward>  (47) 
-0

>  <i_i_glide_confnum>  (47) 
2

>  <i_i_glide_posenum>  (47) 
19

>  <r_i_glide_eff_state_penalty>  (47) 
0

>  <ligand_id>  (47) 
12

>  <original_smiles>  (47) 
Clc1ccn2ncnc2n1

>  <smiles>  (47) 
[H]c1nc2nc(Cl)c([H])c([H])n2n1

$$$$
13:0:0
     RDKit          3D

 91 97  0  0  1  0  0  0  0  0999 V2000
   -1.1802   -8.4220    3.6553 C   0  0  0  0  0  0  0  0  0  0  0  0
    0.3201   -8.7043    3.4708 C   0  0  2  0  0  0  0  0  0  0  0  0
    0.8101   -7.9045    2.3903 O   0  0  0  0  0  0  0  0  0  0  0  0
    2.2045   -7.9315    2.2361 C   0  0  1  0  0  0  0  0  0  0  0  0
    2.8550   -7.5450    3.4067 O   0  0  0  0  0  0  0  0  0  0  0  0
    2.8672   -6.1524    3.6901 C   0  0  2  0  0  0  0  0  0  0  0  0
    4.1433   -5.5711    3.0587 C   0  0  1  0  0  0  0  0  0  0  0  0
    3.9556   -4.5293    1.9441 C   0  0  2  0  0  0  0  0  0  0  0  0
    4.1002   -4.9285    0.4634 C   0  0  1  0  0  0  0  0  0  0  0  0
    3.0398   -4.2432   -0.3574 C   0  0  0  0  0  0  0  0  0  0  0  0
    3.5194   -3.2062   -1.0477 C   0  0  0  0  0  0  0  0  0  0  0  0
    4.9879   -3.0029   -0.7763 C   0  0  2  0  0  0  0  0  0  0  0  0
    5.6892   -2.7964   -1.9872 O   0  0  0  0  0  0  0  0  0  0  0  0
    5.3708   -4.3918   -0.2303 C   0  0  0  0  0  0  0  0  0  0  0  0
    5.3156   -1.7797    0.1452 C   0  0  0  0  0  0  0  0  0  0  0  0
    4.4601   -1.3465    1.3971 C   0  0  0  0  0  0  0  0  0  0  0  0
    4.9043    0.0804    1.7052 C   0  0  0  0  0  0  0  0  0  0  0  0
    2.9564   -1.1960    1.1210 C   0  0  0  0  0  0  0  0  0  0  0  0
    4.6900   -2.1173    2.7252 C   0  0  0  0  0  0  0  0  0  0  0  0
    4.9736   -3.6105    2.6338 C   0  0  1  0  0  0  0  0  0  0  0  0
    5.0109   -4.5736    3.8462 C   0  0  1  0  0  0  0  0  0  0  0  0
    4.6772   -4.2814    5.3380 C   0  0  2  0  0  0  0  0  0  0  0  0
    5.1700   -2.8841    5.7862 C   0  0  0  0  0  0  0  0  0  0  0  0
    5.4545   -5.3419    6.1925 C   0  0  1  0  0  0  0  0  0  0  0  0
    5.3833   -5.0778    7.5814 O   0  0  0  0  0  0  0  0  0  0  0  0
    4.9900   -6.7986    5.9439 C   0  0  0  0  0  0  0  0  0  0  0  0
    3.4570   -6.9725    6.0728 C   0  0  1  0  0  0  0  0  0  0  0  0
    3.2053   -6.9212    7.4678 O   0  0  0  0  0  0  0  0  0  0  0  0
    2.6676   -5.8977    5.2359 C   0  0  2  0  0  0  0  0  0  0  0  0
    1.1162   -5.7802    5.4643 C   0  0  1  0  0  0  0  0  0  0  0  0
    0.5104   -6.2247    6.8115 C   0  0  0  0  0  0  0  0  0  0  0  0
    0.7747   -4.3042    5.1754 C   0  0  0  0  0  0  0  0  0  0  0  0
    2.1006   -3.5432    5.0391 C   0  0  1  0  0  0  0  0  0  0  0  0
    2.0206   -2.2877    5.6777 O   0  0  0  0  0  0  0  0  0  0  0  0
    3.1560   -4.4877    5.6451 C   0  0  2  0  0  0  0  0  0  0  0  0
    2.6202   -9.3806    1.8720 C   0  0  1  0  0  0  0  0  0  0  0  0
    3.9954   -9.4923    1.5225 O   0  0  0  0  0  0  0  0  0  0  0  0
    2.1412  -10.3893    2.9455 C   0  0  1  0  0  0  0  0  0  0  0  0
    2.8880  -10.2608    4.1457 O   0  0  0  0  0  0  0  0  0  0  0  0
    0.6219  -10.1836    3.1981 C   0  0  1  0  0  0  0  0  0  0  0  0
    0.2252  -10.9727    4.3005 O   0  0  0  0  0  0  0  0  0  0  0  0
   -1.5708   -8.9959    4.4926 H   0  0  0  0  0  0  0  0  0  0  0  0
   -1.7508   -8.7002    2.7713 H   0  0  0  0  0  0  0  0  0  0  0  0
   -1.3803   -7.3750    3.8765 H   0  0  0  0  0  0  0  0  0  0  0  0
    0.8293   -8.4454    4.3979 H   0  0  0  0  0  0  0  0  0  0  0  0
    2.4517   -7.2704    1.4109 H   0  0  0  0  0  0  0  0  0  0  0  0
    2.0136   -5.7094    3.1761 H   0  0  0  0  0  0  0  0  0  0  0  0
    4.8095   -6.3520    2.6844 H   0  0  0  0  0  0  0  0  0  0  0  0
    2.9821   -4.0766    2.0979 H   0  0  0  0  0  0  0  0  0  0  0  0
    4.0266   -6.0064    0.3229 H   0  0  0  0  0  0  0  0  0  0  0  0
    2.0251   -4.5869   -0.3969 H   0  0  0  0  0  0  0  0  0  0  0  0
    2.9498   -2.5827   -1.7108 H   0  0  0  0  0  0  0  0  0  0  0  0
    5.5376   -3.5419   -2.5490 H   0  0  0  0  0  0  0  0  0  0  0  0
    6.3093   -4.4515    0.3201 H   0  0  0  0  0  0  0  0  0  0  0  0
    5.5174   -5.0556   -1.0858 H   0  0  0  0  0  0  0  0  0  0  0  0
    6.3627   -1.8593    0.4524 H   0  0  0  0  0  0  0  0  0  0  0  0
    5.2941   -0.9200   -0.5281 H   0  0  0  0  0  0  0  0  0  0  0  0
    4.4157    0.4869    2.5922 H   0  0  0  0  0  0  0  0  0  0  0  0
    4.6775    0.7544    0.8785 H   0  0  0  0  0  0  0  0  0  0  0  0
    5.9776    0.1205    1.8809 H   0  0  0  0  0  0  0  0  0  0  0  0
    2.4595   -0.5968    1.8860 H   0  0  0  0  0  0  0  0  0  0  0  0
    2.4308   -2.1456    1.1085 H   0  0  0  0  0  0  0  0  0  0  0  0
    2.7877   -0.6945    0.1687 H   0  0  0  0  0  0  0  0  0  0  0  0
    5.5329   -1.6728    3.2539 H   0  0  0  0  0  0  0  0  0  0  0  0
    3.8266   -1.9333    3.3592 H   0  0  0  0  0  0  0  0  0  0  0  0
    5.9614   -3.7212    2.1942 H   0  0  0  0  0  0  0  0  0  0  0  0
    6.0306   -4.9695    3.8022 H   0  0  0  0  0  0  0  0  0  0  0  0
    5.0723   -2.7355    6.8593 H   0  0  0  0  0  0  0  0  0  0  0  0
    4.6131   -2.0689    5.3393 H   0  0  0  0  0  0  0  0  0  0  0  0
    6.2173   -2.7492    5.5353 H   0  0  0  0  0  0  0  0  0  0  0  0
    6.5177   -5.2855    5.9539 H   0  0  0  0  0  0  0  0  0  0  0  0
    4.4921   -5.2467    7.8616 H   0  0  0  0  0  0  0  0  0  0  0  0
    5.2936   -7.1090    4.9457 H   0  0  0  0  0  0  0  0  0  0  0  0
    5.5139   -7.4857    6.6152 H   0  0  0  0  0  0  0  0  0  0  0  0
    3.1776   -7.9804    5.7532 H   0  0  0  0  0  0  0  0  0  0  0  0
    3.6197   -7.6751    7.8669 H   0  0  0  0  0  0  0  0  0  0  0  0
    0.5902   -6.3548    4.7118 H   0  0  0  0  0  0  0  0  0  0  0  0
    0.9210   -5.6615    7.6512 H   0  0  0  0  0  0  0  0  0  0  0  0
    0.6763   -7.2876    6.9919 H   0  0  0  0  0  0  0  0  0  0  0  0
   -0.5703   -6.0724    6.8136 H   0  0  0  0  0  0  0  0  0  0  0  0
    0.2178   -4.2244    4.2411 H   0  0  0  0  0  0  0  0  0  0  0  0
    0.1355   -3.8829    5.9533 H   0  0  0  0  0  0  0  0  0  0  0  0
    2.2837   -3.3770    3.9833 H   0  0  0  0  0  0  0  0  0  0  0  0
    1.9375   -2.4332    6.6102 H   0  0  0  0  0  0  0  0  0  0  0  0
    3.0306   -4.4052    6.7258 H   0  0  0  0  0  0  0  0  0  0  0  0
    2.0983   -9.6214    0.9464 H   0  0  0  0  0  0  0  0  0  0  0  0
    4.1750  -10.4083    1.3099 H   0  0  0  0  0  0  0  0  0  0  0  0
    2.3004  -11.4104    2.5907 H   0  0  0  0  0  0  0  0  0  0  0  0
    2.5167  -10.8688    4.7751 H   0  0  0  0  0  0  0  0  0  0  0  0
    0.0628  -10.4962    2.3132 H   0  0  0  0  0  0  0  0  0  0  0  0
   -0.7047  -10.8308    4.5166 H   0  0  0  0  0  0  0  0  0  0  0  0
  1  2  1  0
  1 42  1  0
  1 43  1  0
  1 44  1  0
  2 40  1  0
  2  3  1  0
  2 45  1  1
  3  4  1  0
  4  5  1  0
  4 36  1  0
  4 46  1  6
  5  6  1  0
  6 29  1  0
  6  7  1  0
  6 47  1  6
  7 21  1  0
  7  8  1  0
  7 48  1  6
  8 20  1  0
  8  9  1  0
  8 49  1  6
  9 14  1  0
  9 10  1  0
  9 50  1  1
 10 11  2  0
 10 51  1  0
 11 12  1  0
 11 52  1  0
 12 13  1  6
 12 14  1  0
 12 15  1  0
 13 53  1  0
 14 54  1  0
 14 55  1  0
 15 16  1  0
 15 56  1  0
 15 57  1  0
 16 17  1  0
 16 18  1  0
 16 19  1  0
 17 58  1  0
 17 59  1  0
 17 60  1  0
 18 61  1  0
 18 62  1  0
 18 63  1  0
 19 20  1  0
 19 64  1  0
 19 65  1  0
 20 21  1  0
 20 66  1  6
 21 22  1  0
 21 67  1  1
 22 35  1  0
 22 23  1  1
 22 24  1  0
 23 68  1  0
 23 69  1  0
 23 70  1  0
 24 25  1  0
 24 26  1  0
 24 71  1  6
 25 72  1  0
 26 27  1  0
 26 73  1  0
 26 74  1  0
 27 28  1  0
 29 27  1  1
 27 75  1  6
 28 76  1  0
 29 35  1  0
 29 30  1  0
 30 31  1  0
 30 32  1  0
 30 77  1  6
 31 78  1  0
 31 79  1  0
 31 80  1  0
 32 33  1  0
 32 81  1  0
 32 82  1  0
 33 34  1  0
 33 35  1  0
 33 83  1  6
 34 84  1  0
 35 85  1  1
 36 37  1  0
 36 38  1  0
 36 86  1  6
 37 87  1  0
 38 39  1  0
 38 40  1  0
 38 88  1  6
 39 89  1  0
 40 41  1  0
 40 90  1  6
 41 91  1  0
M  END
>  <i_m_ct_stereo_status>  (48) 
1

>  <s_m_source_file>  (48) 
/var/tmp/pbs.5076255.sched01/tmpi0kgw23q/0rwfjwt46.sdf

>  <i_m_source_file_index>  (48) 
27

>  <i_lp_mmshare_version>  (48) 
48012

>  <i_f3d_flags>  (48) 
0

>  <s_epik_input>  (48) 
W0NIM11bQ0BIXTFbQ0gyXVtDQEBIXShbT0hdKVtDQEBIXShbQ0BAXTEyMylbQ0BAXShbQ0gzXSkoW0NAQEhdKFtPSF0pW0NIMl1bQ0BIXTNbT0hdKVtDQEhdNFtDQEBIXShbQ0BIXTJPW0NASF0oT1tDQEhdNVtDSDNdKVtDQEBIXShbT0hdKVtDQEBIXShbT0hdKVtDQEhdNVtPSF0pW0NAQEhdNltDQEhdN1tDSF09W0NIXVtDQF0oW09IXSkoW0NIMl03KVtDSDJdQyhbQ0gzXSkoW0NIM10pW0NIMl1bQ0BASF00Ng==

>  <s_epik_cmdline>  (48) 
J2VwaWtfcHl0aG9uJywgJy1waHQnLCAnMi4wJywgJy1waCcsICc3LjAnLCAnLXRuJywgJzgnLCAnLW1hJywgJzIwMCcsICctaW1hZScsICc8aW5maWxlLm1hZT4nLCAnLW9tYWUnLCAnPG91dGZpbGUubWFlPic=

>  <r_lp_tautomer_probability>  (48) 
1

>  <r_epik_Ionization_Penalty>  (48) 
4.75639e-06

>  <r_epik_Ionization_Penalty_Charging>  (48) 
0

>  <r_epik_Ionization_Penalty_Neutral>  (48) 
4.75639e-06

>  <r_epik_State_Penalty>  (48) 
-0

>  <r_epik_Charging_Adjusted_Penalty>  (48) 
0

>  <i_epik_Tot_Q>  (48) 
0

>  <i_epik_Tot_abs_Q>  (48) 
0

>  <s_epik_Chemistry_Notes>  (48) 
This compound contains an acetal/aminal-like group ( X-CH(R)-Y where X, Y are N, S, or O) that may be acid/base labile, releasing an aldehyde.

>  <s_lp_Force_Field>  (48) 
OPLS3e

>  <r_lp_Energy>  (48) 
101.16

>  <b_lp_Chiralities_Consistent>  (48) 
1

>  <s_lp_Variant>  (48) 
13:0-1

>  <s_i_glide_gridfile>  (48) 
pfpi4k_grid

>  <i_i_glide_lignum>  (48) 
27

>  <i_i_glide_rotatable_bonds>  (48) 
9

>  <r_i_docking_score>  (48) 
-3.78122

>  <r_i_glide_ligand_efficiency>  (48) 
-0.092225

>  <r_i_glide_ligand_efficiency_sa>  (48) 
-0.318012

>  <r_i_glide_ligand_efficiency_ln>  (48) 
-0.802199

>  <r_i_glide_gscore>  (48) 
-3.78122

>  <r_i_glide_lipo>  (48) 
-0.439721

>  <r_i_glide_hbond>  (48) 
0

>  <r_i_glide_metal>  (48) 
-0

>  <r_i_glide_rewards>  (48) 
-0.5

>  <r_i_glide_evdw>  (48) 
-30.5705

>  <r_i_glide_ecoul>  (48) 
-8.84394

>  <r_i_glide_erotb>  (48) 
0.0265279

>  <r_i_glide_esite>  (48) 
-0.012916

>  <r_i_glide_emodel>  (48) 
-54.3275

>  <r_i_glide_energy>  (48) 
-39.4144

>  <r_i_glide_einternal>  (48) 
2.12905

>  <r_i_glide_intrahb_reward>  (48) 
-0.5

>  <i_i_glide_confnum>  (48) 
2

>  <i_i_glide_posenum>  (48) 
36

>  <r_i_glide_eff_state_penalty>  (48) 
0

>  <ligand_id>  (48) 
13

>  <original_smiles>  (48) 
CC1OC(OC2C3C4C5C=CC(O)(C5)CC(C)(C)CC4C3C3(C)C(O)CC(O)C24C(C)CC(O)C34)C(O)C(O)C1O

>  <smiles>  (48) 
[H]OC1([H])C([H])(OC2([H])C3([H])C4([H])C5([H])C([H])=C([H])C(O[H])(C5([H])[H])C([H])([H])C(C([H])([H])[H])(C([H])([H])[H])C([H])([H])C4([H])C3([H])C3(C([H])([H])[H])C([H])(O[H])C([H])([H])C([H])(O[H])C24C([H])(C([H])([H])[H])C([H])([H])C([H])(O[H])C34[H])OC([H])(C([H])([H])[H])C([H])(O[H])C1([H])O[H]

$$$$
13:0:1
     RDKit          3D

 91 97  0  0  1  0  0  0  0  0999 V2000
    0.2675   -7.0898    1.1094 C   0  0  0  0  0  0  0  0  0  0  0  0
   -0.5924   -7.3951    2.3326 C   0  0  2  0  0  0  0  0  0  0  0  0
   -0.0693   -6.7794    3.5123 O   0  0  0  0  0  0  0  0  0  0  0  0
    1.1405   -7.2794    4.0287 C   0  0  1  0  0  0  0  0  0  0  0  0
    1.5316   -6.6021    5.1855 O   0  0  0  0  0  0  0  0  0  0  0  0
    1.8869   -5.2269    5.0309 C   0  0  2  0  0  0  0  0  0  0  0  0
    3.2954   -5.0846    4.3800 C   0  0  1  0  0  0  0  0  0  0  0  0
    3.3600   -4.3933    2.9980 C   0  0  2  0  0  0  0  0  0  0  0  0
    3.5324   -5.2169    1.6837 C   0  0  1  0  0  0  0  0  0  0  0  0
    2.6970   -4.6136    0.5870 C   0  0  0  0  0  0  0  0  0  0  0  0
    3.4094   -3.9431   -0.2956 C   0  0  0  0  0  0  0  0  0  0  0  0
    4.8670   -3.9482    0.0778 C   0  0  2  0  0  0  0  0  0  0  0  0
    5.6217   -4.2345   -1.0718 O   0  0  0  0  0  0  0  0  0  0  0  0
    4.9327   -5.1553    1.0320 C   0  0  0  0  0  0  0  0  0  0  0  0
    5.3616   -2.5767    0.6515 C   0  0  0  0  0  0  0  0  0  0  0  0
    4.5208   -1.6383    1.6147 C   0  0  0  0  0  0  0  0  0  0  0  0
    5.2207   -0.2617    1.5539 C   0  0  0  0  0  0  0  0  0  0  0  0
    3.0745   -1.3417    1.1463 C   0  0  0  0  0  0  0  0  0  0  0  0
    4.5110   -2.0119    3.1307 C   0  0  0  0  0  0  0  0  0  0  0  0
    4.4991   -3.4972    3.5013 C   0  0  1  0  0  0  0  0  0  0  0  0
    4.2768   -4.0419    4.9332 C   0  0  1  0  0  0  0  0  0  0  0  0
    3.9263   -3.2612    6.2367 C   0  0  2  0  0  0  0  0  0  0  0  0
    4.6738   -1.9073    6.3192 C   0  0  0  0  0  0  0  0  0  0  0  0
    4.4276   -4.1338    7.4447 C   0  0  1  0  0  0  0  0  0  0  0  0
    4.3015   -3.4527    8.6787 O   0  0  0  0  0  0  0  0  0  0  0  0
    3.7042   -5.4954    7.5791 C   0  0  0  0  0  0  0  0  0  0  0  0
    2.1659   -5.3647    7.5887 C   0  0  1  0  0  0  0  0  0  0  0  0
    1.8295   -4.8661    8.8615 O   0  0  0  0  0  0  0  0  0  0  0  0
    1.6542   -4.4791    6.3948 C   0  0  2  0  0  0  0  0  0  0  0  0
    0.1398   -4.0618    6.3940 C   0  0  1  0  0  0  0  0  0  0  0  0
   -0.6093   -3.9455    7.7312 C   0  0  0  0  0  0  0  0  0  0  0  0
    0.1099   -2.7078    5.6463 C   0  0  0  0  0  0  0  0  0  0  0  0
    1.5595   -2.2467    5.4521 C   0  0  1  0  0  0  0  0  0  0  0  0
    1.6773   -0.8761    5.7421 O   0  0  0  0  0  0  0  0  0  0  0  0
    2.3795   -3.1143    6.4192 C   0  0  2  0  0  0  0  0  0  0  0  0
    1.0189   -8.7901    4.3318 C   0  0  1  0  0  0  0  0  0  0  0  0
    0.2316   -9.0699    5.4758 O   0  0  0  0  0  0  0  0  0  0  0  0
    0.4406   -9.5320    3.1048 C   0  0  1  0  0  0  0  0  0  0  0  0
    0.2465  -10.8993    3.3580 O   0  0  0  0  0  0  0  0  0  0  0  0
   -0.8363   -8.8941    2.5472 C   0  0  1  0  0  0  0  0  0  0  0  0
   -1.9590   -9.0326    3.3977 O   0  0  0  0  0  0  0  0  0  0  0  0
   -0.1765   -7.4876    0.2004 H   0  0  0  0  0  0  0  0  0  0  0  0
    1.2752   -7.4841    1.1858 H   0  0  0  0  0  0  0  0  0  0  0  0
    0.3235   -6.0077    1.0288 H   0  0  0  0  0  0  0  0  0  0  0  0
   -1.5678   -6.9436    2.1584 H   0  0  0  0  0  0  0  0  0  0  0  0
    1.9410   -7.1349    3.3070 H   0  0  0  0  0  0  0  0  0  0  0  0
    1.1711   -4.8205    4.3183 H   0  0  0  0  0  0  0  0  0  0  0  0
    3.8392   -6.0234    4.3386 H   0  0  0  0  0  0  0  0  0  0  0  0
    2.4875   -3.7681    2.8986 H   0  0  0  0  0  0  0  0  0  0  0  0
    3.2619   -6.2653    1.8187 H   0  0  0  0  0  0  0  0  0  0  0  0
    1.6275   -4.6824    0.5335 H   0  0  0  0  0  0  0  0  0  0  0  0
    3.0254   -3.4294   -1.1662 H   0  0  0  0  0  0  0  0  0  0  0  0
    5.1548   -4.9236   -1.5488 H   0  0  0  0  0  0  0  0  0  0  0  0
    5.8032   -5.2103    1.6927 H   0  0  0  0  0  0  0  0  0  0  0  0
    5.0139   -6.0702    0.4359 H   0  0  0  0  0  0  0  0  0  0  0  0
    6.3478   -2.7384    1.0892 H   0  0  0  0  0  0  0  0  0  0  0  0
    5.5212   -1.9736   -0.2418 H   0  0  0  0  0  0  0  0  0  0  0  0
    4.7533    0.4396    2.2432 H   0  0  0  0  0  0  0  0  0  0  0  0
    5.1816    0.1563    0.5469 H   0  0  0  0  0  0  0  0  0  0  0  0
    6.2679   -0.3645    1.8349 H   0  0  0  0  0  0  0  0  0  0  0  0
    2.6629   -0.4637    1.6506 H   0  0  0  0  0  0  0  0  0  0  0  0
    2.3787   -2.1438    1.3602 H   0  0  0  0  0  0  0  0  0  0  0  0
    3.0401   -1.1341    0.0756 H   0  0  0  0  0  0  0  0  0  0  0  0
    5.4025   -1.5784    3.5926 H   0  0  0  0  0  0  0  0  0  0  0  0
    3.6725   -1.4847    3.5860 H   0  0  0  0  0  0  0  0  0  0  0  0
    5.4688   -3.8998    3.2390 H   0  0  0  0  0  0  0  0  0  0  0  0
    5.2016   -4.5933    5.1230 H   0  0  0  0  0  0  0  0  0  0  0  0
    4.5376   -1.4152    7.2836 H   0  0  0  0  0  0  0  0  0  0  0  0
    4.3052   -1.1887    5.5962 H   0  0  0  0  0  0  0  0  0  0  0  0
    5.7451   -2.0316    6.1566 H   0  0  0  0  0  0  0  0  0  0  0  0
    5.4931   -4.3323    7.3291 H   0  0  0  0  0  0  0  0  0  0  0  0
    4.8193   -2.6524    8.6300 H   0  0  0  0  0  0  0  0  0  0  0  0
    4.0034   -6.1356    6.7521 H   0  0  0  0  0  0  0  0  0  0  0  0
    4.0409   -6.0198    8.4774 H   0  0  0  0  0  0  0  0  0  0  0  0
    1.7201   -6.3586    7.5318 H   0  0  0  0  0  0  0  0  0  0  0  0
    2.3164   -4.0482    8.9721 H   0  0  0  0  0  0  0  0  0  0  0  0
   -0.4244   -4.7935    5.8135 H   0  0  0  0  0  0  0  0  0  0  0  0
   -0.1332   -3.2242    8.3998 H   0  0  0  0  0  0  0  0  0  0  0  0
   -0.6637   -4.9080    8.2416 H   0  0  0  0  0  0  0  0  0  0  0  0
   -1.6358   -3.6188    7.5687 H   0  0  0  0  0  0  0  0  0  0  0  0
   -0.3864   -2.7932    4.6809 H   0  0  0  0  0  0  0  0  0  0  0  0
   -0.4516   -1.9631    6.2173 H   0  0  0  0  0  0  0  0  0  0  0  0
    1.8440   -2.4195    4.4159 H   0  0  0  0  0  0  0  0  0  0  0  0
    1.2393   -0.3927    5.0548 H   0  0  0  0  0  0  0  0  0  0  0  0
    2.2094   -2.6719    7.4021 H   0  0  0  0  0  0  0  0  0  0  0  0
    2.0381   -9.1455    4.5183 H   0  0  0  0  0  0  0  0  0  0  0  0
   -0.0914   -9.9676    5.4109 H   0  0  0  0  0  0  0  0  0  0  0  0
    1.1873   -9.4800    2.3091 H   0  0  0  0  0  0  0  0  0  0  0  0
    1.0294  -11.2515    3.7740 H   0  0  0  0  0  0  0  0  0  0  0  0
   -1.1422   -9.3743    1.6251 H   0  0  0  0  0  0  0  0  0  0  0  0
   -1.8956   -9.8087    3.9239 H   0  0  0  0  0  0  0  0  0  0  0  0
  1  2  1  0
  1 42  1  0
  1 43  1  0
  1 44  1  0
  2 40  1  0
  2  3  1  0
  2 45  1  6
  3  4  1  0
  4  5  1  0
  4 36  1  0
  4 46  1  6
  5  6  1  0
  6 29  1  0
  6  7  1  0
  6 47  1  6
  7 21  1  0
  7  8  1  0
  7 48  1  6
  8 20  1  0
  8  9  1  0
  8 49  1  6
  9 14  1  0
  9 10  1  0
  9 50  1  1
 10 11  2  0
 10 51  1  0
 11 12  1  0
 11 52  1  0
 12 13  1  6
 12 14  1  0
 12 15  1  0
 13 53  1  0
 14 54  1  0
 14 55  1  0
 15 16  1  0
 15 56  1  0
 15 57  1  0
 16 17  1  0
 16 18  1  0
 16 19  1  0
 17 58  1  0
 17 59  1  0
 17 60  1  0
 18 61  1  0
 18 62  1  0
 18 63  1  0
 19 20  1  0
 19 64  1  0
 19 65  1  0
 20 21  1  0
 20 66  1  6
 21 22  1  0
 21 67  1  1
 22 35  1  0
 22 23  1  6
 22 24  1  0
 23 68  1  0
 23 69  1  0
 23 70  1  0
 24 25  1  0
 24 26  1  0
 24 71  1  6
 25 72  1  0
 26 27  1  0
 26 73  1  0
 26 74  1  0
 27 28  1  0
 29 27  1  1
 27 75  1  6
 28 76  1  0
 29 35  1  0
 29 30  1  0
 30 31  1  0
 30 32  1  0
 30 77  1  6
 31 78  1  0
 31 79  1  0
 31 80  1  0
 32 33  1  0
 32 81  1  0
 32 82  1  0
 33 34  1  0
 33 35  1  0
 33 83  1  6
 34 84  1  0
 35 85  1  1
 36 37  1  0
 36 38  1  0
 36 86  1  1
 37 87  1  0
 38 39  1  0
 38 40  1  0
 38 88  1  6
 39 89  1  0
 40 41  1  0
 40 90  1  6
 41 91  1  0
M  END
>  <i_m_ct_stereo_status>  (49) 
1

>  <s_m_source_file>  (49) 
/var/tmp/pbs.5076255.sched01/tmpi0kgw23q/0rwfjwt46.sdf

>  <i_m_source_file_index>  (49) 
27

>  <i_lp_mmshare_version>  (49) 
48012

>  <i_f3d_flags>  (49) 
0

>  <s_epik_input>  (49) 
W0NIM11bQ0BIXTFbQ0gyXVtDQEBIXShbT0hdKVtDQEBIXShbQ0BAXTEyMylbQ0BAXShbQ0gzXSkoW0NAQEhdKFtPSF0pW0NIMl1bQ0BIXTNbT0hdKVtDQEhdNFtDQEBIXShbQ0BIXTJPW0NASF0oT1tDQEhdNVtDSDNdKVtDQEBIXShbT0hdKVtDQEBIXShbT0hdKVtDQEhdNVtPSF0pW0NAQEhdNltDQEhdN1tDSF09W0NIXVtDQF0oW09IXSkoW0NIMl03KVtDSDJdQyhbQ0gzXSkoW0NIM10pW0NIMl1bQ0BASF00Ng==

>  <s_epik_cmdline>  (49) 
J2VwaWtfcHl0aG9uJywgJy1waHQnLCAnMi4wJywgJy1waCcsICc3LjAnLCAnLXRuJywgJzgnLCAnLW1hJywgJzIwMCcsICctaW1hZScsICc8aW5maWxlLm1hZT4nLCAnLW9tYWUnLCAnPG91dGZpbGUubWFlPic=

>  <r_lp_tautomer_probability>  (49) 
1

>  <r_epik_Ionization_Penalty>  (49) 
4.75639e-06

>  <r_epik_Ionization_Penalty_Charging>  (49) 
0

>  <r_epik_Ionization_Penalty_Neutral>  (49) 
4.75639e-06

>  <r_epik_State_Penalty>  (49) 
-0

>  <r_epik_Charging_Adjusted_Penalty>  (49) 
0

>  <i_epik_Tot_Q>  (49) 
0

>  <i_epik_Tot_abs_Q>  (49) 
0

>  <s_epik_Chemistry_Notes>  (49) 
This compound contains an acetal/aminal-like group ( X-CH(R)-Y where X, Y are N, S, or O) that may be acid/base labile, releasing an aldehyde.

>  <s_lp_Force_Field>  (49) 
OPLS3e

>  <r_lp_Energy>  (49) 
101.16

>  <b_lp_Chiralities_Consistent>  (49) 
1

>  <s_lp_Variant>  (49) 
13:0-1

>  <s_i_glide_gridfile>  (49) 
pfpi4k_grid

>  <i_i_glide_lignum>  (49) 
27

>  <i_i_glide_rotatable_bonds>  (49) 
9

>  <r_i_docking_score>  (49) 
-3.6076

>  <r_i_glide_ligand_efficiency>  (49) 
-0.0879903

>  <r_i_glide_ligand_efficiency_sa>  (49) 
-0.30341

>  <r_i_glide_ligand_efficiency_ln>  (49) 
-0.765365

>  <r_i_glide_gscore>  (49) 
-3.6076

>  <r_i_glide_lipo>  (49) 
-0.366935

>  <r_i_glide_hbond>  (49) 
-0.0160177

>  <r_i_glide_metal>  (49) 
-0

>  <r_i_glide_rewards>  (49) 
-0.5

>  <r_i_glide_evdw>  (49) 
-31.2392

>  <r_i_glide_ecoul>  (49) 
-7.84596

>  <r_i_glide_erotb>  (49) 
0.0265279

>  <r_i_glide_esite>  (49) 
-0.0123228

>  <r_i_glide_emodel>  (49) 
-51.8707

>  <r_i_glide_energy>  (49) 
-39.0852

>  <r_i_glide_einternal>  (49) 
2.86457

>  <r_i_glide_intrahb_reward>  (49) 
-0.5

>  <i_i_glide_confnum>  (49) 
5

>  <i_i_glide_posenum>  (49) 
25

>  <r_i_glide_eff_state_penalty>  (49) 
0

>  <ligand_id>  (49) 
13

>  <original_smiles>  (49) 
CC1OC(OC2C3C4C5C=CC(O)(C5)CC(C)(C)CC4C3C3(C)C(O)CC(O)C24C(C)CC(O)C34)C(O)C(O)C1O

>  <smiles>  (49) 
[H]OC1([H])C([H])(OC2([H])C3([H])C4([H])C5([H])C([H])=C([H])C(O[H])(C5([H])[H])C([H])([H])C(C([H])([H])[H])(C([H])([H])[H])C([H])([H])C4([H])C3([H])C3(C([H])([H])[H])C([H])(O[H])C([H])([H])C([H])(O[H])C24C([H])(C([H])([H])[H])C([H])([H])C([H])(O[H])C34[H])OC([H])(C([H])([H])[H])C([H])(O[H])C1([H])O[H]

$$$$
13:0:2
     RDKit          3D

 91 97  0  0  1  0  0  0  0  0999 V2000
   -0.9583   -8.7680    3.2137 C   0  0  0  0  0  0  0  0  0  0  0  0
    0.5647   -8.9692    3.1867 C   0  0  2  0  0  0  0  0  0  0  0  0
    1.1008   -8.0959    2.1916 O   0  0  0  0  0  0  0  0  0  0  0  0
    2.5041   -8.0298    2.1675 C   0  0  1  0  0  0  0  0  0  0  0  0
    3.0280   -7.6751    3.4065 O   0  0  0  0  0  0  0  0  0  0  0  0
    2.9862   -6.2933    3.7080 C   0  0  2  0  0  0  0  0  0  0  0  0
    4.2256   -5.6188    3.0845 C   0  0  1  0  0  0  0  0  0  0  0  0
    3.9972   -4.5691    1.9918 C   0  0  2  0  0  0  0  0  0  0  0  0
    4.1534   -4.9167    0.4858 C   0  0  1  0  0  0  0  0  0  0  0  0
    3.0532   -4.2490   -0.3025 C   0  0  0  0  0  0  0  0  0  0  0  0
    3.4766   -3.1654   -0.9380 C   0  0  0  0  0  0  0  0  0  0  0  0
    4.9342   -2.9089   -0.6762 C   0  0  2  0  0  0  0  0  0  0  0  0
    5.6166   -2.6421   -1.8824 O   0  0  0  0  0  0  0  0  0  0  0  0
    5.3872   -4.2950   -0.1737 C   0  0  0  0  0  0  0  0  0  0  0  0
    5.2130   -1.7088    0.2859 C   0  0  0  0  0  0  0  0  0  0  0  0
    4.3418   -1.3587    1.5542 C   0  0  0  0  0  0  0  0  0  0  0  0
    4.7138    0.0776    1.9041 C   0  0  0  0  0  0  0  0  0  0  0  0
    2.8400   -1.2635    1.2820 C   0  0  0  0  0  0  0  0  0  0  0  0
    4.6123   -2.1443    2.8586 C   0  0  0  0  0  0  0  0  0  0  0  0
    4.9555   -3.6220    2.7238 C   0  0  1  0  0  0  0  0  0  0  0  0
    5.0421   -4.6157    3.9061 C   0  0  1  0  0  0  0  0  0  0  0  0
    4.7243   -4.3941    5.4126 C   0  0  2  0  0  0  0  0  0  0  0  0
    5.1618   -2.9939    5.8848 C   0  0  0  0  0  0  0  0  0  0  0  0
    5.5554   -5.4508    6.2176 C   0  0  1  0  0  0  0  0  0  0  0  0
    5.4790   -5.2197    7.6083 O   0  0  0  0  0  0  0  0  0  0  0  0
    5.1448   -6.9117    5.9337 C   0  0  0  0  0  0  0  0  0  0  0  0
    3.6260   -7.1539    6.0615 C   0  0  1  0  0  0  0  0  0  0  0  0
    3.3867   -7.1489    7.4565 O   0  0  0  0  0  0  0  0  0  0  0  0
    2.7921   -6.0886    5.2547 C   0  0  2  0  0  0  0  0  0  0  0  0
    1.2385   -6.0558    5.4951 C   0  0  1  0  0  0  0  0  0  0  0  0
    0.6616   -6.5632    6.8333 C   0  0  0  0  0  0  0  0  0  0  0  0
    0.8244   -4.5909    5.2604 C   0  0  0  0  0  0  0  0  0  0  0  0
    2.1172   -3.7709    5.1318 C   0  0  1  0  0  0  0  0  0  0  0  0
    1.9766   -2.5493    5.8156 O   0  0  0  0  0  0  0  0  0  0  0  0
    3.2234   -4.6736    5.7124 C   0  0  2  0  0  0  0  0  0  0  0  0
    3.0336   -9.4238    1.7783 C   0  0  1  0  0  0  0  0  0  0  0  0
    4.4310   -9.4629    1.5110 O   0  0  0  0  0  0  0  0  0  0  0  0
    2.5465  -10.5130    2.7751 C   0  0  1  0  0  0  0  0  0  0  0  0
    3.1590  -10.3972    4.0520 O   0  0  0  0  0  0  0  0  0  0  0  0
    1.0059  -10.4146    2.8927 C   0  0  1  0  0  0  0  0  0  0  0  0
    0.6107  -11.3276    3.8919 O   0  0  0  0  0  0  0  0  0  0  0  0
   -1.3914   -9.4102    3.9813 H   0  0  0  0  0  0  0  0  0  0  0  0
   -1.4273   -9.0331    2.2675 H   0  0  0  0  0  0  0  0  0  0  0  0
   -1.2334   -7.7414    3.4590 H   0  0  0  0  0  0  0  0  0  0  0  0
    0.9647   -8.7184    4.1641 H   0  0  0  0  0  0  0  0  0  0  0  0
    2.7527   -7.3274    1.3772 H   0  0  0  0  0  0  0  0  0  0  0  0
    2.1019   -5.8870    3.2202 H   0  0  0  0  0  0  0  0  0  0  0  0
    4.9315   -6.3431    2.7045 H   0  0  0  0  0  0  0  0  0  0  0  0
    3.0203   -4.1749    2.1736 H   0  0  0  0  0  0  0  0  0  0  0  0
    4.1343   -5.9872    0.3060 H   0  0  0  0  0  0  0  0  0  0  0  0
    2.0592   -4.6499   -0.3537 H   0  0  0  0  0  0  0  0  0  0  0  0
    2.8670   -2.5552   -1.5831 H   0  0  0  0  0  0  0  0  0  0  0  0
    5.5000   -3.3957   -2.4571 H   0  0  0  0  0  0  0  0  0  0  0  0
    6.3370   -4.3258    0.3793 H   0  0  0  0  0  0  0  0  0  0  0  0
    5.5659   -4.9265   -1.0465 H   0  0  0  0  0  0  0  0  0  0  0  0
    6.2614   -1.7463    0.5839 H   0  0  0  0  0  0  0  0  0  0  0  0
    5.1409   -0.8354   -0.3582 H   0  0  0  0  0  0  0  0  0  0  0  0
    4.2148    0.4389    2.8046 H   0  0  0  0  0  0  0  0  0  0  0  0
    4.4518    0.7582    1.0939 H   0  0  0  0  0  0  0  0  0  0  0  0
    5.7844    0.1386    2.0792 H   0  0  0  0  0  0  0  0  0  0  0  0
    2.3151   -0.7030    2.0602 H   0  0  0  0  0  0  0  0  0  0  0  0
    2.3468   -2.2279    1.2361 H   0  0  0  0  0  0  0  0  0  0  0  0
    2.6886   -0.7362    0.3472 H   0  0  0  0  0  0  0  0  0  0  0  0
    5.4435   -1.6809    3.3873 H   0  0  0  0  0  0  0  0  0  0  0  0
    3.7507   -2.0103    3.5051 H   0  0  0  0  0  0  0  0  0  0  0  0
    5.9384   -3.6903    2.2795 H   0  0  0  0  0  0  0  0  0  0  0  0
    6.0749   -4.9708    3.8237 H   0  0  0  0  0  0  0  0  0  0  0  0
    5.0592   -2.8762    6.9622 H   0  0  0  0  0  0  0  0  0  0  0  0
    4.5638   -2.1881    5.4688 H   0  0  0  0  0  0  0  0  0  0  0  0
    6.2031   -2.8005    5.6425 H   0  0  0  0  0  0  0  0  0  0  0  0
    6.6059   -5.3298    5.9699 H   0  0  0  0  0  0  0  0  0  0  0  0
    4.5955   -5.4457    7.8903 H   0  0  0  0  0  0  0  0  0  0  0  0
    5.4575   -7.1718    4.9262 H   0  0  0  0  0  0  0  0  0  0  0  0
    5.7097   -7.5906    6.5792 H   0  0  0  0  0  0  0  0  0  0  0  0
    3.3905   -8.1635    5.7115 H   0  0  0  0  0  0  0  0  0  0  0  0
    3.8074   -7.9194    7.8291 H   0  0  0  0  0  0  0  0  0  0  0  0
    0.7334   -6.6452    4.7331 H   0  0  0  0  0  0  0  0  0  0  0  0
    1.0559   -6.0055    7.6872 H   0  0  0  0  0  0  0  0  0  0  0  0
    0.8700   -7.6228    6.9864 H   0  0  0  0  0  0  0  0  0  0  0  0
   -0.4246   -6.4496    6.8486 H   0  0  0  0  0  0  0  0  0  0  0  0
    0.2491   -4.5060    4.3404 H   0  0  0  0  0  0  0  0  0  0  0  0
    0.1753   -4.2221    6.0639 H   0  0  0  0  0  0  0  0  0  0  0  0
    2.2808   -3.5540    4.0768 H   0  0  0  0  0  0  0  0  0  0  0  0
    1.9129   -2.7219    6.7492 H   0  0  0  0  0  0  0  0  0  0  0  0
    3.0880   -4.6312    6.7984 H   0  0  0  0  0  0  0  0  0  0  0  0
    2.5824   -9.6544    0.8123 H   0  0  0  0  0  0  0  0  0  0  0  0
    4.6396  -10.3840    1.3385 H   0  0  0  0  0  0  0  0  0  0  0  0
    2.7945  -11.5069    2.3894 H   0  0  0  0  0  0  0  0  0  0  0  0
    2.8533  -11.1303    4.5792 H   0  0  0  0  0  0  0  0  0  0  0  0
    0.5391  -10.6976    1.9538 H   0  0  0  0  0  0  0  0  0  0  0  0
    0.8514  -10.9785    4.7386 H   0  0  0  0  0  0  0  0  0  0  0  0
  1  2  1  0
  1 42  1  0
  1 43  1  0
  1 44  1  0
  2 40  1  0
  2  3  1  0
  2 45  1  1
  3  4  1  0
  4  5  1  0
  4 36  1  0
  4 46  1  6
  5  6  1  0
  6 29  1  0
  6  7  1  0
  6 47  1  6
  7 21  1  0
  7  8  1  0
  7 48  1  6
  8 20  1  0
  8  9  1  0
  8 49  1  6
  9 14  1  0
  9 10  1  0
  9 50  1  1
 10 11  2  0
 10 51  1  0
 11 12  1  0
 11 52  1  0
 12 13  1  6
 12 14  1  0
 12 15  1  0
 13 53  1  0
 14 54  1  0
 14 55  1  0
 15 16  1  0
 15 56  1  0
 15 57  1  0
 16 17  1  0
 16 18  1  0
 16 19  1  0
 17 58  1  0
 17 59  1  0
 17 60  1  0
 18 61  1  0
 18 62  1  0
 18 63  1  0
 19 20  1  0
 19 64  1  0
 19 65  1  0
 20 21  1  0
 20 66  1  6
 21 22  1  0
 21 67  1  1
 22 35  1  0
 22 23  1  1
 22 24  1  0
 23 68  1  0
 23 69  1  0
 23 70  1  0
 24 25  1  0
 24 26  1  0
 24 71  1  6
 25 72  1  0
 26 27  1  0
 26 73  1  0
 26 74  1  0
 27 28  1  0
 29 27  1  1
 27 75  1  6
 28 76  1  0
 29 35  1  0
 29 30  1  0
 30 31  1  0
 30 32  1  0
 30 77  1  6
 31 78  1  0
 31 79  1  0
 31 80  1  0
 32 33  1  0
 32 81  1  0
 32 82  1  0
 33 34  1  0
 33 35  1  0
 33 83  1  6
 34 84  1  0
 35 85  1  1
 36 37  1  0
 36 38  1  0
 36 86  1  6
 37 87  1  0
 38 39  1  0
 38 40  1  0
 38 88  1  6
 39 89  1  0
 40 41  1  0
 40 90  1  6
 41 91  1  0
M  END
>  <i_m_ct_stereo_status>  (50) 
1

>  <s_m_source_file>  (50) 
/var/tmp/pbs.5076255.sched01/tmpi0kgw23q/0rwfjwt46.sdf

>  <i_m_source_file_index>  (50) 
27

>  <i_lp_mmshare_version>  (50) 
48012

>  <i_f3d_flags>  (50) 
0

>  <s_epik_input>  (50) 
W0NIM11bQ0BIXTFbQ0gyXVtDQEBIXShbT0hdKVtDQEBIXShbQ0BAXTEyMylbQ0BAXShbQ0gzXSkoW0NAQEhdKFtPSF0pW0NIMl1bQ0BIXTNbT0hdKVtDQEhdNFtDQEBIXShbQ0BIXTJPW0NASF0oT1tDQEhdNVtDSDNdKVtDQEBIXShbT0hdKVtDQEBIXShbT0hdKVtDQEhdNVtPSF0pW0NAQEhdNltDQEhdN1tDSF09W0NIXVtDQF0oW09IXSkoW0NIMl03KVtDSDJdQyhbQ0gzXSkoW0NIM10pW0NIMl1bQ0BASF00Ng==

>  <s_epik_cmdline>  (50) 
J2VwaWtfcHl0aG9uJywgJy1waHQnLCAnMi4wJywgJy1waCcsICc3LjAnLCAnLXRuJywgJzgnLCAnLW1hJywgJzIwMCcsICctaW1hZScsICc8aW5maWxlLm1hZT4nLCAnLW9tYWUnLCAnPG91dGZpbGUubWFlPic=

>  <r_lp_tautomer_probability>  (50) 
1

>  <r_epik_Ionization_Penalty>  (50) 
4.75639e-06

>  <r_epik_Ionization_Penalty_Charging>  (50) 
0

>  <r_epik_Ionization_Penalty_Neutral>  (50) 
4.75639e-06

>  <r_epik_State_Penalty>  (50) 
-0

>  <r_epik_Charging_Adjusted_Penalty>  (50) 
0

>  <i_epik_Tot_Q>  (50) 
0

>  <i_epik_Tot_abs_Q>  (50) 
0

>  <s_epik_Chemistry_Notes>  (50) 
This compound contains an acetal/aminal-like group ( X-CH(R)-Y where X, Y are N, S, or O) that may be acid/base labile, releasing an aldehyde.

>  <s_lp_Force_Field>  (50) 
OPLS3e

>  <r_lp_Energy>  (50) 
101.16

>  <b_lp_Chiralities_Consistent>  (50) 
1

>  <s_lp_Variant>  (50) 
13:0-1

>  <s_i_glide_gridfile>  (50) 
pfpi4k_grid

>  <i_i_glide_lignum>  (50) 
27

>  <i_i_glide_rotatable_bonds>  (50) 
9

>  <r_i_docking_score>  (50) 
-3.47507

>  <r_i_glide_ligand_efficiency>  (50) 
-0.0847579

>  <r_i_glide_ligand_efficiency_sa>  (50) 
-0.292264

>  <r_i_glide_ligand_efficiency_ln>  (50) 
-0.737249

>  <r_i_glide_gscore>  (50) 
-3.47507

>  <r_i_glide_lipo>  (50) 
-0.485421

>  <r_i_glide_hbond>  (50) 
0

>  <r_i_glide_metal>  (50) 
-0

>  <r_i_glide_rewards>  (50) 
-0.5

>  <r_i_glide_evdw>  (50) 
-34.1584

>  <r_i_glide_ecoul>  (50) 
-5.3135

>  <r_i_glide_erotb>  (50) 
0.0265279

>  <r_i_glide_esite>  (50) 
-0.0112365

>  <r_i_glide_emodel>  (50) 
-53.6255

>  <r_i_glide_energy>  (50) 
-39.4719

>  <r_i_glide_einternal>  (50) 
1.55473

>  <r_i_glide_intrahb_reward>  (50) 
-0.5

>  <i_i_glide_confnum>  (50) 
4

>  <i_i_glide_posenum>  (50) 
34

>  <r_i_glide_eff_state_penalty>  (50) 
0

>  <ligand_id>  (50) 
13

>  <original_smiles>  (50) 
CC1OC(OC2C3C4C5C=CC(O)(C5)CC(C)(C)CC4C3C3(C)C(O)CC(O)C24C(C)CC(O)C34)C(O)C(O)C1O

>  <smiles>  (50) 
[H]OC1([H])C([H])(OC2([H])C3([H])C4([H])C5([H])C([H])=C([H])C(O[H])(C5([H])[H])C([H])([H])C(C([H])([H])[H])(C([H])([H])[H])C([H])([H])C4([H])C3([H])C3(C([H])([H])[H])C([H])(O[H])C([H])([H])C([H])(O[H])C24C([H])(C([H])([H])[H])C([H])([H])C([H])(O[H])C34[H])OC([H])(C([H])([H])[H])C([H])(O[H])C1([H])O[H]

$$$$
14:0:0
     RDKit          3D

 49 52  0  0  1  0  0  0  0  0999 V2000
    4.1591   -2.4906   -3.4580 C   0  0  0  0  0  0  0  0  0  0  0  0
    4.2512   -3.2932   -2.1492 C   0  0  2  0  0  0  0  0  0  0  0  0
    2.9521   -3.0845   -1.3599 C   0  0  0  0  0  0  0  0  0  0  0  0
    3.0231   -3.5305    0.1090 C   0  0  1  0  0  0  0  0  0  0  0  0
    3.1387   -4.9460    0.0767 O   0  0  0  0  0  0  0  0  0  0  0  0
    4.1132   -2.7924    0.9893 C   0  0  1  0  0  0  0  0  0  0  0  0
    3.5332   -1.4583    1.5672 C   0  0  1  0  0  0  0  0  0  0  0  0
    3.0221   -0.5798    0.5775 O   0  0  0  0  0  0  0  0  0  0  0  0
    2.4880   -1.6255    2.6701 C   0  0  0  0  0  0  0  0  0  0  0  0
    3.0772   -2.4225    3.8391 C   0  0  0  0  0  0  0  0  0  0  0  0
    3.5801   -3.8276    3.4387 C   0  0  0  0  0  0  0  0  0  0  0  0
    4.2810   -4.4040    4.6891 C   0  0  0  0  0  0  0  0  0  0  0  0
    2.3421   -4.7163    3.1566 C   0  0  0  0  0  0  0  0  0  0  0  0
    4.6040   -3.6850    2.2416 C   0  0  1  0  0  0  0  0  0  0  0  0
    5.5344   -4.9403    1.9643 C   0  0  1  0  0  0  0  0  0  0  0  0
    4.8692   -6.1756    2.0151 O   0  0  0  0  0  0  0  0  0  0  0  0
    6.2946   -4.8887    0.6395 C   0  0  0  0  0  0  0  0  0  0  0  0
    5.9513   -3.7466   -0.1639 C   0  0  0  0  0  0  0  0  0  0  0  0
    5.4971   -2.8902   -1.3361 C   0  0  2  0  0  0  0  0  0  0  0  0
    5.3216   -2.4196    0.0471 C   0  0  1  0  0  0  0  0  0  0  0  0
    6.3294   -1.3864    0.5647 C   0  0  0  0  0  0  0  0  0  0  0  0
    4.0927   -1.4247   -3.2794 H   0  0  0  0  0  0  0  0  0  0  0  0
    3.2875   -2.7735   -4.0408 H   0  0  0  0  0  0  0  0  0  0  0  0
    5.0226   -2.6619   -4.0832 H   0  0  0  0  0  0  0  0  0  0  0  0
    4.3646   -4.3427   -2.4164 H   0  0  0  0  0  0  0  0  0  0  0  0
    2.6881   -2.0344   -1.4174 H   0  0  0  0  0  0  0  0  0  0  0  0
    2.1283   -3.5951   -1.8614 H   0  0  0  0  0  0  0  0  0  0  0  0
    2.0552   -3.3261    0.5353 H   0  0  0  0  0  0  0  0  0  0  0  0
    3.3486   -5.2302   -0.7987 H   0  0  0  0  0  0  0  0  0  0  0  0
    4.3460   -0.9128    2.0508 H   0  0  0  0  0  0  0  0  0  0  0  0
    2.2332   -0.9370    0.1802 H   0  0  0  0  0  0  0  0  0  0  0  0
    2.2077   -0.6415    3.0347 H   0  0  0  0  0  0  0  0  0  0  0  0
    1.5708   -2.0826    2.3047 H   0  0  0  0  0  0  0  0  0  0  0  0
    3.9033   -1.8450    4.2659 H   0  0  0  0  0  0  0  0  0  0  0  0
    2.3328   -2.4964    4.6381 H   0  0  0  0  0  0  0  0  0  0  0  0
    4.5564   -5.4492    4.5608 H   0  0  0  0  0  0  0  0  0  0  0  0
    3.6272   -4.3581    5.5631 H   0  0  0  0  0  0  0  0  0  0  0  0
    5.1854   -3.8484    4.9407 H   0  0  0  0  0  0  0  0  0  0  0  0
    2.6004   -5.7183    2.8297 H   0  0  0  0  0  0  0  0  0  0  0  0
    1.6854   -4.2960    2.4037 H   0  0  0  0  0  0  0  0  0  0  0  0
    1.7334   -4.8288    4.0571 H   0  0  0  0  0  0  0  0  0  0  0  0
    5.3426   -3.0163    2.6799 H   0  0  0  0  0  0  0  0  0  0  0  0
    6.3006   -4.9734    2.7366 H   0  0  0  0  0  0  0  0  0  0  0  0
    4.1970   -6.1534    1.3531 H   0  0  0  0  0  0  0  0  0  0  0  0
    7.0151   -5.6298    0.3350 H   0  0  0  0  0  0  0  0  0  0  0  0
    6.3729   -2.6210   -1.9006 H   0  0  0  0  0  0  0  0  0  0  0  0
    5.9478   -0.3706    0.4469 H   0  0  0  0  0  0  0  0  0  0  0  0
    7.2580   -1.4744    0.0033 H   0  0  0  0  0  0  0  0  0  0  0  0
    6.5623   -1.5929    1.6024 H   0  0  0  0  0  0  0  0  0  0  0  0
  1  2  1  0
  1 22  1  0
  1 23  1  0
  1 24  1  0
  2 19  1  0
  2  3  1  0
  2 25  1  6
  3  4  1  0
  3 26  1  0
  3 27  1  0
  4  5  1  0
  4  6  1  0
  4 28  1  1
  5 29  1  0
  6 14  1  0
  6 20  1  6
  6  7  1  0
  7  8  1  0
  7  9  1  0
  7 30  1  1
  8 31  1  0
  9 10  1  0
  9 32  1  0
  9 33  1  0
 10 11  1  0
 10 34  1  0
 10 35  1  0
 11 12  1  0
 11 13  1  0
 11 14  1  0
 12 36  1  0
 12 37  1  0
 12 38  1  0
 13 39  1  0
 13 40  1  0
 13 41  1  0
 14 15  1  0
 14 42  1  1
 15 16  1  0
 15 17  1  0
 15 43  1  1
 16 44  1  0
 17 18  2  0
 17 45  1  0
 18 20  1  0
 18 19  1  0
 19 20  1  0
 19 46  1  6
 20 21  1  6
 21 47  1  0
 21 48  1  0
 21 49  1  0
M  END
>  <i_m_ct_stereo_status>  (51) 
1

>  <s_m_source_file>  (51) 
/var/tmp/pbs.5076255.sched01/tmpi0kgw23q/0rwfjwt46.sdf

>  <i_m_source_file_index>  (51) 
28

>  <i_lp_mmshare_version>  (51) 
48012

>  <i_f3d_flags>  (51) 
0

>  <s_epik_input>  (51) 
W09IXVtDQEBIXTFbQ0gyXVtDQEBIXShbQ0gzXSlbQ0hdKEMyM1tDSDNdKUMzPVtDSF1bQ0BIXShbT0hdKVtDQEBIXShbQ0BdMTI0KUMoW0NIM10pKFtDSDNdKVtDSDJdW0NIMl1bQ0BASF00W09IXQ==

>  <s_epik_cmdline>  (51) 
J2VwaWtfcHl0aG9uJywgJy1waHQnLCAnMi4wJywgJy1waCcsICc3LjAnLCAnLXRuJywgJzgnLCAnLW1hJywgJzIwMCcsICctaW1hZScsICc8aW5maWxlLm1hZT4nLCAnLW9tYWUnLCAnPG91dGZpbGUubWFlPic=

>  <r_lp_tautomer_probability>  (51) 
1

>  <r_epik_Ionization_Penalty>  (51) 
1.23495e-06

>  <r_epik_Ionization_Penalty_Charging>  (51) 
0

>  <r_epik_Ionization_Penalty_Neutral>  (51) 
1.23495e-06

>  <r_epik_State_Penalty>  (51) 
-0

>  <r_epik_Charging_Adjusted_Penalty>  (51) 
0

>  <i_epik_Tot_Q>  (51) 
0

>  <i_epik_Tot_abs_Q>  (51) 
0

>  <s_lp_Force_Field>  (51) 
OPLS3e

>  <r_lp_Energy>  (51) 
56.9499

>  <b_lp_Chiralities_Consistent>  (51) 
1

>  <s_lp_Variant>  (51) 
14:0-1

>  <s_i_glide_gridfile>  (51) 
pfpi4k_grid

>  <i_i_glide_lignum>  (51) 
28

>  <i_i_glide_rotatable_bonds>  (51) 
3

>  <r_i_docking_score>  (51) 
-4.6273

>  <r_i_glide_ligand_efficiency>  (51) 
-0.220347

>  <r_i_glide_ligand_efficiency_sa>  (51) 
-0.607922

>  <r_i_glide_ligand_efficiency_ln>  (51) 
-1.14409

>  <r_i_glide_gscore>  (51) 
-4.6273

>  <r_i_glide_lipo>  (51) 
-0.521931

>  <r_i_glide_hbond>  (51) 
-0.152155

>  <r_i_glide_metal>  (51) 
-0

>  <r_i_glide_rewards>  (51) 
-1.91537

>  <r_i_glide_evdw>  (51) 
-21.5215

>  <r_i_glide_ecoul>  (51) 
-6.4118

>  <r_i_glide_erotb>  (51) 
0

>  <r_i_glide_esite>  (51) 
0

>  <r_i_glide_emodel>  (51) 
-39.5922

>  <r_i_glide_energy>  (51) 
-27.9333

>  <r_i_glide_einternal>  (51) 
1.2994

>  <r_i_glide_intrahb_reward>  (51) 
-0.5

>  <i_i_glide_confnum>  (51) 
2

>  <i_i_glide_posenum>  (51) 
14

>  <r_i_glide_eff_state_penalty>  (51) 
0

>  <ligand_id>  (51) 
14

>  <original_smiles>  (51) 
CC1CC(O)C23C(O)CCC(C)(C)C2C(O)C=C2C1C23C

>  <smiles>  (51) 
[H]OC1([H])C([H])=C2C3([H])C([H])(C([H])([H])[H])C([H])([H])C([H])(O[H])C4(C([H])(O[H])C([H])([H])C([H])([H])C(C([H])([H])[H])(C([H])([H])[H])C14[H])C23C([H])([H])[H]

$$$$
14:0:1
     RDKit          3D

 49 52  0  0  1  0  0  0  0  0999 V2000
    4.1319   -2.4879   -3.5097 C   0  0  0  0  0  0  0  0  0  0  0  0
    4.2063   -3.2799   -2.1924 C   0  0  2  0  0  0  0  0  0  0  0  0
    2.9060   -3.0604   -1.4102 C   0  0  0  0  0  0  0  0  0  0  0  0
    2.9632   -3.5028    0.0603 C   0  0  1  0  0  0  0  0  0  0  0  0
    3.0195   -4.9153    0.0537 O   0  0  0  0  0  0  0  0  0  0  0  0
    4.0675   -2.7865    0.9422 C   0  0  1  0  0  0  0  0  0  0  0  0
    3.5058   -1.4438    1.5135 C   0  0  1  0  0  0  0  0  0  0  0  0
    3.0071   -0.5714    0.5057 O   0  0  0  0  0  0  0  0  0  0  0  0
    2.4530   -1.5950    2.6160 C   0  0  0  0  0  0  0  0  0  0  0  0
    3.0322   -2.3922    3.7897 C   0  0  0  0  0  0  0  0  0  0  0  0
    3.5249   -3.8058    3.3981 C   0  0  0  0  0  0  0  0  0  0  0  0
    4.2218   -4.3792    4.6527 C   0  0  0  0  0  0  0  0  0  0  0  0
    2.2831   -4.6857    3.1169 C   0  0  0  0  0  0  0  0  0  0  0  0
    4.5454   -3.6826    2.1958 C   0  0  1  0  0  0  0  0  0  0  0  0
    5.4650   -4.9487    1.9222 C   0  0  1  0  0  0  0  0  0  0  0  0
    4.8445   -6.2068    2.0514 O   0  0  0  0  0  0  0  0  0  0  0  0
    6.2265   -4.9022    0.5982 C   0  0  0  0  0  0  0  0  0  0  0  0
    5.8984   -3.7476   -0.1953 C   0  0  0  0  0  0  0  0  0  0  0  0
    5.4523   -2.8936   -1.3808 C   0  0  2  0  0  0  0  0  0  0  0  0
    5.2760   -2.4181    0.0013 C   0  0  1  0  0  0  0  0  0  0  0  0
    6.2932   -1.3959    0.5152 C   0  0  0  0  0  0  0  0  0  0  0  0
    4.0636   -1.4197   -3.3325 H   0  0  0  0  0  0  0  0  0  0  0  0
    3.2490   -2.7732   -4.0817 H   0  0  0  0  0  0  0  0  0  0  0  0
    4.9983   -2.6775   -4.1256 H   0  0  0  0  0  0  0  0  0  0  0  0
    4.3141   -4.3253   -2.4594 H   0  0  0  0  0  0  0  0  0  0  0  0
    2.6464   -2.0095   -1.4763 H   0  0  0  0  0  0  0  0  0  0  0  0
    2.0839   -3.5715   -1.9141 H   0  0  0  0  0  0  0  0  0  0  0  0
    1.9958   -3.2726    0.4747 H   0  0  0  0  0  0  0  0  0  0  0  0
    3.0484   -5.2277   -0.8419 H   0  0  0  0  0  0  0  0  0  0  0  0
    4.3202   -0.9060    2.0008 H   0  0  0  0  0  0  0  0  0  0  0  0
    2.1657   -0.8452    0.1902 H   0  0  0  0  0  0  0  0  0  0  0  0
    2.1787   -0.6058    2.9770 H   0  0  0  0  0  0  0  0  0  0  0  0
    1.5314   -2.0465    2.2520 H   0  0  0  0  0  0  0  0  0  0  0  0
    3.8622   -1.8204    4.2159 H   0  0  0  0  0  0  0  0  0  0  0  0
    2.2868   -2.4573    4.5890 H   0  0  0  0  0  0  0  0  0  0  0  0
    4.4904   -5.4279    4.5410 H   0  0  0  0  0  0  0  0  0  0  0  0
    3.5662   -4.3203    5.5249 H   0  0  0  0  0  0  0  0  0  0  0  0
    5.1290   -3.8270    4.9011 H   0  0  0  0  0  0  0  0  0  0  0  0
    2.5353   -5.6887    2.7836 H   0  0  0  0  0  0  0  0  0  0  0  0
    1.6326   -4.2586    2.3616 H   0  0  0  0  0  0  0  0  0  0  0  0
    1.6710   -4.7912    4.0163 H   0  0  0  0  0  0  0  0  0  0  0  0
    5.2884   -3.0158    2.6318 H   0  0  0  0  0  0  0  0  0  0  0  0
    6.2405   -4.9508    2.6816 H   0  0  0  0  0  0  0  0  0  0  0  0
    4.5716   -6.3110    2.9478 H   0  0  0  0  0  0  0  0  0  0  0  0
    6.9402   -5.6511    0.2956 H   0  0  0  0  0  0  0  0  0  0  0  0
    6.3405   -2.6387   -1.9380 H   0  0  0  0  0  0  0  0  0  0  0  0
    5.9229   -0.3749    0.3934 H   0  0  0  0  0  0  0  0  0  0  0  0
    7.2234   -1.4904   -0.0454 H   0  0  0  0  0  0  0  0  0  0  0  0
    6.5275   -1.5961    1.5559 H   0  0  0  0  0  0  0  0  0  0  0  0
  1  2  1  0
  1 22  1  0
  1 23  1  0
  1 24  1  0
  2 19  1  0
  2  3  1  0
  2 25  1  6
  3  4  1  0
  3 26  1  0
  3 27  1  0
  4  5  1  0
  4  6  1  0
  4 28  1  1
  5 29  1  0
  6 14  1  0
  6 20  1  6
  6  7  1  0
  7  8  1  0
  7  9  1  0
  7 30  1  1
  8 31  1  0
  9 10  1  0
  9 32  1  0
  9 33  1  0
 10 11  1  0
 10 34  1  0
 10 35  1  0
 11 12  1  0
 11 13  1  0
 11 14  1  0
 12 36  1  0
 12 37  1  0
 12 38  1  0
 13 39  1  0
 13 40  1  0
 13 41  1  0
 14 15  1  0
 14 42  1  1
 15 16  1  0
 15 17  1  0
 15 43  1  1
 16 44  1  0
 17 18  2  0
 17 45  1  0
 18 20  1  0
 18 19  1  0
 19 20  1  0
 19 46  1  6
 20 21  1  6
 21 47  1  0
 21 48  1  0
 21 49  1  0
M  END
>  <i_m_ct_stereo_status>  (52) 
1

>  <s_m_source_file>  (52) 
/var/tmp/pbs.5076255.sched01/tmpi0kgw23q/0rwfjwt46.sdf

>  <i_m_source_file_index>  (52) 
28

>  <i_lp_mmshare_version>  (52) 
48012

>  <i_f3d_flags>  (52) 
0

>  <s_epik_input>  (52) 
W09IXVtDQEBIXTFbQ0gyXVtDQEBIXShbQ0gzXSlbQ0hdKEMyM1tDSDNdKUMzPVtDSF1bQ0BIXShbT0hdKVtDQEBIXShbQ0BdMTI0KUMoW0NIM10pKFtDSDNdKVtDSDJdW0NIMl1bQ0BASF00W09IXQ==

>  <s_epik_cmdline>  (52) 
J2VwaWtfcHl0aG9uJywgJy1waHQnLCAnMi4wJywgJy1waCcsICc3LjAnLCAnLXRuJywgJzgnLCAnLW1hJywgJzIwMCcsICctaW1hZScsICc8aW5maWxlLm1hZT4nLCAnLW9tYWUnLCAnPG91dGZpbGUubWFlPic=

>  <r_lp_tautomer_probability>  (52) 
1

>  <r_epik_Ionization_Penalty>  (52) 
1.23495e-06

>  <r_epik_Ionization_Penalty_Charging>  (52) 
0

>  <r_epik_Ionization_Penalty_Neutral>  (52) 
1.23495e-06

>  <r_epik_State_Penalty>  (52) 
-0

>  <r_epik_Charging_Adjusted_Penalty>  (52) 
0

>  <i_epik_Tot_Q>  (52) 
0

>  <i_epik_Tot_abs_Q>  (52) 
0

>  <s_lp_Force_Field>  (52) 
OPLS3e

>  <r_lp_Energy>  (52) 
56.9499

>  <b_lp_Chiralities_Consistent>  (52) 
1

>  <s_lp_Variant>  (52) 
14:0-1

>  <s_i_glide_gridfile>  (52) 
pfpi4k_grid

>  <i_i_glide_lignum>  (52) 
28

>  <i_i_glide_rotatable_bonds>  (52) 
3

>  <r_i_docking_score>  (52) 
-4.17997

>  <r_i_glide_ligand_efficiency>  (52) 
-0.199046

>  <r_i_glide_ligand_efficiency_sa>  (52) 
-0.549153

>  <r_i_glide_ligand_efficiency_ln>  (52) 
-1.03349

>  <r_i_glide_gscore>  (52) 
-4.17997

>  <r_i_glide_lipo>  (52) 
-0.52532

>  <r_i_glide_hbond>  (52) 
-0.152

>  <r_i_glide_metal>  (52) 
-0

>  <r_i_glide_rewards>  (52) 
-1.41537

>  <r_i_glide_evdw>  (52) 
-20.9553

>  <r_i_glide_ecoul>  (52) 
-6.93011

>  <r_i_glide_erotb>  (52) 
0

>  <r_i_glide_esite>  (52) 
0

>  <r_i_glide_emodel>  (52) 
-33.6563

>  <r_i_glide_energy>  (52) 
-27.8855

>  <r_i_glide_einternal>  (52) 
2.00693

>  <r_i_glide_intrahb_reward>  (52) 
-0

>  <i_i_glide_confnum>  (52) 
2

>  <i_i_glide_posenum>  (52) 
23

>  <r_i_glide_eff_state_penalty>  (52) 
0

>  <ligand_id>  (52) 
14

>  <original_smiles>  (52) 
CC1CC(O)C23C(O)CCC(C)(C)C2C(O)C=C2C1C23C

>  <smiles>  (52) 
[H]OC1([H])C([H])=C2C3([H])C([H])(C([H])([H])[H])C([H])([H])C([H])(O[H])C4(C([H])(O[H])C([H])([H])C([H])([H])C(C([H])([H])[H])(C([H])([H])[H])C14[H])C23C([H])([H])[H]

$$$$
14:0:2
     RDKit          3D

 49 52  0  0  1  0  0  0  0  0999 V2000
    3.6873    0.2214   -4.1081 C   0  0  0  0  0  0  0  0  0  0  0  0
    3.4313   -0.7064   -2.9042 C   0  0  2  0  0  0  0  0  0  0  0  0
    4.5590   -0.5719   -1.8748 C   0  0  0  0  0  0  0  0  0  0  0  0
    4.6313   -1.5901   -0.7415 C   0  0  1  0  0  0  0  0  0  0  0  0
    3.4502   -1.4267    0.0427 O   0  0  0  0  0  0  0  0  0  0  0  0
    4.8925   -3.0256   -1.2938 C   0  0  1  0  0  0  0  0  0  0  0  0
    6.4317   -3.2747   -1.4492 C   0  0  1  0  0  0  0  0  0  0  0  0
    7.1050   -2.3128   -2.2174 O   0  0  0  0  0  0  0  0  0  0  0  0
    7.2376   -3.4228   -0.1625 C   0  0  0  0  0  0  0  0  0  0  0  0
    6.6844   -4.5726    0.6670 C   0  0  0  0  0  0  0  0  0  0  0  0
    5.1941   -4.4026    1.0306 C   0  0  0  0  0  0  0  0  0  0  0  0
    4.7761   -5.7210    1.7130 C   0  0  0  0  0  0  0  0  0  0  0  0
    5.0837   -3.2700    2.0795 C   0  0  0  0  0  0  0  0  0  0  0  0
    4.3674   -4.1741   -0.3051 C   0  0  1  0  0  0  0  0  0  0  0  0
    2.7877   -4.3707   -0.1923 C   0  0  1  0  0  0  0  0  0  0  0  0
    2.2717   -3.8869    1.0189 O   0  0  0  0  0  0  0  0  0  0  0  0
    1.9754   -3.7796   -1.3429 C   0  0  0  0  0  0  0  0  0  0  0  0
    2.8021   -3.1517   -2.3221 C   0  0  0  0  0  0  0  0  0  0  0  0
    3.3050   -2.1261   -3.3295 C   0  0  2  0  0  0  0  0  0  0  0  0
    4.2199   -3.0987   -2.7165 C   0  0  1  0  0  0  0  0  0  0  0  0
    4.6371   -4.2053   -3.6495 C   0  0  0  0  0  0  0  0  0  0  0  0
    4.5920   -0.0316   -4.6558 H   0  0  0  0  0  0  0  0  0  0  0  0
    3.8219    1.2532   -3.7815 H   0  0  0  0  0  0  0  0  0  0  0  0
    2.8531    0.2160   -4.8049 H   0  0  0  0  0  0  0  0  0  0  0  0
    2.4854   -0.4147   -2.4355 H   0  0  0  0  0  0  0  0  0  0  0  0
    5.5272   -0.4486   -2.3523 H   0  0  0  0  0  0  0  0  0  0  0  0
    4.3428    0.3421   -1.3809 H   0  0  0  0  0  0  0  0  0  0  0  0
    5.4485   -1.2789   -0.1018 H   0  0  0  0  0  0  0  0  0  0  0  0
    2.6848   -1.3912   -0.5252 H   0  0  0  0  0  0  0  0  0  0  0  0
    6.5123   -4.1888   -2.0013 H   0  0  0  0  0  0  0  0  0  0  0  0
    7.6633   -2.7746   -2.8511 H   0  0  0  0  0  0  0  0  0  0  0  0
    8.2763   -3.6397   -0.4182 H   0  0  0  0  0  0  0  0  0  0  0  0
    7.2666   -2.4945    0.4075 H   0  0  0  0  0  0  0  0  0  0  0  0
    6.8248   -5.4980    0.1047 H   0  0  0  0  0  0  0  0  0  0  0  0
    7.2915   -4.6868    1.5726 H   0  0  0  0  0  0  0  0  0  0  0  0
    3.7748   -5.6711    2.1389 H   0  0  0  0  0  0  0  0  0  0  0  0
    5.4489   -5.9686    2.5390 H   0  0  0  0  0  0  0  0  0  0  0  0
    4.8005   -6.5637    1.0236 H   0  0  0  0  0  0  0  0  0  0  0  0
    4.0643   -3.0458    2.3787 H   0  0  0  0  0  0  0  0  0  0  0  0
    5.5167   -2.3318    1.7501 H   0  0  0  0  0  0  0  0  0  0  0  0
    5.6164   -3.5348    2.9976 H   0  0  0  0  0  0  0  0  0  0  0  0
    4.6164   -5.0660   -0.8735 H   0  0  0  0  0  0  0  0  0  0  0  0
    2.5948   -5.4444   -0.1968 H   0  0  0  0  0  0  0  0  0  0  0  0
    2.4197   -2.9513    1.0018 H   0  0  0  0  0  0  0  0  0  0  0  0
    0.9455   -4.0135   -1.5316 H   0  0  0  0  0  0  0  0  0  0  0  0
    2.8640   -2.3475   -4.2966 H   0  0  0  0  0  0  0  0  0  0  0  0
    5.6045   -3.9616   -4.1405 H   0  0  0  0  0  0  0  0  0  0  0  0
    3.8871   -4.4176   -4.4005 H   0  0  0  0  0  0  0  0  0  0  0  0
    4.8185   -5.0841   -3.0539 H   0  0  0  0  0  0  0  0  0  0  0  0
  1  2  1  0
  1 22  1  0
  1 23  1  0
  1 24  1  0
  2 19  1  0
  2  3  1  0
  2 25  1  1
  3  4  1  0
  3 26  1  0
  3 27  1  0
  4  5  1  0
  4  6  1  0
  4 28  1  1
  5 29  1  0
  6 14  1  0
  6 20  1  6
  6  7  1  0
  7  8  1  0
  7  9  1  0
  7 30  1  6
  8 31  1  0
  9 10  1  0
  9 32  1  0
  9 33  1  0
 10 11  1  0
 10 34  1  0
 10 35  1  0
 11 12  1  0
 11 13  1  0
 11 14  1  0
 12 36  1  0
 12 37  1  0
 12 38  1  0
 13 39  1  0
 13 40  1  0
 13 41  1  0
 14 15  1  0
 14 42  1  6
 15 16  1  0
 15 17  1  0
 15 43  1  1
 16 44  1  0
 17 18  2  0
 17 45  1  0
 18 20  1  0
 18 19  1  0
 19 20  1  0
 19 46  1  6
 20 21  1  6
 21 47  1  0
 21 48  1  0
 21 49  1  0
M  END
>  <i_m_ct_stereo_status>  (53) 
1

>  <s_m_source_file>  (53) 
/var/tmp/pbs.5076255.sched01/tmpi0kgw23q/0rwfjwt46.sdf

>  <i_m_source_file_index>  (53) 
28

>  <i_lp_mmshare_version>  (53) 
48012

>  <i_f3d_flags>  (53) 
0

>  <s_epik_input>  (53) 
W09IXVtDQEBIXTFbQ0gyXVtDQEBIXShbQ0gzXSlbQ0hdKEMyM1tDSDNdKUMzPVtDSF1bQ0BIXShbT0hdKVtDQEBIXShbQ0BdMTI0KUMoW0NIM10pKFtDSDNdKVtDSDJdW0NIMl1bQ0BASF00W09IXQ==

>  <s_epik_cmdline>  (53) 
J2VwaWtfcHl0aG9uJywgJy1waHQnLCAnMi4wJywgJy1waCcsICc3LjAnLCAnLXRuJywgJzgnLCAnLW1hJywgJzIwMCcsICctaW1hZScsICc8aW5maWxlLm1hZT4nLCAnLW9tYWUnLCAnPG91dGZpbGUubWFlPic=

>  <r_lp_tautomer_probability>  (53) 
1

>  <r_epik_Ionization_Penalty>  (53) 
1.23495e-06

>  <r_epik_Ionization_Penalty_Charging>  (53) 
0

>  <r_epik_Ionization_Penalty_Neutral>  (53) 
1.23495e-06

>  <r_epik_State_Penalty>  (53) 
-0

>  <r_epik_Charging_Adjusted_Penalty>  (53) 
0

>  <i_epik_Tot_Q>  (53) 
0

>  <i_epik_Tot_abs_Q>  (53) 
0

>  <s_lp_Force_Field>  (53) 
OPLS3e

>  <r_lp_Energy>  (53) 
56.9499

>  <b_lp_Chiralities_Consistent>  (53) 
1

>  <s_lp_Variant>  (53) 
14:0-1

>  <s_i_glide_gridfile>  (53) 
pfpi4k_grid

>  <i_i_glide_lignum>  (53) 
28

>  <i_i_glide_rotatable_bonds>  (53) 
3

>  <r_i_docking_score>  (53) 
-4.15967

>  <r_i_glide_ligand_efficiency>  (53) 
-0.198079

>  <r_i_glide_ligand_efficiency_sa>  (53) 
-0.546486

>  <r_i_glide_ligand_efficiency_ln>  (53) 
-1.02847

>  <r_i_glide_gscore>  (53) 
-4.15967

>  <r_i_glide_lipo>  (53) 
-0.758627

>  <r_i_glide_hbond>  (53) 
-0.456

>  <r_i_glide_metal>  (53) 
-0

>  <r_i_glide_rewards>  (53) 
-1.41537

>  <r_i_glide_evdw>  (53) 
-9.18173

>  <r_i_glide_ecoul>  (53) 
-7.13724

>  <r_i_glide_erotb>  (53) 
0

>  <r_i_glide_esite>  (53) 
0

>  <r_i_glide_emodel>  (53) 
-21.45

>  <r_i_glide_energy>  (53) 
-16.319

>  <r_i_glide_einternal>  (53) 
1.18801

>  <r_i_glide_intrahb_reward>  (53) 
-0

>  <i_i_glide_confnum>  (53) 
2

>  <i_i_glide_posenum>  (53) 
29

>  <r_i_glide_eff_state_penalty>  (53) 
0

>  <ligand_id>  (53) 
14

>  <original_smiles>  (53) 
CC1CC(O)C23C(O)CCC(C)(C)C2C(O)C=C2C1C23C

>  <smiles>  (53) 
[H]OC1([H])C([H])=C2C3([H])C([H])(C([H])([H])[H])C([H])([H])C([H])(O[H])C4(C([H])(O[H])C([H])([H])C([H])([H])C(C([H])([H])[H])(C([H])([H])[H])C14[H])C23C([H])([H])[H]

$$$$
14:1:0
     RDKit          3D

 49 52  0  0  1  0  0  0  0  0999 V2000
    4.1842   -1.5492   -3.5490 C   0  0  0  0  0  0  0  0  0  0  0  0
    4.7580   -1.7739   -2.1317 C   0  0  2  0  0  0  0  0  0  0  0  0
    5.2000   -3.3284   -1.9893 C   0  0  0  0  0  0  0  0  0  0  0  0
    5.1396   -4.0299   -0.5563 C   0  0  1  0  0  0  0  0  0  0  0  0
    6.4386   -4.1587    0.0042 O   0  0  0  0  0  0  0  0  0  0  0  0
    4.1375   -3.2582    0.3642 C   0  0  1  0  0  0  0  0  0  0  0  0
    2.6991   -3.8004   -0.0633 C   0  0  1  0  0  0  0  0  0  0  0  0
    2.3572   -3.8651   -1.4364 O   0  0  0  0  0  0  0  0  0  0  0  0
    2.4477   -5.2468    0.4768 C   0  0  0  0  0  0  0  0  0  0  0  0
    2.6537   -5.4468    1.9968 C   0  0  0  0  0  0  0  0  0  0  0  0
    3.8809   -4.7152    2.6277 C   0  0  0  0  0  0  0  0  0  0  0  0
    3.6272   -4.6256    4.1455 C   0  0  0  0  0  0  0  0  0  0  0  0
    5.1738   -5.5241    2.4205 C   0  0  0  0  0  0  0  0  0  0  0  0
    3.9668   -3.2999    1.9725 C   0  0  1  0  0  0  0  0  0  0  0  0
    4.0467   -1.9509    2.8268 C   0  0  1  0  0  0  0  0  0  0  0  0
    5.3484   -1.7354    3.3289 O   0  0  0  0  0  0  0  0  0  0  0  0
    3.5629   -0.7309    2.0185 C   0  0  0  0  0  0  0  0  0  0  0  0
    3.8133   -0.9427    0.6147 C   0  0  0  0  0  0  0  0  0  0  0  0
    3.8244   -1.1483   -1.0165 C   0  0  1  0  0  0  0  0  0  0  0  0
    4.5805   -1.8345   -0.0182 C   0  0  2  0  0  0  0  0  0  0  0  0
    6.0324   -1.3943    0.3113 C   0  0  0  0  0  0  0  0  0  0  0  0
    3.2890   -2.1377   -3.7410 H   0  0  0  0  0  0  0  0  0  0  0  0
    4.9266   -1.8600   -4.2812 H   0  0  0  0  0  0  0  0  0  0  0  0
    3.9651   -0.5015   -3.7561 H   0  0  0  0  0  0  0  0  0  0  0  0
    5.6472   -1.1448   -2.1692 H   0  0  0  0  0  0  0  0  0  0  0  0
    4.5988   -3.9233   -2.6806 H   0  0  0  0  0  0  0  0  0  0  0  0
    6.2169   -3.4185   -2.3778 H   0  0  0  0  0  0  0  0  0  0  0  0
    4.8305   -5.0603   -0.7162 H   0  0  0  0  0  0  0  0  0  0  0  0
    6.3654   -4.6847    0.7863 H   0  0  0  0  0  0  0  0  0  0  0  0
    1.9286   -3.1399    0.3175 H   0  0  0  0  0  0  0  0  0  0  0  0
    2.7599   -4.5962   -1.8488 H   0  0  0  0  0  0  0  0  0  0  0  0
    1.4243   -5.5450    0.2468 H   0  0  0  0  0  0  0  0  0  0  0  0
    3.0531   -5.9806   -0.0585 H   0  0  0  0  0  0  0  0  0  0  0  0
    1.7416   -5.1242    2.5051 H   0  0  0  0  0  0  0  0  0  0  0  0
    2.7256   -6.5168    2.2058 H   0  0  0  0  0  0  0  0  0  0  0  0
    4.4422   -4.1173    4.6621 H   0  0  0  0  0  0  0  0  0  0  0  0
    3.5230   -5.6162    4.5911 H   0  0  0  0  0  0  0  0  0  0  0  0
    2.7054   -4.0868    4.3677 H   0  0  0  0  0  0  0  0  0  0  0  0
    6.0541   -4.9073    2.6064 H   0  0  0  0  0  0  0  0  0  0  0  0
    5.2331   -5.9429    1.4192 H   0  0  0  0  0  0  0  0  0  0  0  0
    5.2273   -6.3743    3.1010 H   0  0  0  0  0  0  0  0  0  0  0  0
    2.8977   -3.1298    2.0707 H   0  0  0  0  0  0  0  0  0  0  0  0
    3.4261   -1.9989    3.7271 H   0  0  0  0  0  0  0  0  0  0  0  0
    5.9430   -1.7381    2.5929 H   0  0  0  0  0  0  0  0  0  0  0  0
    3.0920    0.1546    2.4258 H   0  0  0  0  0  0  0  0  0  0  0  0
    2.7803   -1.3701   -1.1923 H   0  0  0  0  0  0  0  0  0  0  0  0
    6.7503   -1.6522   -0.4728 H   0  0  0  0  0  0  0  0  0  0  0  0
    6.3992   -1.8906    1.1939 H   0  0  0  0  0  0  0  0  0  0  0  0
    6.0925   -0.3102    0.4505 H   0  0  0  0  0  0  0  0  0  0  0  0
  1  2  1  0
  1 22  1  0
  1 23  1  0
  1 24  1  0
  2 19  1  0
  2  3  1  0
  2 25  1  6
  3  4  1  0
  3 26  1  0
  3 27  1  0
  4  5  1  0
  4  6  1  0
  4 28  1  6
  5 29  1  0
  6 14  1  0
  6 20  1  6
  6  7  1  0
  7  8  1  0
  7  9  1  0
  7 30  1  1
  8 31  1  0
  9 10  1  0
  9 32  1  0
  9 33  1  0
 10 11  1  0
 10 34  1  0
 10 35  1  0
 11 12  1  0
 11 13  1  0
 11 14  1  0
 12 36  1  0
 12 37  1  0
 12 38  1  0
 13 39  1  0
 13 40  1  0
 13 41  1  0
 14 15  1  0
 14 42  1  6
 15 16  1  0
 15 17  1  0
 15 43  1  1
 16 44  1  0
 17 18  2  0
 17 45  1  0
 18 20  1  0
 18 19  1  0
 19 20  1  0
 19 46  1  6
 20 21  1  6
 21 47  1  0
 21 48  1  0
 21 49  1  0
M  END
>  <i_m_ct_stereo_status>  (54) 
1

>  <s_m_source_file>  (54) 
/var/tmp/pbs.5076255.sched01/tmpi0kgw23q/0rwfjwt46.sdf

>  <i_m_source_file_index>  (54) 
29

>  <i_lp_mmshare_version>  (54) 
48012

>  <i_f3d_flags>  (54) 
0

>  <s_epik_input>  (54) 
W09IXVtDQEBIXTFbQ0gyXVtDQEBIXShbQ0gzXSlbQ0hdKEMyM1tDSDNdKUMzPVtDSF1bQ0BIXShbT0hdKVtDQEBIXShbQ0BdMTI0KUMoW0NIM10pKFtDSDNdKVtDSDJdW0NIMl1bQ0BASF00W09IXQ==

>  <s_epik_cmdline>  (54) 
J2VwaWtfcHl0aG9uJywgJy1waHQnLCAnMi4wJywgJy1waCcsICc3LjAnLCAnLXRuJywgJzgnLCAnLW1hJywgJzIwMCcsICctaW1hZScsICc8aW5maWxlLm1hZT4nLCAnLW9tYWUnLCAnPG91dGZpbGUubWFlPic=

>  <r_lp_tautomer_probability>  (54) 
1

>  <r_epik_Ionization_Penalty>  (54) 
1.23495e-06

>  <r_epik_Ionization_Penalty_Charging>  (54) 
0

>  <r_epik_Ionization_Penalty_Neutral>  (54) 
1.23495e-06

>  <r_epik_State_Penalty>  (54) 
-0

>  <r_epik_Charging_Adjusted_Penalty>  (54) 
0

>  <i_epik_Tot_Q>  (54) 
0

>  <i_epik_Tot_abs_Q>  (54) 
0

>  <s_lp_Force_Field>  (54) 
OPLS3e

>  <r_lp_Energy>  (54) 
132.004

>  <b_lp_Chiralities_Consistent>  (54) 
1

>  <s_lp_Variant>  (54) 
14:0-2

>  <s_i_glide_gridfile>  (54) 
pfpi4k_grid

>  <i_i_glide_lignum>  (54) 
29

>  <i_i_glide_rotatable_bonds>  (54) 
3

>  <r_i_docking_score>  (54) 
-4.01191

>  <r_i_glide_ligand_efficiency>  (54) 
-0.191044

>  <r_i_glide_ligand_efficiency_sa>  (54) 
-0.527075

>  <r_i_glide_ligand_efficiency_ln>  (54) 
-0.991938

>  <r_i_glide_gscore>  (54) 
-4.01191

>  <r_i_glide_lipo>  (54) 
-0.500613

>  <r_i_glide_hbond>  (54) 
-0.32

>  <r_i_glide_metal>  (54) 
-0

>  <r_i_glide_rewards>  (54) 
-1.41537

>  <r_i_glide_evdw>  (54) 
-22.0854

>  <r_i_glide_ecoul>  (54) 
-4.47778

>  <r_i_glide_erotb>  (54) 
0

>  <r_i_glide_esite>  (54) 
0

>  <r_i_glide_emodel>  (54) 
-31.8178

>  <r_i_glide_energy>  (54) 
-26.5632

>  <r_i_glide_einternal>  (54) 
0.606651

>  <r_i_glide_intrahb_reward>  (54) 
-0

>  <i_i_glide_confnum>  (54) 
1

>  <i_i_glide_posenum>  (54) 
8

>  <r_i_glide_eff_state_penalty>  (54) 
0

>  <ligand_id>  (54) 
14

>  <original_smiles>  (54) 
CC1CC(O)C23C(O)CCC(C)(C)C2C(O)C=C2C1C23C

>  <smiles>  (54) 
[H]OC1([H])C([H])=C2C3([H])C([H])(C([H])([H])[H])C([H])([H])C([H])(O[H])C4(C([H])(O[H])C([H])([H])C([H])([H])C(C([H])([H])[H])(C([H])([H])[H])C14[H])C23C([H])([H])[H]

$$$$
14:1:1
     RDKit          3D

 49 52  0  0  1  0  0  0  0  0999 V2000
    3.9037   -1.7894   -3.8399 C   0  0  0  0  0  0  0  0  0  0  0  0
    4.5911   -1.9150   -2.4687 C   0  0  2  0  0  0  0  0  0  0  0  0
    5.0192   -3.4657   -2.2430 C   0  0  0  0  0  0  0  0  0  0  0  0
    5.0792   -4.0444   -0.7558 C   0  0  1  0  0  0  0  0  0  0  0  0
    6.4258   -4.1735   -0.3253 O   0  0  0  0  0  0  0  0  0  0  0  0
    4.2018   -3.1681    0.1950 C   0  0  1  0  0  0  0  0  0  0  0  0
    2.7118   -3.6990   -0.0494 C   0  0  1  0  0  0  0  0  0  0  0  0
    2.2323   -3.8370   -1.3758 O   0  0  0  0  0  0  0  0  0  0  0  0
    2.4904   -5.0840    0.6326 C   0  0  0  0  0  0  0  0  0  0  0  0
    2.8405   -5.1582    2.1398 C   0  0  0  0  0  0  0  0  0  0  0  0
    4.1392   -4.4181    2.5869 C   0  0  0  0  0  0  0  0  0  0  0  0
    4.0416   -4.1930    4.1085 C   0  0  0  0  0  0  0  0  0  0  0  0
    5.3826   -5.2843    2.3238 C   0  0  0  0  0  0  0  0  0  0  0  0
    4.1925   -3.0706    1.8084 C   0  0  1  0  0  0  0  0  0  0  0  0
    4.3750   -1.6505    2.5314 C   0  0  1  0  0  0  0  0  0  0  0  0
    5.7211   -1.4249    2.8735 O   0  0  0  0  0  0  0  0  0  0  0  0
    3.8426   -0.4956    1.6640 C   0  0  0  0  0  0  0  0  0  0  0  0
    3.9546   -0.8165    0.2708 C   0  0  0  0  0  0  0  0  0  0  0  0
    3.8064   -1.1709   -1.3241 C   0  0  1  0  0  0  0  0  0  0  0  0
    4.6256   -1.7905   -0.3455 C   0  0  2  0  0  0  0  0  0  0  0  0
    6.1255   -1.3891   -0.2001 C   0  0  0  0  0  0  0  0  0  0  0  0
    2.9709   -2.3582   -3.8978 H   0  0  0  0  0  0  0  0  0  0  0  0
    4.5606   -2.1856   -4.6063 H   0  0  0  0  0  0  0  0  0  0  0  0
    3.6851   -0.7516   -4.1165 H   0  0  0  0  0  0  0  0  0  0  0  0
    5.4827   -1.3219   -2.6449 H   0  0  0  0  0  0  0  0  0  0  0  0
    4.3400   -4.0943   -2.8273 H   0  0  0  0  0  0  0  0  0  0  0  0
    5.9929   -3.6176   -2.7190 H   0  0  0  0  0  0  0  0  0  0  0  0
    4.7403   -5.0764   -0.7986 H   0  0  0  0  0  0  0  0  0  0  0  0
    6.4213   -4.6152    0.5107 H   0  0  0  0  0  0  0  0  0  0  0  0
    2.0060   -2.9807    0.3515 H   0  0  0  0  0  0  0  0  0  0  0  0
    2.6589   -4.5898   -1.7929 H   0  0  0  0  0  0  0  0  0  0  0  0
    1.4418   -5.3700    0.5304 H   0  0  0  0  0  0  0  0  0  0  0  0
    3.0253   -5.8734    0.1046 H   0  0  0  0  0  0  0  0  0  0  0  0
    1.9891   -4.7622    2.6974 H   0  0  0  0  0  0  0  0  0  0  0  0
    2.9029   -6.2075    2.4324 H   0  0  0  0  0  0  0  0  0  0  0  0
    4.9210   -3.6789    4.4984 H   0  0  0  0  0  0  0  0  0  0  0  0
    3.9535   -5.1428    4.6414 H   0  0  0  0  0  0  0  0  0  0  0  0
    3.1619   -3.6049    4.3726 H   0  0  0  0  0  0  0  0  0  0  0  0
    6.2935   -4.6855    2.3666 H   0  0  0  0  0  0  0  0  0  0  0  0
    5.3306   -5.7859    1.3581 H   0  0  0  0  0  0  0  0  0  0  0  0
    5.4810   -6.0756    3.0666 H   0  0  0  0  0  0  0  0  0  0  0  0
    3.1425   -2.8542    1.9928 H   0  0  0  0  0  0  0  0  0  0  0  0
    3.8486   -1.6053    3.4912 H   0  0  0  0  0  0  0  0  0  0  0  0
    5.9919   -2.0927    3.4833 H   0  0  0  0  0  0  0  0  0  0  0  0
    3.4584    0.4382    2.0332 H   0  0  0  0  0  0  0  0  0  0  0  0
    2.7370   -1.3586   -1.3719 H   0  0  0  0  0  0  0  0  0  0  0  0
    6.7512   -1.7450   -1.0276 H   0  0  0  0  0  0  0  0  0  0  0  0
    6.5591   -1.8119    0.6947 H   0  0  0  0  0  0  0  0  0  0  0  0
    6.2126   -0.3024   -0.1637 H   0  0  0  0  0  0  0  0  0  0  0  0
  1  2  1  0
  1 22  1  0
  1 23  1  0
  1 24  1  0
  2 19  1  0
  2  3  1  0
  2 25  1  6
  3  4  1  0
  3 26  1  0
  3 27  1  0
  4  5  1  0
  4  6  1  0
  4 28  1  6
  5 29  1  0
  6 14  1  0
  6 20  1  6
  6  7  1  0
  7  8  1  0
  7  9  1  0
  7 30  1  1
  8 31  1  0
  9 10  1  0
  9 32  1  0
  9 33  1  0
 10 11  1  0
 10 34  1  0
 10 35  1  0
 11 12  1  0
 11 13  1  0
 11 14  1  0
 12 36  1  0
 12 37  1  0
 12 38  1  0
 13 39  1  0
 13 40  1  0
 13 41  1  0
 14 15  1  0
 14 42  1  6
 15 16  1  0
 15 17  1  0
 15 43  1  1
 16 44  1  0
 17 18  2  0
 17 45  1  0
 18 20  1  0
 18 19  1  0
 19 20  1  0
 19 46  1  1
 20 21  1  6
 21 47  1  0
 21 48  1  0
 21 49  1  0
M  END
>  <i_m_ct_stereo_status>  (55) 
1

>  <s_m_source_file>  (55) 
/var/tmp/pbs.5076255.sched01/tmpi0kgw23q/0rwfjwt46.sdf

>  <i_m_source_file_index>  (55) 
29

>  <i_lp_mmshare_version>  (55) 
48012

>  <i_f3d_flags>  (55) 
0

>  <s_epik_input>  (55) 
W09IXVtDQEBIXTFbQ0gyXVtDQEBIXShbQ0gzXSlbQ0hdKEMyM1tDSDNdKUMzPVtDSF1bQ0BIXShbT0hdKVtDQEBIXShbQ0BdMTI0KUMoW0NIM10pKFtDSDNdKVtDSDJdW0NIMl1bQ0BASF00W09IXQ==

>  <s_epik_cmdline>  (55) 
J2VwaWtfcHl0aG9uJywgJy1waHQnLCAnMi4wJywgJy1waCcsICc3LjAnLCAnLXRuJywgJzgnLCAnLW1hJywgJzIwMCcsICctaW1hZScsICc8aW5maWxlLm1hZT4nLCAnLW9tYWUnLCAnPG91dGZpbGUubWFlPic=

>  <r_lp_tautomer_probability>  (55) 
1

>  <r_epik_Ionization_Penalty>  (55) 
1.23495e-06

>  <r_epik_Ionization_Penalty_Charging>  (55) 
0

>  <r_epik_Ionization_Penalty_Neutral>  (55) 
1.23495e-06

>  <r_epik_State_Penalty>  (55) 
-0

>  <r_epik_Charging_Adjusted_Penalty>  (55) 
0

>  <i_epik_Tot_Q>  (55) 
0

>  <i_epik_Tot_abs_Q>  (55) 
0

>  <s_lp_Force_Field>  (55) 
OPLS3e

>  <r_lp_Energy>  (55) 
132.004

>  <b_lp_Chiralities_Consistent>  (55) 
1

>  <s_lp_Variant>  (55) 
14:0-2

>  <s_i_glide_gridfile>  (55) 
pfpi4k_grid

>  <i_i_glide_lignum>  (55) 
29

>  <i_i_glide_rotatable_bonds>  (55) 
3

>  <r_i_docking_score>  (55) 
-3.77985

>  <r_i_glide_ligand_efficiency>  (55) 
-0.179993

>  <r_i_glide_ligand_efficiency_sa>  (55) 
-0.496587

>  <r_i_glide_ligand_efficiency_ln>  (55) 
-0.934561

>  <r_i_glide_gscore>  (55) 
-3.77985

>  <r_i_glide_lipo>  (55) 
-0.360195

>  <r_i_glide_hbond>  (55) 
-0.32

>  <r_i_glide_metal>  (55) 
-0

>  <r_i_glide_rewards>  (55) 
-1.41537

>  <r_i_glide_evdw>  (55) 
-22.4595

>  <r_i_glide_ecoul>  (55) 
-3.74211

>  <r_i_glide_erotb>  (55) 
0

>  <r_i_glide_esite>  (55) 
0

>  <r_i_glide_emodel>  (55) 
-31.0907

>  <r_i_glide_energy>  (55) 
-26.2017

>  <r_i_glide_einternal>  (55) 
0.895499

>  <r_i_glide_intrahb_reward>  (55) 
-0

>  <i_i_glide_confnum>  (55) 
2

>  <i_i_glide_posenum>  (55) 
13

>  <r_i_glide_eff_state_penalty>  (55) 
0

>  <ligand_id>  (55) 
14

>  <original_smiles>  (55) 
CC1CC(O)C23C(O)CCC(C)(C)C2C(O)C=C2C1C23C

>  <smiles>  (55) 
[H]OC1([H])C([H])=C2C3([H])C([H])(C([H])([H])[H])C([H])([H])C([H])(O[H])C4(C([H])(O[H])C([H])([H])C([H])([H])C(C([H])([H])[H])(C([H])([H])[H])C14[H])C23C([H])([H])[H]

$$$$
14:1:2
     RDKit          3D

 49 52  0  0  1  0  0  0  0  0999 V2000
    3.9085   -1.7940   -3.8308 C   0  0  0  0  0  0  0  0  0  0  0  0
    4.5952   -1.9310   -2.4629 C   0  0  2  0  0  0  0  0  0  0  0  0
    5.0133   -3.4912   -2.2472 C   0  0  0  0  0  0  0  0  0  0  0  0
    5.0744   -4.0767   -0.7574 C   0  0  1  0  0  0  0  0  0  0  0  0
    6.4218   -4.2170   -0.3249 O   0  0  0  0  0  0  0  0  0  0  0  0
    4.2000   -3.1941    0.1929 C   0  0  1  0  0  0  0  0  0  0  0  0
    2.7048   -3.7112   -0.0544 C   0  0  1  0  0  0  0  0  0  0  0  0
    2.2231   -3.8240   -1.3833 O   0  0  0  0  0  0  0  0  0  0  0  0
    2.4700   -5.0970    0.6185 C   0  0  0  0  0  0  0  0  0  0  0  0
    2.8126   -5.1803    2.1268 C   0  0  0  0  0  0  0  0  0  0  0  0
    4.1181   -4.4528    2.5790 C   0  0  0  0  0  0  0  0  0  0  0  0
    4.0210   -4.2370    4.1011 C   0  0  0  0  0  0  0  0  0  0  0  0
    5.3530   -5.3296    2.3141 C   0  0  0  0  0  0  0  0  0  0  0  0
    4.1856   -3.1047    1.8064 C   0  0  1  0  0  0  0  0  0  0  0  0
    4.3706   -1.6891    2.5364 C   0  0  1  0  0  0  0  0  0  0  0  0
    5.7192   -1.4725    2.8769 O   0  0  0  0  0  0  0  0  0  0  0  0
    3.8506   -0.5250    1.6712 C   0  0  0  0  0  0  0  0  0  0  0  0
    3.9569   -0.8453    0.2832 C   0  0  0  0  0  0  0  0  0  0  0  0
    3.8140   -1.1875   -1.3235 C   0  0  1  0  0  0  0  0  0  0  0  0
    4.6281   -1.8212   -0.3450 C   0  0  2  0  0  0  0  0  0  0  0  0
    6.1313   -1.4310   -0.1969 C   0  0  0  0  0  0  0  0  0  0  0  0
    2.9696   -2.3570   -3.8891 H   0  0  0  0  0  0  0  0  0  0  0  0
    4.5586   -2.1920   -4.6030 H   0  0  0  0  0  0  0  0  0  0  0  0
    3.6949   -0.7540   -4.1047 H   0  0  0  0  0  0  0  0  0  0  0  0
    5.4942   -1.3461   -2.6411 H   0  0  0  0  0  0  0  0  0  0  0  0
    4.3252   -4.1062   -2.8341 H   0  0  0  0  0  0  0  0  0  0  0  0
    5.9797   -3.6492   -2.7283 H   0  0  0  0  0  0  0  0  0  0  0  0
    4.7200   -5.1027   -0.8074 H   0  0  0  0  0  0  0  0  0  0  0  0
    6.7937   -3.3527   -0.2271 H   0  0  0  0  0  0  0  0  0  0  0  0
    2.0022   -2.9881    0.3524 H   0  0  0  0  0  0  0  0  0  0  0  0
    2.6356   -4.5777   -1.8051 H   0  0  0  0  0  0  0  0  0  0  0  0
    1.4263   -5.3827    0.5093 H   0  0  0  0  0  0  0  0  0  0  0  0
    3.0050   -5.8906    0.0918 H   0  0  0  0  0  0  0  0  0  0  0  0
    1.9630   -4.7809    2.6858 H   0  0  0  0  0  0  0  0  0  0  0  0
    2.8677   -6.2317    2.4116 H   0  0  0  0  0  0  0  0  0  0  0  0
    4.9031   -3.7299    4.4932 H   0  0  0  0  0  0  0  0  0  0  0  0
    3.9285   -5.1899    4.6274 H   0  0  0  0  0  0  0  0  0  0  0  0
    3.1425   -3.6458    4.3666 H   0  0  0  0  0  0  0  0  0  0  0  0
    6.2683   -4.7362    2.3538 H   0  0  0  0  0  0  0  0  0  0  0  0
    5.3042   -5.8182    1.3423 H   0  0  0  0  0  0  0  0  0  0  0  0
    5.4461   -6.1281    3.0515 H   0  0  0  0  0  0  0  0  0  0  0  0
    3.1373   -2.8798    1.9907 H   0  0  0  0  0  0  0  0  0  0  0  0
    3.8460   -1.6457    3.4953 H   0  0  0  0  0  0  0  0  0  0  0  0
    5.9908   -2.1552    3.4697 H   0  0  0  0  0  0  0  0  0  0  0  0
    3.4789    0.4125    2.0440 H   0  0  0  0  0  0  0  0  0  0  0  0
    2.7461   -1.3624   -1.3674 H   0  0  0  0  0  0  0  0  0  0  0  0
    6.7561   -1.7780   -1.0236 H   0  0  0  0  0  0  0  0  0  0  0  0
    6.5588   -1.8569    0.7060 H   0  0  0  0  0  0  0  0  0  0  0  0
    6.2191   -0.3478   -0.1517 H   0  0  0  0  0  0  0  0  0  0  0  0
  1  2  1  0
  1 22  1  0
  1 23  1  0
  1 24  1  0
  2 19  1  0
  2  3  1  0
  2 25  1  6
  3  4  1  0
  3 26  1  0
  3 27  1  0
  4  5  1  0
  4  6  1  0
  4 28  1  6
  5 29  1  0
  6 14  1  0
  6 20  1  6
  6  7  1  0
  7  8  1  0
  7  9  1  0
  7 30  1  1
  8 31  1  0
  9 10  1  0
  9 32  1  0
  9 33  1  0
 10 11  1  0
 10 34  1  0
 10 35  1  0
 11 12  1  0
 11 13  1  0
 11 14  1  0
 12 36  1  0
 12 37  1  0
 12 38  1  0
 13 39  1  0
 13 40  1  0
 13 41  1  0
 14 15  1  0
 14 42  1  6
 15 16  1  0
 15 17  1  0
 15 43  1  1
 16 44  1  0
 17 18  2  0
 17 45  1  0
 18 20  1  0
 18 19  1  0
 19 20  1  0
 19 46  1  1
 20 21  1  6
 21 47  1  0
 21 48  1  0
 21 49  1  0
M  END
>  <i_m_ct_stereo_status>  (56) 
1

>  <s_m_source_file>  (56) 
/var/tmp/pbs.5076255.sched01/tmpi0kgw23q/0rwfjwt46.sdf

>  <i_m_source_file_index>  (56) 
29

>  <i_lp_mmshare_version>  (56) 
48012

>  <i_f3d_flags>  (56) 
0

>  <s_epik_input>  (56) 
W09IXVtDQEBIXTFbQ0gyXVtDQEBIXShbQ0gzXSlbQ0hdKEMyM1tDSDNdKUMzPVtDSF1bQ0BIXShbT0hdKVtDQEBIXShbQ0BdMTI0KUMoW0NIM10pKFtDSDNdKVtDSDJdW0NIMl1bQ0BASF00W09IXQ==

>  <s_epik_cmdline>  (56) 
J2VwaWtfcHl0aG9uJywgJy1waHQnLCAnMi4wJywgJy1waCcsICc3LjAnLCAnLXRuJywgJzgnLCAnLW1hJywgJzIwMCcsICctaW1hZScsICc8aW5maWxlLm1hZT4nLCAnLW9tYWUnLCAnPG91dGZpbGUubWFlPic=

>  <r_lp_tautomer_probability>  (56) 
1

>  <r_epik_Ionization_Penalty>  (56) 
1.23495e-06

>  <r_epik_Ionization_Penalty_Charging>  (56) 
0

>  <r_epik_Ionization_Penalty_Neutral>  (56) 
1.23495e-06

>  <r_epik_State_Penalty>  (56) 
-0

>  <r_epik_Charging_Adjusted_Penalty>  (56) 
0

>  <i_epik_Tot_Q>  (56) 
0

>  <i_epik_Tot_abs_Q>  (56) 
0

>  <s_lp_Force_Field>  (56) 
OPLS3e

>  <r_lp_Energy>  (56) 
132.004

>  <b_lp_Chiralities_Consistent>  (56) 
1

>  <s_lp_Variant>  (56) 
14:0-2

>  <s_i_glide_gridfile>  (56) 
pfpi4k_grid

>  <i_i_glide_lignum>  (56) 
29

>  <i_i_glide_rotatable_bonds>  (56) 
3

>  <r_i_docking_score>  (56) 
-3.73603

>  <r_i_glide_ligand_efficiency>  (56) 
-0.177906

>  <r_i_glide_ligand_efficiency_sa>  (56) 
-0.49083

>  <r_i_glide_ligand_efficiency_ln>  (56) 
-0.923726

>  <r_i_glide_gscore>  (56) 
-3.73603

>  <r_i_glide_lipo>  (56) 
-0.35616

>  <r_i_glide_hbond>  (56) 
-0.32

>  <r_i_glide_metal>  (56) 
-0

>  <r_i_glide_rewards>  (56) 
-1.41537

>  <r_i_glide_evdw>  (56) 
-22.4446

>  <r_i_glide_ecoul>  (56) 
-3.48184

>  <r_i_glide_erotb>  (56) 
0

>  <r_i_glide_esite>  (56) 
0

>  <r_i_glide_emodel>  (56) 
-30.8577

>  <r_i_glide_energy>  (56) 
-25.9264

>  <r_i_glide_einternal>  (56) 
0.554863

>  <r_i_glide_intrahb_reward>  (56) 
-0

>  <i_i_glide_confnum>  (56) 
1

>  <i_i_glide_posenum>  (56) 
31

>  <r_i_glide_eff_state_penalty>  (56) 
0

>  <ligand_id>  (56) 
14

>  <original_smiles>  (56) 
CC1CC(O)C23C(O)CCC(C)(C)C2C(O)C=C2C1C23C

>  <smiles>  (56) 
[H]OC1([H])C([H])=C2C3([H])C([H])(C([H])([H])[H])C([H])([H])C([H])(O[H])C4(C([H])(O[H])C([H])([H])C([H])([H])C(C([H])([H])[H])(C([H])([H])[H])C14[H])C23C([H])([H])[H]

$$$$
14:2:0
     RDKit          3D

 49 52  0  0  1  0  0  0  0  0999 V2000
    3.6467   -1.9637   -3.4074 C   0  0  0  0  0  0  0  0  0  0  0  0
    4.5743   -2.0798   -2.1782 C   0  0  2  0  0  0  0  0  0  0  0  0
    5.0885   -3.5725   -1.9609 C   0  0  0  0  0  0  0  0  0  0  0  0
    5.3608   -4.1053   -0.5165 C   0  0  1  0  0  0  0  0  0  0  0  0
    6.7315   -3.9665   -0.2141 O   0  0  0  0  0  0  0  0  0  0  0  0
    4.4310   -3.3139    0.4204 C   0  0  1  0  0  0  0  0  0  0  0  0
    2.9729   -3.9183    0.1653 C   0  0  1  0  0  0  0  0  0  0  0  0
    2.3642   -3.8398   -1.1018 O   0  0  0  0  0  0  0  0  0  0  0  0
    2.8944   -5.4183    0.6247 C   0  0  0  0  0  0  0  0  0  0  0  0
    3.4413   -5.7598    2.0470 C   0  0  0  0  0  0  0  0  0  0  0  0
    4.5592   -4.8322    2.6533 C   0  0  0  0  0  0  0  0  0  0  0  0
    4.3529   -4.8162    4.1838 C   0  0  0  0  0  0  0  0  0  0  0  0
    5.9795   -5.3790    2.4142 C   0  0  0  0  0  0  0  0  0  0  0  0
    4.3875   -3.4065    2.0341 C   0  0  0  0  0  0  0  0  0  0  0  0
    4.1347   -2.0558    2.8547 C   0  0  1  0  0  0  0  0  0  0  0  0
    5.3574   -1.5326    3.2883 O   0  0  0  0  0  0  0  0  0  0  0  0
    3.4415   -1.0121    2.0367 C   0  0  0  0  0  0  0  0  0  0  0  0
    3.8002   -1.1822    0.6351 C   0  0  0  0  0  0  0  0  0  0  0  0
    4.0852   -1.1580   -0.9887 C   0  0  2  0  0  0  0  0  0  0  0  0
    4.7968   -1.8709   -0.0096 C   0  0  2  0  0  0  0  0  0  0  0  0
    6.1443   -1.3126    0.4052 C   0  0  0  0  0  0  0  0  0  0  0  0
    2.6661   -2.4353   -3.2822 H   0  0  0  0  0  0  0  0  0  0  0  0
    4.1147   -2.4506   -4.2590 H   0  0  0  0  0  0  0  0  0  0  0  0
    3.4721   -0.9239   -3.6998 H   0  0  0  0  0  0  0  0  0  0  0  0
    5.4666   -1.5601   -2.5110 H   0  0  0  0  0  0  0  0  0  0  0  0
    4.4046   -4.2512   -2.4652 H   0  0  0  0  0  0  0  0  0  0  0  0
    5.9944   -3.6783   -2.5364 H   0  0  0  0  0  0  0  0  0  0  0  0
    5.1715   -5.1757   -0.5133 H   0  0  0  0  0  0  0  0  0  0  0  0
    6.8864   -4.4021    0.6195 H   0  0  0  0  0  0  0  0  0  0  0  0
    2.2098   -3.3509    0.7084 H   0  0  0  0  0  0  0  0  0  0  0  0
    2.7339   -4.5005   -1.6865 H   0  0  0  0  0  0  0  0  0  0  0  0
    1.8539   -5.7359    0.6195 H   0  0  0  0  0  0  0  0  0  0  0  0
    3.3467   -6.0858   -0.1197 H   0  0  0  0  0  0  0  0  0  0  0  0
    2.5881   -5.7889    2.7401 H   0  0  0  0  0  0  0  0  0  0  0  0
    3.8079   -6.7808    2.0355 H   0  0  0  0  0  0  0  0  0  0  0  0
    5.0664   -4.1684    4.6940 H   0  0  0  0  0  0  0  0  0  0  0  0
    4.4548   -5.8144    4.6219 H   0  0  0  0  0  0  0  0  0  0  0  0
    3.3562   -4.4739    4.4605 H   0  0  0  0  0  0  0  0  0  0  0  0
    6.7177   -4.5807    2.4949 H   0  0  0  0  0  0  0  0  0  0  0  0
    6.0806   -5.8472    1.4434 H   0  0  0  0  0  0  0  0  0  0  0  0
    6.2610   -6.1431    3.1422 H   0  0  0  0  0  0  0  0  0  0  0  0
    3.3348   -3.4899    2.2804 H   0  0  0  0  0  0  0  0  0  0  0  0
    3.5882   -2.2165    3.7802 H   0  0  0  0  0  0  0  0  0  0  0  0
    5.8870   -1.3561    2.5113 H   0  0  0  0  0  0  0  0  0  0  0  0
    2.5097   -0.4689    2.3608 H   0  0  0  0  0  0  0  0  0  0  0  0
    4.3448   -0.1176   -1.1427 H   0  0  0  0  0  0  0  0  0  0  0  0
    6.8272   -1.3822   -0.4340 H   0  0  0  0  0  0  0  0  0  0  0  0
    6.6288   -1.8951    1.1997 H   0  0  0  0  0  0  0  0  0  0  0  0
    6.1257   -0.2538    0.7108 H   0  0  0  0  0  0  0  0  0  0  0  0
  1  2  1  0
  1 22  1  0
  1 23  1  0
  1 24  1  0
  2 19  1  0
  2  3  1  0
  2 25  1  6
  3  4  1  0
  3 26  1  0
  3 27  1  0
  4  5  1  0
  4  6  1  0
  4 28  1  6
  5 29  1  0
  6 14  1  1
  6 20  1  0
  6  7  1  0
  7  8  1  0
  7  9  1  0
  7 30  1  1
  8 31  1  0
  9 10  1  0
  9 32  1  0
  9 33  1  0
 10 11  1  0
 10 34  1  0
 10 35  1  0
 11 12  1  0
 11 13  1  0
 11 14  1  0
 12 36  1  0
 12 37  1  0
 12 38  1  0
 13 39  1  0
 13 40  1  0
 13 41  1  0
 14 15  1  0
 14 42  1  0
 15 16  1  0
 15 17  1  0
 15 43  1  1
 16 44  1  0
 17 18  2  0
 17 45  1  0
 18 20  1  0
 18 19  1  0
 19 20  1  0
 19 46  1  6
 20 21  1  1
 21 47  1  0
 21 48  1  0
 21 49  1  0
M  END
>  <i_m_ct_stereo_status>  (57) 
1

>  <s_m_source_file>  (57) 
/var/tmp/pbs.5076255.sched01/tmpi0kgw23q/0rwfjwt46.sdf

>  <i_m_source_file_index>  (57) 
30

>  <i_lp_mmshare_version>  (57) 
48012

>  <i_f3d_flags>  (57) 
0

>  <s_epik_input>  (57) 
W09IXVtDQEBIXTFbQ0gyXVtDQEBIXShbQ0gzXSlbQ0hdKEMyM1tDSDNdKUMzPVtDSF1bQ0BIXShbT0hdKVtDQEBIXShbQ0BdMTI0KUMoW0NIM10pKFtDSDNdKVtDSDJdW0NIMl1bQ0BASF00W09IXQ==

>  <s_epik_cmdline>  (57) 
J2VwaWtfcHl0aG9uJywgJy1waHQnLCAnMi4wJywgJy1waCcsICc3LjAnLCAnLXRuJywgJzgnLCAnLW1hJywgJzIwMCcsICctaW1hZScsICc8aW5maWxlLm1hZT4nLCAnLW9tYWUnLCAnPG91dGZpbGUubWFlPic=

>  <r_lp_tautomer_probability>  (57) 
1

>  <r_epik_Ionization_Penalty>  (57) 
1.23495e-06

>  <r_epik_Ionization_Penalty_Charging>  (57) 
0

>  <r_epik_Ionization_Penalty_Neutral>  (57) 
1.23495e-06

>  <r_epik_State_Penalty>  (57) 
-0

>  <r_epik_Charging_Adjusted_Penalty>  (57) 
0

>  <i_epik_Tot_Q>  (57) 
0

>  <i_epik_Tot_abs_Q>  (57) 
0

>  <s_lp_Force_Field>  (57) 
OPLS3e

>  <r_lp_Energy>  (57) 
129.715

>  <b_lp_Chiralities_Consistent>  (57) 
1

>  <s_lp_Variant>  (57) 
14:0-3

>  <s_i_glide_gridfile>  (57) 
pfpi4k_grid

>  <i_i_glide_lignum>  (57) 
30

>  <i_i_glide_rotatable_bonds>  (57) 
3

>  <r_i_docking_score>  (57) 
-3.98956

>  <r_i_glide_ligand_efficiency>  (57) 
-0.189979

>  <r_i_glide_ligand_efficiency_sa>  (57) 
-0.524138

>  <r_i_glide_ligand_efficiency_ln>  (57) 
-0.986411

>  <r_i_glide_gscore>  (57) 
-3.98956

>  <r_i_glide_lipo>  (57) 
-0.481583

>  <r_i_glide_hbond>  (57) 
-0.32

>  <r_i_glide_metal>  (57) 
-0

>  <r_i_glide_rewards>  (57) 
-1.41537

>  <r_i_glide_evdw>  (57) 
-24.5979

>  <r_i_glide_ecoul>  (57) 
-3.61814

>  <r_i_glide_erotb>  (57) 
0

>  <r_i_glide_esite>  (57) 
0

>  <r_i_glide_emodel>  (57) 
-33.314

>  <r_i_glide_energy>  (57) 
-28.216

>  <r_i_glide_einternal>  (57) 
0.546033

>  <r_i_glide_intrahb_reward>  (57) 
-0

>  <i_i_glide_confnum>  (57) 
1

>  <i_i_glide_posenum>  (57) 
7

>  <r_i_glide_eff_state_penalty>  (57) 
0

>  <ligand_id>  (57) 
14

>  <original_smiles>  (57) 
CC1CC(O)C23C(O)CCC(C)(C)C2C(O)C=C2C1C23C

>  <smiles>  (57) 
[H]OC1([H])C([H])=C2C3([H])C([H])(C([H])([H])[H])C([H])([H])C([H])(O[H])C4(C([H])(O[H])C([H])([H])C([H])([H])C(C([H])([H])[H])(C([H])([H])[H])C14[H])C23C([H])([H])[H]

$$$$
14:2:1
     RDKit          3D

 49 52  0  0  1  0  0  0  0  0999 V2000
    3.9096   -2.0692   -3.3681 C   0  0  0  0  0  0  0  0  0  0  0  0
    4.7808   -2.1918   -2.0904 C   0  0  2  0  0  0  0  0  0  0  0  0
    5.2161   -3.6955   -1.8238 C   0  0  0  0  0  0  0  0  0  0  0  0
    5.4038   -4.2157   -0.3531 C   0  0  1  0  0  0  0  0  0  0  0  0
    6.7637   -4.1301    0.0149 O   0  0  0  0  0  0  0  0  0  0  0  0
    4.4665   -3.3625    0.5200 C   0  0  1  0  0  0  0  0  0  0  0  0
    2.9977   -3.9094    0.2079 C   0  0  1  0  0  0  0  0  0  0  0  0
    2.4479   -3.8291   -1.0902 O   0  0  0  0  0  0  0  0  0  0  0  0
    2.8389   -5.3888    0.6997 C   0  0  0  0  0  0  0  0  0  0  0  0
    3.2913   -5.7077    2.1596 C   0  0  0  0  0  0  0  0  0  0  0  0
    4.4234   -4.8152    2.7914 C   0  0  0  0  0  0  0  0  0  0  0  0
    4.1486   -4.7552    4.3052 C   0  0  0  0  0  0  0  0  0  0  0  0
    5.8292   -5.4292    2.6368 C   0  0  0  0  0  0  0  0  0  0  0  0
    4.3487   -3.3978    2.1323 C   0  0  1  0  0  0  0  0  0  0  0  0
    4.1035   -2.0243    2.9136 C   0  0  1  0  0  0  0  0  0  0  0  0
    5.3305   -1.5544    3.3857 O   0  0  0  0  0  0  0  0  0  0  0  0
    3.4970   -0.9573    2.0350 C   0  0  0  0  0  0  0  0  0  0  0  0
    3.8965   -1.1858    0.6545 C   0  0  0  0  0  0  0  0  0  0  0  0
    4.2513   -1.2276   -0.9536 C   0  0  2  0  0  0  0  0  0  0  0  0
    4.8986   -1.9491    0.0714 C   0  0  2  0  0  0  0  0  0  0  0  0
    6.2464   -1.4226    0.5200 C   0  0  0  0  0  0  0  0  0  0  0  0
    2.9069   -2.5025   -3.2764 H   0  0  0  0  0  0  0  0  0  0  0  0
    4.3965   -2.5985   -4.1839 H   0  0  0  0  0  0  0  0  0  0  0  0
    3.7902   -1.0343   -3.6938 H   0  0  0  0  0  0  0  0  0  0  0  0
    5.7188   -1.7171   -2.3893 H   0  0  0  0  0  0  0  0  0  0  0  0
    4.5415   -4.3640   -2.3552 H   0  0  0  0  0  0  0  0  0  0  0  0
    6.1518   -3.8527   -2.3368 H   0  0  0  0  0  0  0  0  0  0  0  0
    5.1641   -5.2755   -0.3340 H   0  0  0  0  0  0  0  0  0  0  0  0
    6.8596   -4.5398    0.8729 H   0  0  0  0  0  0  0  0  0  0  0  0
    2.2367   -3.2940    0.7029 H   0  0  0  0  0  0  0  0  0  0  0  0
    2.8328   -4.5155   -1.6418 H   0  0  0  0  0  0  0  0  0  0  0  0
    1.7920   -5.6678    0.6459 H   0  0  0  0  0  0  0  0  0  0  0  0
    3.3013   -6.0954   -0.0022 H   0  0  0  0  0  0  0  0  0  0  0  0
    2.4067   -5.6979    2.8160 H   0  0  0  0  0  0  0  0  0  0  0  0
    3.6265   -6.7366    2.1747 H   0  0  0  0  0  0  0  0  0  0  0  0
    4.8636   -4.1239    4.8322 H   0  0  0  0  0  0  0  0  0  0  0  0
    4.1901   -5.7454    4.7677 H   0  0  0  0  0  0  0  0  0  0  0  0
    3.1545   -4.3692    4.5255 H   0  0  0  0  0  0  0  0  0  0  0  0
    6.6005   -4.6642    2.7395 H   0  0  0  0  0  0  0  0  0  0  0  0
    5.9576   -5.9245    1.6830 H   0  0  0  0  0  0  0  0  0  0  0  0
    6.0398   -6.1857    3.3949 H   0  0  0  0  0  0  0  0  0  0  0  0
    3.2848   -3.4340    2.3213 H   0  0  0  0  0  0  0  0  0  0  0  0
    3.4896   -2.1435    3.8069 H   0  0  0  0  0  0  0  0  0  0  0  0
    5.1840   -0.7134    3.8132 H   0  0  0  0  0  0  0  0  0  0  0  0
    2.5697   -0.3932    2.2833 H   0  0  0  0  0  0  0  0  0  0  0  0
    4.5406   -0.2047   -1.0986 H   0  0  0  0  0  0  0  0  0  0  0  0
    6.9794   -1.5318   -0.2762 H   0  0  0  0  0  0  0  0  0  0  0  0
    6.6390   -1.9954    1.3689 H   0  0  0  0  0  0  0  0  0  0  0  0
    6.2358   -0.3593    0.8124 H   0  0  0  0  0  0  0  0  0  0  0  0
  1  2  1  0
  1 22  1  0
  1 23  1  0
  1 24  1  0
  2 19  1  0
  2  3  1  0
  2 25  1  6
  3  4  1  0
  3 26  1  0
  3 27  1  0
  4  5  1  0
  4  6  1  0
  4 28  1  6
  5 29  1  0
  6 14  1  0
  6 20  1  6
  6  7  1  0
  7  8  1  0
  7  9  1  0
  7 30  1  1
  8 31  1  0
  9 10  1  0
  9 32  1  0
  9 33  1  0
 10 11  1  0
 10 34  1  0
 10 35  1  0
 11 12  1  0
 11 13  1  0
 11 14  1  0
 12 36  1  0
 12 37  1  0
 12 38  1  0
 13 39  1  0
 13 40  1  0
 13 41  1  0
 14 15  1  0
 14 42  1  1
 15 16  1  0
 15 17  1  0
 15 43  1  1
 16 44  1  0
 17 18  2  0
 17 45  1  0
 18 20  1  0
 18 19  1  0
 19 20  1  0
 19 46  1  6
 20 21  1  1
 21 47  1  0
 21 48  1  0
 21 49  1  0
M  END
>  <i_m_ct_stereo_status>  (58) 
1

>  <s_m_source_file>  (58) 
/var/tmp/pbs.5076255.sched01/tmpi0kgw23q/0rwfjwt46.sdf

>  <i_m_source_file_index>  (58) 
30

>  <i_lp_mmshare_version>  (58) 
48012

>  <i_f3d_flags>  (58) 
0

>  <s_epik_input>  (58) 
W09IXVtDQEBIXTFbQ0gyXVtDQEBIXShbQ0gzXSlbQ0hdKEMyM1tDSDNdKUMzPVtDSF1bQ0BIXShbT0hdKVtDQEBIXShbQ0BdMTI0KUMoW0NIM10pKFtDSDNdKVtDSDJdW0NIMl1bQ0BASF00W09IXQ==

>  <s_epik_cmdline>  (58) 
J2VwaWtfcHl0aG9uJywgJy1waHQnLCAnMi4wJywgJy1waCcsICc3LjAnLCAnLXRuJywgJzgnLCAnLW1hJywgJzIwMCcsICctaW1hZScsICc8aW5maWxlLm1hZT4nLCAnLW9tYWUnLCAnPG91dGZpbGUubWFlPic=

>  <r_lp_tautomer_probability>  (58) 
1

>  <r_epik_Ionization_Penalty>  (58) 
1.23495e-06

>  <r_epik_Ionization_Penalty_Charging>  (58) 
0

>  <r_epik_Ionization_Penalty_Neutral>  (58) 
1.23495e-06

>  <r_epik_State_Penalty>  (58) 
-0

>  <r_epik_Charging_Adjusted_Penalty>  (58) 
0

>  <i_epik_Tot_Q>  (58) 
0

>  <i_epik_Tot_abs_Q>  (58) 
0

>  <s_lp_Force_Field>  (58) 
OPLS3e

>  <r_lp_Energy>  (58) 
129.715

>  <b_lp_Chiralities_Consistent>  (58) 
1

>  <s_lp_Variant>  (58) 
14:0-3

>  <s_i_glide_gridfile>  (58) 
pfpi4k_grid

>  <i_i_glide_lignum>  (58) 
30

>  <i_i_glide_rotatable_bonds>  (58) 
3

>  <r_i_docking_score>  (58) 
-3.89555

>  <r_i_glide_ligand_efficiency>  (58) 
-0.185502

>  <r_i_glide_ligand_efficiency_sa>  (58) 
-0.511787

>  <r_i_glide_ligand_efficiency_ln>  (58) 
-0.963167

>  <r_i_glide_gscore>  (58) 
-3.89555

>  <r_i_glide_lipo>  (58) 
-0.425043

>  <r_i_glide_hbond>  (58) 
-0.32

>  <r_i_glide_metal>  (58) 
-0

>  <r_i_glide_rewards>  (58) 
-1.41537

>  <r_i_glide_evdw>  (58) 
-24.5734

>  <r_i_glide_ecoul>  (58) 
-3.37648

>  <r_i_glide_erotb>  (58) 
0

>  <r_i_glide_esite>  (58) 
0

>  <r_i_glide_emodel>  (58) 
-32.4895

>  <r_i_glide_energy>  (58) 
-27.9499

>  <r_i_glide_einternal>  (58) 
0.870341

>  <r_i_glide_intrahb_reward>  (58) 
-0

>  <i_i_glide_confnum>  (58) 
1

>  <i_i_glide_posenum>  (58) 
17

>  <r_i_glide_eff_state_penalty>  (58) 
0

>  <ligand_id>  (58) 
14

>  <original_smiles>  (58) 
CC1CC(O)C23C(O)CCC(C)(C)C2C(O)C=C2C1C23C

>  <smiles>  (58) 
[H]OC1([H])C([H])=C2C3([H])C([H])(C([H])([H])[H])C([H])([H])C([H])(O[H])C4(C([H])(O[H])C([H])([H])C([H])([H])C(C([H])([H])[H])(C([H])([H])[H])C14[H])C23C([H])([H])[H]

$$$$
14:2:2
     RDKit          3D

 49 52  0  0  1  0  0  0  0  0999 V2000
    4.0031   -2.1006   -3.3988 C   0  0  0  0  0  0  0  0  0  0  0  0
    4.8250   -2.1951   -2.0869 C   0  0  2  0  0  0  0  0  0  0  0  0
    5.2699   -3.7039   -1.8046 C   0  0  0  0  0  0  0  0  0  0  0  0
    5.4182   -4.2001   -0.3262 C   0  0  1  0  0  0  0  0  0  0  0  0
    6.7781   -4.1415    0.0583 O   0  0  0  0  0  0  0  0  0  0  0  0
    4.4597   -3.3409    0.5398 C   0  0  1  0  0  0  0  0  0  0  0  0
    2.9991   -3.8895    0.1841 C   0  0  1  0  0  0  0  0  0  0  0  0
    2.4817   -3.8050   -1.1169 O   0  0  0  0  0  0  0  0  0  0  0  0
    2.8200   -5.3586    0.6944 C   0  0  0  0  0  0  0  0  0  0  0  0
    3.2558   -5.6678    2.1654 C   0  0  0  0  0  0  0  0  0  0  0  0
    4.3639   -4.7626    2.8205 C   0  0  0  0  0  0  0  0  0  0  0  0
    4.0497   -4.6756    4.3292 C   0  0  0  0  0  0  0  0  0  0  0  0
    5.7722   -5.3772    2.6972 C   0  0  0  0  0  0  0  0  0  0  0  0
    4.3009   -3.3659    2.1483 C   0  0  1  0  0  0  0  0  0  0  0  0
    4.0397   -1.9744    2.8998 C   0  0  1  0  0  0  0  0  0  0  0  0
    5.2554   -1.4558    3.3849 O   0  0  0  0  0  0  0  0  0  0  0  0
    3.4233   -0.9519    1.9520 C   0  0  0  0  0  0  0  0  0  0  0  0
    3.9397   -1.1289    0.6247 C   0  0  0  0  0  0  0  0  0  0  0  0
    4.2038   -1.2667   -0.9739 C   0  0  2  0  0  0  0  0  0  0  0  0
    4.9044   -1.9172    0.1016 C   0  0  2  0  0  0  0  0  0  0  0  0
    6.2830   -1.4062    0.5227 C   0  0  0  0  0  0  0  0  0  0  0  0
    2.9989   -2.5259   -3.3213 H   0  0  0  0  0  0  0  0  0  0  0  0
    4.5065   -2.6454   -4.1943 H   0  0  0  0  0  0  0  0  0  0  0  0
    3.8857   -1.0702   -3.7433 H   0  0  0  0  0  0  0  0  0  0  0  0
    5.7705   -1.7073   -2.3410 H   0  0  0  0  0  0  0  0  0  0  0  0
    4.5963   -4.3779   -2.3345 H   0  0  0  0  0  0  0  0  0  0  0  0
    6.2174   -3.8585   -2.3112 H   0  0  0  0  0  0  0  0  0  0  0  0
    5.1794   -5.2628   -0.2970 H   0  0  0  0  0  0  0  0  0  0  0  0
    6.8490   -4.5140    0.9276 H   0  0  0  0  0  0  0  0  0  0  0  0
    2.2344   -3.2610    0.6464 H   0  0  0  0  0  0  0  0  0  0  0  0
    2.8651   -4.5132   -1.6523 H   0  0  0  0  0  0  0  0  0  0  0  0
    1.7727   -5.6341    0.6164 H   0  0  0  0  0  0  0  0  0  0  0  0
    3.3020   -6.0689    0.0174 H   0  0  0  0  0  0  0  0  0  0  0  0
    2.3552   -5.6356    2.7868 H   0  0  0  0  0  0  0  0  0  0  0  0
    3.5779   -6.7016    2.2119 H   0  0  0  0  0  0  0  0  0  0  0  0
    4.7595   -4.0400    4.8576 H   0  0  0  0  0  0  0  0  0  0  0  0
    4.0798   -5.6607    4.7925 H   0  0  0  0  0  0  0  0  0  0  0  0
    3.0516   -4.2787    4.5125 H   0  0  0  0  0  0  0  0  0  0  0  0
    6.5411   -4.6123    2.8059 H   0  0  0  0  0  0  0  0  0  0  0  0
    5.9222   -5.8852    1.7496 H   0  0  0  0  0  0  0  0  0  0  0  0
    5.9624   -6.1191    3.4696 H   0  0  0  0  0  0  0  0  0  0  0  0
    3.2301   -3.3851    2.3049 H   0  0  0  0  0  0  0  0  0  0  0  0
    3.3954   -2.0763    3.7882 H   0  0  0  0  0  0  0  0  0  0  0  0
    5.6205   -2.0712    4.0008 H   0  0  0  0  0  0  0  0  0  0  0  0
    2.5734   -0.3156    2.1709 H   0  0  0  0  0  0  0  0  0  0  0  0
    4.4768   -0.2195   -1.1664 H   0  0  0  0  0  0  0  0  0  0  0  0
    7.0318   -1.5226   -0.2715 H   0  0  0  0  0  0  0  0  0  0  0  0
    6.6440   -1.9608    1.3913 H   0  0  0  0  0  0  0  0  0  0  0  0
    6.2508   -0.3458    0.7996 H   0  0  0  0  0  0  0  0  0  0  0  0
  1  2  1  0
  1 22  1  0
  1 23  1  0
  1 24  1  0
  2 19  1  0
  2  3  1  0
  2 25  1  6
  3  4  1  0
  3 26  1  0
  3 27  1  0
  4  5  1  0
  4  6  1  0
  4 28  1  6
  5 29  1  0
  6 14  1  0
  6 20  1  6
  6  7  1  0
  7  8  1  0
  7  9  1  0
  7 30  1  1
  8 31  1  0
  9 10  1  0
  9 32  1  0
  9 33  1  0
 10 11  1  0
 10 34  1  0
 10 35  1  0
 11 12  1  0
 11 13  1  0
 11 14  1  0
 12 36  1  0
 12 37  1  0
 12 38  1  0
 13 39  1  0
 13 40  1  0
 13 41  1  0
 14 15  1  0
 14 42  1  1
 15 16  1  0
 15 17  1  0
 15 43  1  1
 16 44  1  0
 17 18  2  0
 17 45  1  0
 18 20  1  0
 18 19  1  0
 19 20  1  0
 19 46  1  6
 20 21  1  1
 21 47  1  0
 21 48  1  0
 21 49  1  0
M  END
>  <i_m_ct_stereo_status>  (59) 
1

>  <s_m_source_file>  (59) 
/var/tmp/pbs.5076255.sched01/tmpi0kgw23q/0rwfjwt46.sdf

>  <i_m_source_file_index>  (59) 
30

>  <i_lp_mmshare_version>  (59) 
48012

>  <i_f3d_flags>  (59) 
0

>  <s_epik_input>  (59) 
W09IXVtDQEBIXTFbQ0gyXVtDQEBIXShbQ0gzXSlbQ0hdKEMyM1tDSDNdKUMzPVtDSF1bQ0BIXShbT0hdKVtDQEBIXShbQ0BdMTI0KUMoW0NIM10pKFtDSDNdKVtDSDJdW0NIMl1bQ0BASF00W09IXQ==

>  <s_epik_cmdline>  (59) 
J2VwaWtfcHl0aG9uJywgJy1waHQnLCAnMi4wJywgJy1waCcsICc3LjAnLCAnLXRuJywgJzgnLCAnLW1hJywgJzIwMCcsICctaW1hZScsICc8aW5maWxlLm1hZT4nLCAnLW9tYWUnLCAnPG91dGZpbGUubWFlPic=

>  <r_lp_tautomer_probability>  (59) 
1

>  <r_epik_Ionization_Penalty>  (59) 
1.23495e-06

>  <r_epik_Ionization_Penalty_Charging>  (59) 
0

>  <r_epik_Ionization_Penalty_Neutral>  (59) 
1.23495e-06

>  <r_epik_State_Penalty>  (59) 
-0

>  <r_epik_Charging_Adjusted_Penalty>  (59) 
0

>  <i_epik_Tot_Q>  (59) 
0

>  <i_epik_Tot_abs_Q>  (59) 
0

>  <s_lp_Force_Field>  (59) 
OPLS3e

>  <r_lp_Energy>  (59) 
129.715

>  <b_lp_Chiralities_Consistent>  (59) 
1

>  <s_lp_Variant>  (59) 
14:0-3

>  <s_i_glide_gridfile>  (59) 
pfpi4k_grid

>  <i_i_glide_lignum>  (59) 
30

>  <i_i_glide_rotatable_bonds>  (59) 
3

>  <r_i_docking_score>  (59) 
-3.84461

>  <r_i_glide_ligand_efficiency>  (59) 
-0.183077

>  <r_i_glide_ligand_efficiency_sa>  (59) 
-0.505095

>  <r_i_glide_ligand_efficiency_ln>  (59) 
-0.950572

>  <r_i_glide_gscore>  (59) 
-3.84461

>  <r_i_glide_lipo>  (59) 
-0.42377

>  <r_i_glide_hbond>  (59) 
-0.32

>  <r_i_glide_metal>  (59) 
-0

>  <r_i_glide_rewards>  (59) 
-1.41537

>  <r_i_glide_evdw>  (59) 
-24.8443

>  <r_i_glide_ecoul>  (59) 
-2.95506

>  <r_i_glide_erotb>  (59) 
0

>  <r_i_glide_esite>  (59) 
0

>  <r_i_glide_emodel>  (59) 
-31.8321

>  <r_i_glide_energy>  (59) 
-27.7994

>  <r_i_glide_einternal>  (59) 
0.979857

>  <r_i_glide_intrahb_reward>  (59) 
-0

>  <i_i_glide_confnum>  (59) 
2

>  <i_i_glide_posenum>  (59) 
24

>  <r_i_glide_eff_state_penalty>  (59) 
0

>  <ligand_id>  (59) 
14

>  <original_smiles>  (59) 
CC1CC(O)C23C(O)CCC(C)(C)C2C(O)C=C2C1C23C

>  <smiles>  (59) 
[H]OC1([H])C([H])=C2C3([H])C([H])(C([H])([H])[H])C([H])([H])C([H])(O[H])C4(C([H])(O[H])C([H])([H])C([H])([H])C(C([H])([H])[H])(C([H])([H])[H])C14[H])C23C([H])([H])[H]

$$$$
17:0:0
     RDKit          3D

 14 15  0  0  1  0  0  0  0  0999 V2000
   -6.7009   -7.5958   -5.9013 C   0  0  0  0  0  0  0  0  0  0  0  0
   -5.9077   -8.5325   -6.3990 N   0  0  0  0  0  0  0  0  0  0  0  0
   -4.6701   -8.2050   -5.8772 N   0  0  0  0  0  0  0  0  0  0  0  0
   -4.7315   -7.1386   -5.1272 N   0  0  0  0  0  0  0  0  0  0  0  0
   -6.0225   -6.7318   -5.1445 N   0  0  0  0  0  0  0  0  0  0  0  0
   -6.4684   -5.6029   -4.3616 C   0  0  0  0  0  0  0  0  0  0  0  0
   -7.4555   -4.7040   -5.0731 C   0  0  0  0  0  0  0  0  0  0  0  0
   -6.0190   -4.2610   -4.8839 C   0  0  0  0  0  0  0  0  0  0  0  0
   -7.7671   -7.5545   -6.0714 H   0  0  0  0  0  0  0  0  0  0  0  0
   -6.5487   -5.8055   -3.2969 H   0  0  0  0  0  0  0  0  0  0  0  0
   -7.7669   -4.9668   -6.0819 H   0  0  0  0  0  0  0  0  0  0  0  0
   -8.2217   -4.2294   -4.4625 H   0  0  0  0  0  0  0  0  0  0  0  0
   -5.8283   -3.4716   -4.1578 H   0  0  0  0  0  0  0  0  0  0  0  0
   -5.3856   -4.2320   -5.7680 H   0  0  0  0  0  0  0  0  0  0  0  0
  1  5  1  0
  1  2  2  0
  1  9  1  0
  2  3  1  0
  3  4  2  0
  4  5  1  0
  5  6  1  0
  6  8  1  0
  6  7  1  0
  6 10  1  0
  7  8  1  0
  7 11  1  0
  7 12  1  0
  8 13  1  0
  8 14  1  0
M  END
>  <i_m_ct_stereo_status>  (60) 
1

>  <s_m_source_file>  (60) 
/var/tmp/pbs.5076255.sched01/tmpi0kgw23q/0rwfjwt46.sdf

>  <i_m_source_file_index>  (60) 
33

>  <i_lp_mmshare_version>  (60) 
48012

>  <i_f3d_flags>  (60) 
0

>  <s_epik_input>  (60) 
bjFubltjSF1uMVtDSF0yW0NIMl1bQ0gyXTI=

>  <s_epik_cmdline>  (60) 
J2VwaWtfcHl0aG9uJywgJy1waHQnLCAnMi4wJywgJy1waCcsICc3LjAnLCAnLXRuJywgJzgnLCAnLW1hJywgJzIwMCcsICctaW1hZScsICc8aW5maWxlLm1hZT4nLCAnLW9tYWUnLCAnPG91dGZpbGUubWFlPic=

>  <r_lp_tautomer_probability>  (60) 
1

>  <r_epik_Ionization_Penalty>  (60) 
3.00088e-09

>  <r_epik_Ionization_Penalty_Charging>  (60) 
0

>  <r_epik_Ionization_Penalty_Neutral>  (60) 
3.00088e-09

>  <r_epik_State_Penalty>  (60) 
-0

>  <r_epik_Charging_Adjusted_Penalty>  (60) 
0

>  <i_epik_Tot_Q>  (60) 
0

>  <i_epik_Tot_abs_Q>  (60) 
0

>  <s_lp_Force_Field>  (60) 
OPLS3e

>  <r_lp_Energy>  (60) 
1.90264

>  <b_lp_Chiralities_Consistent>  (60) 
1

>  <s_lp_Variant>  (60) 
17:0-1

>  <s_i_glide_gridfile>  (60) 
pfpi4k_grid

>  <i_i_glide_lignum>  (60) 
33

>  <i_i_glide_rotatable_bonds>  (60) 
1

>  <r_i_docking_score>  (60) 
-4.02026

>  <r_i_glide_ligand_efficiency>  (60) 
-0.502532

>  <r_i_glide_ligand_efficiency_sa>  (60) 
-1.00506

>  <r_i_glide_ligand_efficiency_ln>  (60) 
-1.30552

>  <r_i_glide_gscore>  (60) 
-4.02026

>  <r_i_glide_lipo>  (60) 
-0.975148

>  <r_i_glide_hbond>  (60) 
0

>  <r_i_glide_metal>  (60) 
-0

>  <r_i_glide_rewards>  (60) 
-3.05778

>  <r_i_glide_evdw>  (60) 
-19.3744

>  <r_i_glide_ecoul>  (60) 
-0.516649

>  <r_i_glide_erotb>  (60) 
1.05889

>  <r_i_glide_esite>  (60) 
0

>  <r_i_glide_emodel>  (60) 
-25.4782

>  <r_i_glide_energy>  (60) 
-19.8911

>  <r_i_glide_einternal>  (60) 
0.370248

>  <r_i_glide_intrahb_reward>  (60) 
-0

>  <i_i_glide_confnum>  (60) 
6

>  <i_i_glide_posenum>  (60) 
17

>  <r_i_glide_eff_state_penalty>  (60) 
0

>  <ligand_id>  (60) 
17

>  <original_smiles>  (60) 
c1nnnn1C1CC1

>  <smiles>  (60) 
[H]c1nnnn1C1([H])C([H])([H])C1([H])[H]

$$$$
17:0:1
     RDKit          3D

 14 15  0  0  1  0  0  0  0  0999 V2000
   -4.9294   -7.8270   -5.1350 C   0  0  0  0  0  0  0  0  0  0  0  0
   -4.9854   -8.6844   -6.1418 N   0  0  0  0  0  0  0  0  0  0  0  0
   -6.0670   -8.2385   -6.8759 N   0  0  0  0  0  0  0  0  0  0  0  0
   -6.6186   -7.1940   -6.3268 N   0  0  0  0  0  0  0  0  0  0  0  0
   -5.8912   -6.9041   -5.2183 N   0  0  0  0  0  0  0  0  0  0  0  0
   -6.2356   -5.8292   -4.3007 C   0  0  0  0  0  0  0  0  0  0  0  0
   -7.2565   -4.8120   -4.7744 C   0  0  0  0  0  0  0  0  0  0  0  0
   -5.7862   -4.4517   -4.7333 C   0  0  0  0  0  0  0  0  0  0  0  0
   -4.2051   -7.8901   -4.3348 H   0  0  0  0  0  0  0  0  0  0  0  0
   -6.1898   -6.1273   -3.2557 H   0  0  0  0  0  0  0  0  0  0  0  0
   -7.7174   -4.9238   -5.7540 H   0  0  0  0  0  0  0  0  0  0  0  0
   -7.9051   -4.3801   -4.0137 H   0  0  0  0  0  0  0  0  0  0  0  0
   -5.4687   -3.7537   -3.9597 H   0  0  0  0  0  0  0  0  0  0  0  0
   -5.2708   -4.3394   -5.6842 H   0  0  0  0  0  0  0  0  0  0  0  0
  1  5  1  0
  1  2  2  0
  1  9  1  0
  2  3  1  0
  3  4  2  0
  4  5  1  0
  5  6  1  0
  6  8  1  0
  6  7  1  0
  6 10  1  0
  7  8  1  0
  7 11  1  0
  7 12  1  0
  8 13  1  0
  8 14  1  0
M  END
>  <i_m_ct_stereo_status>  (61) 
1

>  <s_m_source_file>  (61) 
/var/tmp/pbs.5076255.sched01/tmpi0kgw23q/0rwfjwt46.sdf

>  <i_m_source_file_index>  (61) 
33

>  <i_lp_mmshare_version>  (61) 
48012

>  <i_f3d_flags>  (61) 
0

>  <s_epik_input>  (61) 
bjFubltjSF1uMVtDSF0yW0NIMl1bQ0gyXTI=

>  <s_epik_cmdline>  (61) 
J2VwaWtfcHl0aG9uJywgJy1waHQnLCAnMi4wJywgJy1waCcsICc3LjAnLCAnLXRuJywgJzgnLCAnLW1hJywgJzIwMCcsICctaW1hZScsICc8aW5maWxlLm1hZT4nLCAnLW9tYWUnLCAnPG91dGZpbGUubWFlPic=

>  <r_lp_tautomer_probability>  (61) 
1

>  <r_epik_Ionization_Penalty>  (61) 
3.00088e-09

>  <r_epik_Ionization_Penalty_Charging>  (61) 
0

>  <r_epik_Ionization_Penalty_Neutral>  (61) 
3.00088e-09

>  <r_epik_State_Penalty>  (61) 
-0

>  <r_epik_Charging_Adjusted_Penalty>  (61) 
0

>  <i_epik_Tot_Q>  (61) 
0

>  <i_epik_Tot_abs_Q>  (61) 
0

>  <s_lp_Force_Field>  (61) 
OPLS3e

>  <r_lp_Energy>  (61) 
1.90264

>  <b_lp_Chiralities_Consistent>  (61) 
1

>  <s_lp_Variant>  (61) 
17:0-1

>  <s_i_glide_gridfile>  (61) 
pfpi4k_grid

>  <i_i_glide_lignum>  (61) 
33

>  <i_i_glide_rotatable_bonds>  (61) 
1

>  <r_i_docking_score>  (61) 
-4.00084

>  <r_i_glide_ligand_efficiency>  (61) 
-0.500104

>  <r_i_glide_ligand_efficiency_sa>  (61) 
-1.00021

>  <r_i_glide_ligand_efficiency_ln>  (61) 
-1.29921

>  <r_i_glide_gscore>  (61) 
-4.00084

>  <r_i_glide_lipo>  (61) 
-0.957422

>  <r_i_glide_hbond>  (61) 
0

>  <r_i_glide_metal>  (61) 
-0

>  <r_i_glide_rewards>  (61) 
-3.13005

>  <r_i_glide_evdw>  (61) 
-19.2382

>  <r_i_glide_ecoul>  (61) 
-0.068913

>  <r_i_glide_erotb>  (61) 
1.05889

>  <r_i_glide_esite>  (61) 
0

>  <r_i_glide_emodel>  (61) 
-24.6818

>  <r_i_glide_energy>  (61) 
-19.3071

>  <r_i_glide_einternal>  (61) 
0.691361

>  <r_i_glide_intrahb_reward>  (61) 
-0

>  <i_i_glide_confnum>  (61) 
6

>  <i_i_glide_posenum>  (61) 
2

>  <r_i_glide_eff_state_penalty>  (61) 
0

>  <ligand_id>  (61) 
17

>  <original_smiles>  (61) 
c1nnnn1C1CC1

>  <smiles>  (61) 
[H]c1nnnn1C1([H])C([H])([H])C1([H])[H]

$$$$
17:0:2
     RDKit          3D

 14 15  0  0  1  0  0  0  0  0999 V2000
   -6.3962   -7.6375   -6.2678 C   0  0  0  0  0  0  0  0  0  0  0  0
   -5.1842   -8.1367   -6.0894 N   0  0  0  0  0  0  0  0  0  0  0  0
   -4.6359   -7.2981   -5.1378 N   0  0  0  0  0  0  0  0  0  0  0  0
   -5.4788   -6.3669   -4.7820 N   0  0  0  0  0  0  0  0  0  0  0  0
   -6.5999   -6.5541   -5.5256 N   0  0  0  0  0  0  0  0  0  0  0  0
   -7.7855   -5.7462   -5.3514 C   0  0  0  0  0  0  0  0  0  0  0  0
   -8.1838   -4.9660   -6.5829 C   0  0  0  0  0  0  0  0  0  0  0  0
   -7.5686   -4.2559   -5.3936 C   0  0  0  0  0  0  0  0  0  0  0  0
   -7.1278   -8.0706   -6.9341 H   0  0  0  0  0  0  0  0  0  0  0  0
   -8.5476   -6.2054   -4.7281 H   0  0  0  0  0  0  0  0  0  0  0  0
   -7.5764   -5.0722   -7.4800 H   0  0  0  0  0  0  0  0  0  0  0  0
   -9.2487   -4.8258   -6.7582 H   0  0  0  0  0  0  0  0  0  0  0  0
   -8.2259   -3.6437   -4.7832 H   0  0  0  0  0  0  0  0  0  0  0  0
   -6.5519   -3.8800   -5.5015 H   0  0  0  0  0  0  0  0  0  0  0  0
  1  5  1  0
  1  2  2  0
  1  9  1  0
  2  3  1  0
  3  4  2  0
  4  5  1  0
  5  6  1  0
  6  8  1  0
  6  7  1  0
  6 10  1  0
  7  8  1  0
  7 11  1  0
  7 12  1  0
  8 13  1  0
  8 14  1  0
M  END
>  <i_m_ct_stereo_status>  (62) 
1

>  <s_m_source_file>  (62) 
/var/tmp/pbs.5076255.sched01/tmpi0kgw23q/0rwfjwt46.sdf

>  <i_m_source_file_index>  (62) 
33

>  <i_lp_mmshare_version>  (62) 
48012

>  <i_f3d_flags>  (62) 
0

>  <s_epik_input>  (62) 
bjFubltjSF1uMVtDSF0yW0NIMl1bQ0gyXTI=

>  <s_epik_cmdline>  (62) 
J2VwaWtfcHl0aG9uJywgJy1waHQnLCAnMi4wJywgJy1waCcsICc3LjAnLCAnLXRuJywgJzgnLCAnLW1hJywgJzIwMCcsICctaW1hZScsICc8aW5maWxlLm1hZT4nLCAnLW9tYWUnLCAnPG91dGZpbGUubWFlPic=

>  <r_lp_tautomer_probability>  (62) 
1

>  <r_epik_Ionization_Penalty>  (62) 
3.00088e-09

>  <r_epik_Ionization_Penalty_Charging>  (62) 
0

>  <r_epik_Ionization_Penalty_Neutral>  (62) 
3.00088e-09

>  <r_epik_State_Penalty>  (62) 
-0

>  <r_epik_Charging_Adjusted_Penalty>  (62) 
0

>  <i_epik_Tot_Q>  (62) 
0

>  <i_epik_Tot_abs_Q>  (62) 
0

>  <s_lp_Force_Field>  (62) 
OPLS3e

>  <r_lp_Energy>  (62) 
1.90264

>  <b_lp_Chiralities_Consistent>  (62) 
1

>  <s_lp_Variant>  (62) 
17:0-1

>  <s_i_glide_gridfile>  (62) 
pfpi4k_grid

>  <i_i_glide_lignum>  (62) 
33

>  <i_i_glide_rotatable_bonds>  (62) 
1

>  <r_i_docking_score>  (62) 
-3.80212

>  <r_i_glide_ligand_efficiency>  (62) 
-0.475266

>  <r_i_glide_ligand_efficiency_sa>  (62) 
-0.950531

>  <r_i_glide_ligand_efficiency_ln>  (62) 
-1.23468

>  <r_i_glide_gscore>  (62) 
-3.80212

>  <r_i_glide_lipo>  (62) 
-0.895044

>  <r_i_glide_hbond>  (62) 
0

>  <r_i_glide_metal>  (62) 
-0

>  <r_i_glide_rewards>  (62) 
-3.00218

>  <r_i_glide_evdw>  (62) 
-17.7273

>  <r_i_glide_ecoul>  (62) 
-0.516161

>  <r_i_glide_erotb>  (62) 
1.05889

>  <r_i_glide_esite>  (62) 
0

>  <r_i_glide_emodel>  (62) 
-23.6204

>  <r_i_glide_energy>  (62) 
-18.2434

>  <r_i_glide_einternal>  (62) 
0.180484

>  <r_i_glide_intrahb_reward>  (62) 
-0

>  <i_i_glide_confnum>  (62) 
2

>  <i_i_glide_posenum>  (62) 
15

>  <r_i_glide_eff_state_penalty>  (62) 
0

>  <ligand_id>  (62) 
17

>  <original_smiles>  (62) 
c1nnnn1C1CC1

>  <smiles>  (62) 
[H]c1nnnn1C1([H])C([H])([H])C1([H])[H]

$$$$
18:0:0
     RDKit          3D

 13 14  0  0  1  0  0  0  0  0999 V2000
   -0.0014   -9.7295    3.2796 C   0  0  0  0  0  0  0  0  0  0  0  0
   -1.0737   -8.8506    2.9858 C   0  0  0  0  0  0  0  0  0  0  0  0
   -0.9937   -7.6784    2.3561 N   0  0  0  0  0  0  0  0  0  0  0  0
    0.2820   -7.4043    1.9792 N   0  0  0  0  0  0  0  0  0  0  0  0
    0.6000   -6.2612    1.3119 N   0  0  0  0  0  0  0  0  0  0  0  0
    1.9174   -6.3727    1.1817 C   0  0  0  0  0  0  0  0  0  0  0  0
    2.4852   -7.5027    1.6898 N   0  0  0  0  0  0  0  0  0  0  0  0
    1.4474   -8.1619    2.1973 C   0  0  0  0  0  0  0  0  0  0  0  0
    1.2721   -9.3889    2.8846 C   0  0  0  0  0  0  0  0  0  0  0  0
   -0.1868  -10.6574    3.8151 H   0  0  0  0  0  0  0  0  0  0  0  0
   -2.0725   -9.1427    3.3024 H   0  0  0  0  0  0  0  0  0  0  0  0
    2.5018   -5.6118    0.6831 H   0  0  0  0  0  0  0  0  0  0  0  0
    2.1244  -10.0277    3.0908 H   0  0  0  0  0  0  0  0  0  0  0  0
  1  9  2  0
  1  2  1  0
  1 10  1  0
  2  3  2  0
  2 11  1  0
  3  4  1  0
  4  8  1  0
  4  5  1  0
  5  6  2  0
  6  7  1  0
  6 12  1  0
  7  8  2  0
  8  9  1  0
  9 13  1  0
M  END
>  <i_m_ct_stereo_status>  (63) 
1

>  <s_m_source_file>  (63) 
/var/tmp/pbs.5076255.sched01/tmpi0kgw23q/0rwfjwt46.sdf

>  <i_m_source_file_index>  (63) 
34

>  <i_lp_mmshare_version>  (63) 
48012

>  <i_f3d_flags>  (63) 
0

>  <s_epik_input>  (63) 
bjFbY0hdW2NIXVtjSF1jKG4xMiluW2NIXW4y

>  <s_epik_cmdline>  (63) 
J2VwaWtfcHl0aG9uJywgJy1waHQnLCAnMi4wJywgJy1waCcsICc3LjAnLCAnLXRuJywgJzgnLCAnLW1hJywgJzIwMCcsICctaW1hZScsICc8aW5maWxlLm1hZT4nLCAnLW9tYWUnLCAnPG91dGZpbGUubWFlPic=

>  <r_lp_tautomer_probability>  (63) 
1

>  <r_epik_Ionization_Penalty>  (63) 
1.08026e-06

>  <r_epik_Ionization_Penalty_Charging>  (63) 
0

>  <r_epik_Ionization_Penalty_Neutral>  (63) 
1.08026e-06

>  <r_epik_State_Penalty>  (63) 
-0

>  <r_epik_Charging_Adjusted_Penalty>  (63) 
0

>  <i_epik_Tot_Q>  (63) 
0

>  <i_epik_Tot_abs_Q>  (63) 
0

>  <s_lp_Force_Field>  (63) 
OPLS3e

>  <r_lp_Energy>  (63) 
14.2275

>  <b_lp_Chiralities_Consistent>  (63) 
1

>  <s_lp_Variant>  (63) 
18:0-1

>  <s_i_glide_gridfile>  (63) 
pfpi4k_grid

>  <i_i_glide_lignum>  (63) 
34

>  <i_i_glide_rotatable_bonds>  (63) 
0

>  <r_i_docking_score>  (63) 
-4.1342

>  <r_i_glide_ligand_efficiency>  (63) 
-0.459355

>  <r_i_glide_ligand_efficiency_sa>  (63) 
-0.955497

>  <r_i_glide_ligand_efficiency_ln>  (63) 
-1.29306

>  <r_i_glide_gscore>  (63) 
-4.1342

>  <r_i_glide_lipo>  (63) 
-0.0256005

>  <r_i_glide_hbond>  (63) 
-0.16

>  <r_i_glide_metal>  (63) 
-0

>  <r_i_glide_rewards>  (63) 
-2.25

>  <r_i_glide_evdw>  (63) 
-14.0704

>  <r_i_glide_ecoul>  (63) 
-5.75733

>  <r_i_glide_erotb>  (63) 
0

>  <r_i_glide_esite>  (63) 
-0.131474

>  <r_i_glide_emodel>  (63) 
-26.0356

>  <r_i_glide_energy>  (63) 
-19.8278

>  <r_i_glide_einternal>  (63) 
0

>  <r_i_glide_intrahb_reward>  (63) 
-0

>  <i_i_glide_confnum>  (63) 
1

>  <i_i_glide_posenum>  (63) 
20

>  <r_i_glide_eff_state_penalty>  (63) 
0

>  <ligand_id>  (63) 
18

>  <original_smiles>  (63) 
c1cnn2ncnc2c1

>  <smiles>  (63) 
[H]c1nc2c([H])c([H])c([H])nn2n1

$$$$
18:0:1
     RDKit          3D

 13 14  0  0  1  0  0  0  0  0999 V2000
    3.9939   -4.7103    1.2575 C   0  0  0  0  0  0  0  0  0  0  0  0
    4.1111   -5.4185    2.4832 C   0  0  0  0  0  0  0  0  0  0  0  0
    3.2365   -6.2858    2.9889 N   0  0  0  0  0  0  0  0  0  0  0  0
    2.1650   -6.4526    2.1729 N   0  0  0  0  0  0  0  0  0  0  0  0
    1.1238   -7.2625    2.5005 N   0  0  0  0  0  0  0  0  0  0  0  0
    0.3249   -7.1443    1.4450 C   0  0  0  0  0  0  0  0  0  0  0  0
    0.7225   -6.2573    0.4820 N   0  0  0  0  0  0  0  0  0  0  0  0
    1.9058   -5.8385    0.9309 C   0  0  0  0  0  0  0  0  0  0  0  0
    2.8835   -4.9170    0.4731 C   0  0  0  0  0  0  0  0  0  0  0  0
    4.7658   -4.0145    0.9412 H   0  0  0  0  0  0  0  0  0  0  0  0
    4.9955   -5.2543    3.0873 H   0  0  0  0  0  0  0  0  0  0  0  0
   -0.6095   -7.6896    1.3865 H   0  0  0  0  0  0  0  0  0  0  0  0
    2.7430   -4.3937   -0.4674 H   0  0  0  0  0  0  0  0  0  0  0  0
  1  9  2  0
  1  2  1  0
  1 10  1  0
  2  3  2  0
  2 11  1  0
  3  4  1  0
  4  8  1  0
  4  5  1  0
  5  6  2  0
  6  7  1  0
  6 12  1  0
  7  8  2  0
  8  9  1  0
  9 13  1  0
M  END
>  <i_m_ct_stereo_status>  (64) 
1

>  <s_m_source_file>  (64) 
/var/tmp/pbs.5076255.sched01/tmpi0kgw23q/0rwfjwt46.sdf

>  <i_m_source_file_index>  (64) 
34

>  <i_lp_mmshare_version>  (64) 
48012

>  <i_f3d_flags>  (64) 
0

>  <s_epik_input>  (64) 
bjFbY0hdW2NIXVtjSF1jKG4xMiluW2NIXW4y

>  <s_epik_cmdline>  (64) 
J2VwaWtfcHl0aG9uJywgJy1waHQnLCAnMi4wJywgJy1waCcsICc3LjAnLCAnLXRuJywgJzgnLCAnLW1hJywgJzIwMCcsICctaW1hZScsICc8aW5maWxlLm1hZT4nLCAnLW9tYWUnLCAnPG91dGZpbGUubWFlPic=

>  <r_lp_tautomer_probability>  (64) 
1

>  <r_epik_Ionization_Penalty>  (64) 
1.08026e-06

>  <r_epik_Ionization_Penalty_Charging>  (64) 
0

>  <r_epik_Ionization_Penalty_Neutral>  (64) 
1.08026e-06

>  <r_epik_State_Penalty>  (64) 
-0

>  <r_epik_Charging_Adjusted_Penalty>  (64) 
0

>  <i_epik_Tot_Q>  (64) 
0

>  <i_epik_Tot_abs_Q>  (64) 
0

>  <s_lp_Force_Field>  (64) 
OPLS3e

>  <r_lp_Energy>  (64) 
14.2275

>  <b_lp_Chiralities_Consistent>  (64) 
1

>  <s_lp_Variant>  (64) 
18:0-1

>  <s_i_glide_gridfile>  (64) 
pfpi4k_grid

>  <i_i_glide_lignum>  (64) 
34

>  <i_i_glide_rotatable_bonds>  (64) 
0

>  <r_i_docking_score>  (64) 
-3.93666

>  <r_i_glide_ligand_efficiency>  (64) 
-0.437407

>  <r_i_glide_ligand_efficiency_sa>  (64) 
-0.909844

>  <r_i_glide_ligand_efficiency_ln>  (64) 
-1.23128

>  <r_i_glide_gscore>  (64) 
-3.93666

>  <r_i_glide_lipo>  (64) 
-0.0183519

>  <r_i_glide_hbond>  (64) 
-0.229702

>  <r_i_glide_metal>  (64) 
-0

>  <r_i_glide_rewards>  (64) 
-2.25

>  <r_i_glide_evdw>  (64) 
-9.24169

>  <r_i_glide_ecoul>  (64) 
-5.40016

>  <r_i_glide_erotb>  (64) 
0

>  <r_i_glide_esite>  (64) 
-0.166502

>  <r_i_glide_emodel>  (64) 
-20.5519

>  <r_i_glide_energy>  (64) 
-14.6419

>  <r_i_glide_einternal>  (64) 
0

>  <r_i_glide_intrahb_reward>  (64) 
-0

>  <i_i_glide_confnum>  (64) 
1

>  <i_i_glide_posenum>  (64) 
13

>  <r_i_glide_eff_state_penalty>  (64) 
0

>  <ligand_id>  (64) 
18

>  <original_smiles>  (64) 
c1cnn2ncnc2c1

>  <smiles>  (64) 
[H]c1nc2c([H])c([H])c([H])nn2n1

$$$$
18:0:2
     RDKit          3D

 13 14  0  0  1  0  0  0  0  0999 V2000
    2.9996   -2.1051   -3.6478 C   0  0  0  0  0  0  0  0  0  0  0  0
    3.9254   -1.1409   -3.1803 C   0  0  0  0  0  0  0  0  0  0  0  0
    4.4374   -1.0586   -1.9540 N   0  0  0  0  0  0  0  0  0  0  0  0
    3.9284   -2.0115   -1.1302 N   0  0  0  0  0  0  0  0  0  0  0  0
    4.3026   -2.1146    0.1719 N   0  0  0  0  0  0  0  0  0  0  0  0
    3.5888   -3.1549    0.5862 C   0  0  0  0  0  0  0  0  0  0  0  0
    2.7843   -3.7523   -0.3381 N   0  0  0  0  0  0  0  0  0  0  0  0
    3.0051   -3.0289   -1.4342 C   0  0  0  0  0  0  0  0  0  0  0  0
    2.5312   -3.0569   -2.7725 C   0  0  0  0  0  0  0  0  0  0  0  0
    2.6315   -2.0833   -4.6678 H   0  0  0  0  0  0  0  0  0  0  0  0
    4.2686   -0.3841   -3.8747 H   0  0  0  0  0  0  0  0  0  0  0  0
    3.6599   -3.5084    1.6056 H   0  0  0  0  0  0  0  0  0  0  0  0
    1.8206   -3.8200   -3.0763 H   0  0  0  0  0  0  0  0  0  0  0  0
  1  9  2  0
  1  2  1  0
  1 10  1  0
  2  3  2  0
  2 11  1  0
  3  4  1  0
  4  8  1  0
  4  5  1  0
  5  6  2  0
  6  7  1  0
  6 12  1  0
  7  8  2  0
  8  9  1  0
  9 13  1  0
M  END
>  <i_m_ct_stereo_status>  (65) 
1

>  <s_m_source_file>  (65) 
/var/tmp/pbs.5076255.sched01/tmpi0kgw23q/0rwfjwt46.sdf

>  <i_m_source_file_index>  (65) 
34

>  <i_lp_mmshare_version>  (65) 
48012

>  <i_f3d_flags>  (65) 
0

>  <s_epik_input>  (65) 
bjFbY0hdW2NIXVtjSF1jKG4xMiluW2NIXW4y

>  <s_epik_cmdline>  (65) 
J2VwaWtfcHl0aG9uJywgJy1waHQnLCAnMi4wJywgJy1waCcsICc3LjAnLCAnLXRuJywgJzgnLCAnLW1hJywgJzIwMCcsICctaW1hZScsICc8aW5maWxlLm1hZT4nLCAnLW9tYWUnLCAnPG91dGZpbGUubWFlPic=

>  <r_lp_tautomer_probability>  (65) 
1

>  <r_epik_Ionization_Penalty>  (65) 
1.08026e-06

>  <r_epik_Ionization_Penalty_Charging>  (65) 
0

>  <r_epik_Ionization_Penalty_Neutral>  (65) 
1.08026e-06

>  <r_epik_State_Penalty>  (65) 
-0

>  <r_epik_Charging_Adjusted_Penalty>  (65) 
0

>  <i_epik_Tot_Q>  (65) 
0

>  <i_epik_Tot_abs_Q>  (65) 
0

>  <s_lp_Force_Field>  (65) 
OPLS3e

>  <r_lp_Energy>  (65) 
14.2275

>  <b_lp_Chiralities_Consistent>  (65) 
1

>  <s_lp_Variant>  (65) 
18:0-1

>  <s_i_glide_gridfile>  (65) 
pfpi4k_grid

>  <i_i_glide_lignum>  (65) 
34

>  <i_i_glide_rotatable_bonds>  (65) 
0

>  <r_i_docking_score>  (65) 
-3.76475

>  <r_i_glide_ligand_efficiency>  (65) 
-0.418305

>  <r_i_glide_ligand_efficiency_sa>  (65) 
-0.87011

>  <r_i_glide_ligand_efficiency_ln>  (65) 
-1.1775

>  <r_i_glide_gscore>  (65) 
-3.76475

>  <r_i_glide_lipo>  (65) 
-0.392825

>  <r_i_glide_hbond>  (65) 
0

>  <r_i_glide_metal>  (65) 
-0

>  <r_i_glide_rewards>  (65) 
-2.25008

>  <r_i_glide_evdw>  (65) 
-15.7558

>  <r_i_glide_ecoul>  (65) 
-1.88939

>  <r_i_glide_erotb>  (65) 
0

>  <r_i_glide_esite>  (65) 
-0.0506463

>  <r_i_glide_emodel>  (65) 
-23.2963

>  <r_i_glide_energy>  (65) 
-17.6452

>  <r_i_glide_einternal>  (65) 
0

>  <r_i_glide_intrahb_reward>  (65) 
-0

>  <i_i_glide_confnum>  (65) 
1

>  <i_i_glide_posenum>  (65) 
2

>  <r_i_glide_eff_state_penalty>  (65) 
0

>  <ligand_id>  (65) 
18

>  <original_smiles>  (65) 
c1cnn2ncnc2c1

>  <smiles>  (65) 
[H]c1nc2c([H])c([H])c([H])nn2n1

$$$$
19:0:0
     RDKit          3D

 70 74  0  0  1  0  0  0  0  0999 V2000
    1.5253   -3.9295    6.1994 C   0  0  0  0  0  0  0  0  0  0  0  0
    1.7230   -4.5634    4.8314 C   0  0  0  0  0  0  0  0  0  0  0  0
    0.9969   -4.2841    3.8755 O   0  0  0  0  0  0  0  0  0  0  0  0
    2.7460   -5.4313    4.8132 O   0  0  0  0  0  0  0  0  0  0  0  0
    3.1200   -6.1120    3.6147 C   0  0  2  0  0  0  0  0  0  0  0  0
    2.2133   -7.3426    3.3926 C   0  0  0  0  0  0  0  0  0  0  0  0
    2.0514   -8.3544    4.5678 C   0  0  1  0  0  0  0  0  0  0  0  0
    0.5564   -8.8841    4.6727 C   0  0  0  0  0  0  0  0  0  0  0  0
    0.2378   -9.5544    6.0433 C   0  0  0  0  0  0  0  0  0  0  0  0
   -0.4955   -7.7415    4.5641 C   0  0  0  0  0  0  0  0  0  0  0  0
    0.3142   -9.8657    3.5062 C   0  0  0  0  0  0  0  0  0  0  0  0
    1.3146  -11.0255    3.4855 C   0  0  0  0  0  0  0  0  0  0  0  0
    2.7719  -10.5425    3.4453 C   0  0  0  0  0  0  0  0  0  0  0  0
    3.1789   -9.4841    4.5149 C   0  0  2  0  0  0  0  0  0  0  0  0
    3.2518  -10.2215    5.8900 C   0  0  0  0  0  0  0  0  0  0  0  0
    4.6743   -8.9369    4.2718 C   0  0  1  0  0  0  0  0  0  0  0  0
    5.4672   -9.2193    2.9619 C   0  0  1  0  0  0  0  0  0  0  0  0
    5.6151  -10.5768    2.5832 O   0  0  0  0  0  0  0  0  0  0  0  0
    5.2408   -8.2828    1.7587 C   0  0  1  0  0  0  0  0  0  0  0  0
    4.3265   -8.7946    0.6283 C   0  0  0  0  0  0  0  0  0  0  0  0
    5.0132   -6.8126    2.1234 C   0  0  0  0  0  0  0  0  0  0  0  0
    5.2453   -5.8702    1.1799 C   0  0  0  0  0  0  0  0  0  0  0  0
    5.2263   -4.3619    1.3971 C   0  0  0  0  0  0  0  0  0  0  0  0
    5.0865   -3.9387    2.8735 C   0  0  0  0  0  0  0  0  0  0  0  0
    5.4954   -5.0968    3.8055 C   0  0  1  0  0  0  0  0  0  0  0  0
    5.7013   -4.7161    5.2696 C   0  0  0  0  0  0  0  0  0  0  0  0
    5.4206   -3.6110    5.7381 O   0  0  0  0  0  0  0  0  0  0  0  0
    6.3247   -5.8511    6.0937 C   0  0  0  0  0  0  0  0  0  0  0  0
    6.8557   -5.6558    7.1867 O   0  0  0  0  0  0  0  0  0  0  0  0
    6.2916   -7.2402    5.4405 C   0  0  0  0  0  0  0  0  0  0  0  0
    4.9419   -7.4675    4.7017 C   0  0  1  0  0  0  0  0  0  0  0  0
    4.6489   -6.4001    3.5741 C   0  0  1  0  0  0  0  0  0  0  0  0
    1.4239   -4.7029    6.9616 H   0  0  0  0  0  0  0  0  0  0  0  0
    0.6314   -3.3069    6.2172 H   0  0  0  0  0  0  0  0  0  0  0  0
    2.3857   -3.3094    6.4504 H   0  0  0  0  0  0  0  0  0  0  0  0
    2.9176   -5.4435    2.7759 H   0  0  0  0  0  0  0  0  0  0  0  0
    1.2755   -6.9128    3.0761 H   0  0  0  0  0  0  0  0  0  0  0  0
    2.5208   -7.8744    2.5109 H   0  0  0  0  0  0  0  0  0  0  0  0
    2.1842   -7.7865    5.4873 H   0  0  0  0  0  0  0  0  0  0  0  0
   -0.8068   -9.4440    6.3369 H   0  0  0  0  0  0  0  0  0  0  0  0
    0.8353   -9.1435    6.8574 H   0  0  0  0  0  0  0  0  0  0  0  0
    0.3797  -10.6339    6.0290 H   0  0  0  0  0  0  0  0  0  0  0  0
   -1.4859   -8.0647    4.8865 H   0  0  0  0  0  0  0  0  0  0  0  0
   -0.6593   -7.4104    3.5396 H   0  0  0  0  0  0  0  0  0  0  0  0
   -0.2122   -6.8812    5.1722 H   0  0  0  0  0  0  0  0  0  0  0  0
   -0.6995  -10.2565    3.5467 H   0  0  0  0  0  0  0  0  0  0  0  0
    0.3852   -9.3354    2.5559 H   0  0  0  0  0  0  0  0  0  0  0  0
    1.1563  -11.6998    4.3234 H   0  0  0  0  0  0  0  0  0  0  0  0
    1.1204  -11.6318    2.6026 H   0  0  0  0  0  0  0  0  0  0  0  0
    3.4095  -11.4203    3.5367 H   0  0  0  0  0  0  0  0  0  0  0  0
    2.9394  -10.1460    2.4514 H   0  0  0  0  0  0  0  0  0  0  0  0
    4.1361  -10.8519    5.9985 H   0  0  0  0  0  0  0  0  0  0  0  0
    2.4422  -10.9284    6.0351 H   0  0  0  0  0  0  0  0  0  0  0  0
    3.2455   -9.5251    6.7311 H   0  0  0  0  0  0  0  0  0  0  0  0
    5.2936   -9.4970    4.9712 H   0  0  0  0  0  0  0  0  0  0  0  0
    6.4920   -8.9893    3.2570 H   0  0  0  0  0  0  0  0  0  0  0  0
    4.8803  -10.8386    2.0392 H   0  0  0  0  0  0  0  0  0  0  0  0
    6.2211   -8.2688    1.2775 H   0  0  0  0  0  0  0  0  0  0  0  0
    4.5427   -8.2632   -0.2993 H   0  0  0  0  0  0  0  0  0  0  0  0
    3.2665   -8.6781    0.8156 H   0  0  0  0  0  0  0  0  0  0  0  0
    4.4959   -9.8496    0.4247 H   0  0  0  0  0  0  0  0  0  0  0  0
    5.5119   -6.1734    0.1801 H   0  0  0  0  0  0  0  0  0  0  0  0
    6.1736   -3.9820    1.0092 H   0  0  0  0  0  0  0  0  0  0  0  0
    4.4349   -3.9161    0.7907 H   0  0  0  0  0  0  0  0  0  0  0  0
    5.7089   -3.0586    3.0543 H   0  0  0  0  0  0  0  0  0  0  0  0
    4.0664   -3.6111    3.0791 H   0  0  0  0  0  0  0  0  0  0  0  0
    6.5138   -5.3438    3.4988 H   0  0  0  0  0  0  0  0  0  0  0  0
    7.1470   -7.3415    4.7724 H   0  0  0  0  0  0  0  0  0  0  0  0
    6.4136   -7.9770    6.2370 H   0  0  0  0  0  0  0  0  0  0  0  0
    4.2523   -7.2815    5.5236 H   0  0  0  0  0  0  0  0  0  0  0  0
  1  2  1  0
  1 33  1  0
  1 34  1  0
  1 35  1  0
  2  3  2  0
  2  4  1  0
  4  5  1  0
  5 32  1  0
  5  6  1  0
  5 36  1  6
  6  7  1  0
  6 37  1  0
  6 38  1  0
  7 14  1  0
  7  8  1  0
  7 39  1  1
  8  9  1  0
  8 10  1  0
  8 11  1  0
  9 40  1  0
  9 41  1  0
  9 42  1  0
 10 43  1  0
 10 44  1  0
 10 45  1  0
 11 12  1  0
 11 46  1  0
 11 47  1  0
 12 13  1  0
 12 48  1  0
 12 49  1  0
 13 14  1  0
 13 50  1  0
 13 51  1  0
 14 15  1  1
 14 16  1  0
 15 52  1  0
 15 53  1  0
 15 54  1  0
 16 31  1  0
 16 17  1  0
 16 55  1  1
 17 18  1  0
 17 19  1  0
 17 56  1  1
 18 57  1  0
 19 20  1  0
 19 21  1  0
 19 58  1  6
 20 59  1  0
 20 60  1  0
 20 61  1  0
 32 21  1  6
 21 22  2  0
 22 23  1  0
 22 62  1  0
 23 24  1  0
 23 63  1  0
 23 64  1  0
 24 25  1  0
 24 65  1  0
 24 66  1  0
 25 32  1  0
 25 26  1  0
 25 67  1  6
 26 27  2  0
 26 28  1  0
 28 29  2  0
 28 30  1  0
 30 31  1  0
 30 68  1  0
 30 69  1  0
 31 32  1  0
 31 70  1  1
M  END
>  <i_m_ct_stereo_status>  (66) 
1

>  <s_m_source_file>  (66) 
/var/tmp/pbs.5076255.sched01/tmpi0kgw23q/0rwfjwt46.sdf

>  <i_m_source_file_index>  (66) 
35

>  <i_lp_mmshare_version>  (66) 
48012

>  <i_f3d_flags>  (66) 
0

>  <s_epik_input>  (66) 
W0NIM11DKD1PKU9bQ0BASF0xW0NIMl1bQ0BASF0oQyhbQ0gzXSkoW0NIM10pW0NIMl1bQ0gyXVtDSDJdMilbQ0BdMihbQ0gzXSlbQ0BASF0oW0NAQEhdKFtPSF0pW0NASF0zW0NIM10pW0NASF00W0NIMl1DKD1PKUMoPU8pW0NAQEhdNVtDSDJdW0NIMl1bQ0hdPUMzW0NAQF0xNDU=

>  <s_epik_cmdline>  (66) 
J2VwaWtfcHl0aG9uJywgJy1waHQnLCAnMi4wJywgJy1waCcsICc3LjAnLCAnLXRuJywgJzgnLCAnLW1hJywgJzIwMCcsICctaW1hZScsICc8aW5maWxlLm1hZT4nLCAnLW9tYWUnLCAnPG91dGZpbGUubWFlPic=

>  <r_lp_tautomer_probability>  (66) 
1

>  <r_epik_Ionization_Penalty>  (66) 
9.4373e-08

>  <r_epik_Ionization_Penalty_Charging>  (66) 
0

>  <r_epik_Ionization_Penalty_Neutral>  (66) 
9.4373e-08

>  <r_epik_State_Penalty>  (66) 
-0

>  <r_epik_Charging_Adjusted_Penalty>  (66) 
0

>  <i_epik_Tot_Q>  (66) 
0

>  <i_epik_Tot_abs_Q>  (66) 
0

>  <s_epik_Chemistry_Notes>  (66) 
This compound has an ester and may undergo hydrolysis at high or low pH.

>  <s_lp_Force_Field>  (66) 
OPLS3e

>  <r_lp_Energy>  (66) 
89.6667

>  <b_lp_Chiralities_Consistent>  (66) 
1

>  <s_lp_Variant>  (66) 
19:0-1

>  <s_i_glide_gridfile>  (66) 
pfpi4k_grid

>  <i_i_glide_lignum>  (66) 
35

>  <i_i_glide_rotatable_bonds>  (66) 
3

>  <r_i_docking_score>  (66) 
-2.19824

>  <r_i_glide_ligand_efficiency>  (66) 
-0.068695

>  <r_i_glide_ligand_efficiency_sa>  (66) 
-0.218093

>  <r_i_glide_ligand_efficiency_ln>  (66) 
-0.492246

>  <r_i_glide_gscore>  (66) 
-2.19824

>  <r_i_glide_lipo>  (66) 
-0.413484

>  <r_i_glide_hbond>  (66) 
-0.0535539

>  <r_i_glide_metal>  (66) 
-0

>  <r_i_glide_rewards>  (66) 
-0.397039

>  <r_i_glide_evdw>  (66) 
-26.0667

>  <r_i_glide_ecoul>  (66) 
-0.885657

>  <r_i_glide_erotb>  (66) 
0.102023

>  <r_i_glide_esite>  (66) 
0

>  <r_i_glide_emodel>  (66) 
-30.571

>  <r_i_glide_energy>  (66) 
-26.9524

>  <r_i_glide_einternal>  (66) 
0.443184

>  <r_i_glide_intrahb_reward>  (66) 
-0

>  <i_i_glide_confnum>  (66) 
3

>  <i_i_glide_posenum>  (66) 
5

>  <r_i_glide_eff_state_penalty>  (66) 
0

>  <ligand_id>  (66) 
19

>  <original_smiles>  (66) 
CC(=O)OC1CC2C(C)(C)CCCC2(C)C2C(O)C(C)C3=CCCC4C(=O)C(=O)CC2C314

>  <smiles>  (66) 
[H]OC1([H])C([H])(C([H])([H])[H])C2=C([H])C([H])([H])C([H])([H])C3([H])C(=O)C(=O)C([H])([H])C4([H])C1([H])C1(C([H])([H])[H])C([H])([H])C([H])([H])C([H])([H])C(C([H])([H])[H])(C([H])([H])[H])C1([H])C([H])([H])C([H])(OC(=O)C([H])([H])[H])C234

$$$$
19:0:1
     RDKit          3D

 70 74  0  0  1  0  0  0  0  0999 V2000
    3.2754   -3.9101    3.2216 C   0  0  0  0  0  0  0  0  0  0  0  0
    3.8167   -5.2348    2.7017 C   0  0  0  0  0  0  0  0  0  0  0  0
    4.0434   -5.4168    1.5054 O   0  0  0  0  0  0  0  0  0  0  0  0
    3.9919   -6.1322    3.6868 O   0  0  0  0  0  0  0  0  0  0  0  0
    4.4977   -7.4410    3.4201 C   0  0  2  0  0  0  0  0  0  0  0  0
    3.3384   -8.3820    3.0239 C   0  0  0  0  0  0  0  0  0  0  0  0
    2.0946   -8.4502    3.9657 C   0  0  1  0  0  0  0  0  0  0  0  0
    0.7411   -8.5448    3.1362 C   0  0  0  0  0  0  0  0  0  0  0  0
   -0.5272   -8.2102    3.9751 C   0  0  0  0  0  0  0  0  0  0  0  0
    0.6892   -7.5237    1.9611 C   0  0  0  0  0  0  0  0  0  0  0  0
    0.6415   -9.9666    2.5474 C   0  0  0  0  0  0  0  0  0  0  0  0
    0.7332  -11.0676    3.6030 C   0  0  0  0  0  0  0  0  0  0  0  0
    1.9938  -10.9613    4.4663 C   0  0  0  0  0  0  0  0  0  0  0  0
    2.2868   -9.5643    5.0936 C   0  0  2  0  0  0  0  0  0  0  0  0
    1.2468   -9.3427    6.2367 C   0  0  0  0  0  0  0  0  0  0  0  0
    3.7151   -9.5339    5.8375 C   0  0  1  0  0  0  0  0  0  0  0  0
    4.7641  -10.6711    5.6753 C   0  0  1  0  0  0  0  0  0  0  0  0
    4.3053  -11.9814    5.9582 O   0  0  0  0  0  0  0  0  0  0  0  0
    5.7117  -10.6179    4.4543 C   0  0  1  0  0  0  0  0  0  0  0  0
    5.4028  -11.5432    3.2520 C   0  0  0  0  0  0  0  0  0  0  0  0
    6.1592   -9.2048    4.0596 C   0  0  0  0  0  0  0  0  0  0  0  0
    7.2952   -9.0647    3.3374 C   0  0  0  0  0  0  0  0  0  0  0  0
    7.9768   -7.7475    2.9822 C   0  0  0  0  0  0  0  0  0  0  0  0
    7.3662   -6.5137    3.6769 C   0  0  0  0  0  0  0  0  0  0  0  0
    6.5575   -6.9429    4.9171 C   0  0  1  0  0  0  0  0  0  0  0  0
    6.1594   -5.8131    5.8642 C   0  0  0  0  0  0  0  0  0  0  0  0
    6.3095   -4.6172    5.6141 O   0  0  0  0  0  0  0  0  0  0  0  0
    5.5600   -6.3241    7.1808 C   0  0  0  0  0  0  0  0  0  0  0  0
    5.4636   -5.6138    8.1797 O   0  0  0  0  0  0  0  0  0  0  0  0
    5.1298   -7.7971    7.1836 C   0  0  0  0  0  0  0  0  0  0  0  0
    4.4644   -8.1729    5.8315 C   0  0  1  0  0  0  0  0  0  0  0  0
    5.4020   -7.9556    4.5786 C   0  0  1  0  0  0  0  0  0  0  0  0
    2.3619   -4.0771    3.7917 H   0  0  0  0  0  0  0  0  0  0  0  0
    3.0516   -3.2317    2.3982 H   0  0  0  0  0  0  0  0  0  0  0  0
    4.0087   -3.4357    3.8737 H   0  0  0  0  0  0  0  0  0  0  0  0
    5.1395   -7.3820    2.5416 H   0  0  0  0  0  0  0  0  0  0  0  0
    3.0892   -8.0646    2.0216 H   0  0  0  0  0  0  0  0  0  0  0  0
    3.7113   -9.3787    2.8581 H   0  0  0  0  0  0  0  0  0  0  0  0
    2.0238   -7.4811    4.4581 H   0  0  0  0  0  0  0  0  0  0  0  0
   -1.3330   -7.7824    3.3783 H   0  0  0  0  0  0  0  0  0  0  0  0
   -0.3144   -7.5005    4.7755 H   0  0  0  0  0  0  0  0  0  0  0  0
   -0.9856   -9.0914    4.4164 H   0  0  0  0  0  0  0  0  0  0  0  0
   -0.3187   -7.4047    1.5618 H   0  0  0  0  0  0  0  0  0  0  0  0
    1.2674   -7.8477    1.0956 H   0  0  0  0  0  0  0  0  0  0  0  0
    1.0450   -6.5402    2.2707 H   0  0  0  0  0  0  0  0  0  0  0  0
   -0.2935  -10.0820    2.0015 H   0  0  0  0  0  0  0  0  0  0  0  0
    1.4452  -10.1191    1.8254 H   0  0  0  0  0  0  0  0  0  0  0  0
   -0.1562  -11.0758    4.2250 H   0  0  0  0  0  0  0  0  0  0  0  0
    0.7354  -12.0360    3.1021 H   0  0  0  0  0  0  0  0  0  0  0  0
    1.9076  -11.7089    5.2540 H   0  0  0  0  0  0  0  0  0  0  0  0
    2.8251  -11.2703    3.8431 H   0  0  0  0  0  0  0  0  0  0  0  0
    1.4611   -9.9266    7.1323 H   0  0  0  0  0  0  0  0  0  0  0  0
    0.2498   -9.6772    5.9736 H   0  0  0  0  0  0  0  0  0  0  0  0
    1.1925   -8.2957    6.5404 H   0  0  0  0  0  0  0  0  0  0  0  0
    3.4827   -9.6640    6.8935 H   0  0  0  0  0  0  0  0  0  0  0  0
    5.4367  -10.5006    6.5181 H   0  0  0  0  0  0  0  0  0  0  0  0
    3.5787  -11.9470    6.5655 H   0  0  0  0  0  0  0  0  0  0  0  0
    6.6276  -11.0637    4.8468 H   0  0  0  0  0  0  0  0  0  0  0  0
    6.2993  -11.7115    2.6556 H   0  0  0  0  0  0  0  0  0  0  0  0
    4.6577  -11.1623    2.5615 H   0  0  0  0  0  0  0  0  0  0  0  0
    5.0652  -12.5270    3.5755 H   0  0  0  0  0  0  0  0  0  0  0  0
    7.8158   -9.9451    2.9986 H   0  0  0  0  0  0  0  0  0  0  0  0
    9.0218   -7.8445    3.2870 H   0  0  0  0  0  0  0  0  0  0  0  0
    7.9848   -7.6184    1.8966 H   0  0  0  0  0  0  0  0  0  0  0  0
    8.1671   -5.8243    3.9552 H   0  0  0  0  0  0  0  0  0  0  0  0
    6.7423   -5.9569    2.9753 H   0  0  0  0  0  0  0  0  0  0  0  0
    7.2737   -7.4961    5.5274 H   0  0  0  0  0  0  0  0  0  0  0  0
    5.9947   -8.4226    7.4044 H   0  0  0  0  0  0  0  0  0  0  0  0
    4.4182   -7.9245    8.0015 H   0  0  0  0  0  0  0  0  0  0  0  0
    3.6792   -7.4194    5.7946 H   0  0  0  0  0  0  0  0  0  0  0  0
  1  2  1  0
  1 33  1  0
  1 34  1  0
  1 35  1  0
  2  3  2  0
  2  4  1  0
  4  5  1  0
  5 32  1  0
  5  6  1  0
  5 36  1  6
  6  7  1  0
  6 37  1  0
  6 38  1  0
  7 14  1  0
  7  8  1  0
  7 39  1  1
  8  9  1  0
  8 10  1  0
  8 11  1  0
  9 40  1  0
  9 41  1  0
  9 42  1  0
 10 43  1  0
 10 44  1  0
 10 45  1  0
 11 12  1  0
 11 46  1  0
 11 47  1  0
 12 13  1  0
 12 48  1  0
 12 49  1  0
 13 14  1  0
 13 50  1  0
 13 51  1  0
 14 15  1  1
 14 16  1  0
 15 52  1  0
 15 53  1  0
 15 54  1  0
 16 31  1  0
 16 17  1  0
 16 55  1  1
 17 18  1  0
 17 19  1  0
 17 56  1  1
 18 57  1  0
 19 20  1  0
 19 21  1  0
 19 58  1  1
 20 59  1  0
 20 60  1  0
 20 61  1  0
 32 21  1  6
 21 22  2  0
 22 23  1  0
 22 62  1  0
 23 24  1  0
 23 63  1  0
 23 64  1  0
 24 25  1  0
 24 65  1  0
 24 66  1  0
 25 32  1  0
 25 26  1  0
 25 67  1  1
 26 27  2  0
 26 28  1  0
 28 29  2  0
 28 30  1  0
 30 31  1  0
 30 68  1  0
 30 69  1  0
 31 32  1  0
 31 70  1  6
M  END
>  <i_m_ct_stereo_status>  (67) 
1

>  <s_m_source_file>  (67) 
/var/tmp/pbs.5076255.sched01/tmpi0kgw23q/0rwfjwt46.sdf

>  <i_m_source_file_index>  (67) 
35

>  <i_lp_mmshare_version>  (67) 
48012

>  <i_f3d_flags>  (67) 
0

>  <s_epik_input>  (67) 
W0NIM11DKD1PKU9bQ0BASF0xW0NIMl1bQ0BASF0oQyhbQ0gzXSkoW0NIM10pW0NIMl1bQ0gyXVtDSDJdMilbQ0BdMihbQ0gzXSlbQ0BASF0oW0NAQEhdKFtPSF0pW0NASF0zW0NIM10pW0NASF00W0NIMl1DKD1PKUMoPU8pW0NAQEhdNVtDSDJdW0NIMl1bQ0hdPUMzW0NAQF0xNDU=

>  <s_epik_cmdline>  (67) 
J2VwaWtfcHl0aG9uJywgJy1waHQnLCAnMi4wJywgJy1waCcsICc3LjAnLCAnLXRuJywgJzgnLCAnLW1hJywgJzIwMCcsICctaW1hZScsICc8aW5maWxlLm1hZT4nLCAnLW9tYWUnLCAnPG91dGZpbGUubWFlPic=

>  <r_lp_tautomer_probability>  (67) 
1

>  <r_epik_Ionization_Penalty>  (67) 
9.4373e-08

>  <r_epik_Ionization_Penalty_Charging>  (67) 
0

>  <r_epik_Ionization_Penalty_Neutral>  (67) 
9.4373e-08

>  <r_epik_State_Penalty>  (67) 
-0

>  <r_epik_Charging_Adjusted_Penalty>  (67) 
0

>  <i_epik_Tot_Q>  (67) 
0

>  <i_epik_Tot_abs_Q>  (67) 
0

>  <s_epik_Chemistry_Notes>  (67) 
This compound has an ester and may undergo hydrolysis at high or low pH.

>  <s_lp_Force_Field>  (67) 
OPLS3e

>  <r_lp_Energy>  (67) 
89.6667

>  <b_lp_Chiralities_Consistent>  (67) 
1

>  <s_lp_Variant>  (67) 
19:0-1

>  <s_i_glide_gridfile>  (67) 
pfpi4k_grid

>  <i_i_glide_lignum>  (67) 
35

>  <i_i_glide_rotatable_bonds>  (67) 
3

>  <r_i_docking_score>  (67) 
-2.07604

>  <r_i_glide_ligand_efficiency>  (67) 
-0.0648762

>  <r_i_glide_ligand_efficiency_sa>  (67) 
-0.205969

>  <r_i_glide_ligand_efficiency_ln>  (67) 
-0.464882

>  <r_i_glide_gscore>  (67) 
-2.07604

>  <r_i_glide_lipo>  (67) 
-0.241606

>  <r_i_glide_hbond>  (67) 
0

>  <r_i_glide_metal>  (67) 
-0

>  <r_i_glide_rewards>  (67) 
-0.391864

>  <r_i_glide_evdw>  (67) 
-25.4454

>  <r_i_glide_ecoul>  (67) 
-1.81546

>  <r_i_glide_erotb>  (67) 
0.102023

>  <r_i_glide_esite>  (67) 
0

>  <r_i_glide_emodel>  (67) 
-30.5121

>  <r_i_glide_energy>  (67) 
-27.2609

>  <r_i_glide_einternal>  (67) 
0.789438

>  <r_i_glide_intrahb_reward>  (67) 
-0

>  <i_i_glide_confnum>  (67) 
2

>  <i_i_glide_posenum>  (67) 
13

>  <r_i_glide_eff_state_penalty>  (67) 
0

>  <ligand_id>  (67) 
19

>  <original_smiles>  (67) 
CC(=O)OC1CC2C(C)(C)CCCC2(C)C2C(O)C(C)C3=CCCC4C(=O)C(=O)CC2C314

>  <smiles>  (67) 
[H]OC1([H])C([H])(C([H])([H])[H])C2=C([H])C([H])([H])C([H])([H])C3([H])C(=O)C(=O)C([H])([H])C4([H])C1([H])C1(C([H])([H])[H])C([H])([H])C([H])([H])C([H])([H])C(C([H])([H])[H])(C([H])([H])[H])C1([H])C([H])([H])C([H])(OC(=O)C([H])([H])[H])C234

$$$$
20:0:0
     RDKit          3D

 89 94  0  0  1  0  0  0  0  0999 V2000
    0.7357    0.4286    2.1034 C   0  0  0  0  0  0  0  0  0  0  0  0
    2.0336   -0.1813    2.6656 C   0  0  2  0  0  0  0  0  0  0  0  0
    3.1454   -0.0668    1.6057 C   0  0  0  0  0  0  0  0  0  0  0  0
    4.4890   -0.6476    2.0858 C   0  0  0  0  0  0  0  0  0  0  0  0
    4.4244   -2.1125    2.6128 C   0  0  2  0  0  0  0  0  0  0  0  0
    4.6664   -3.2137    1.4781 C   0  0  1  0  0  0  0  0  0  0  0  0
    3.7905   -2.9457    0.2203 C   0  0  0  0  0  0  0  0  0  0  0  0
    6.1616   -3.0503    1.0302 C   0  0  0  0  0  0  0  0  0  0  0  0
    6.6961   -4.1201    0.0738 C   0  0  0  0  0  0  0  0  0  0  0  0
    6.6145   -5.4862    0.7345 C   0  0  0  0  0  0  0  0  0  0  0  0
    5.1689   -5.8743    1.1428 C   0  0  1  0  0  0  0  0  0  0  0  0
    4.3609   -6.2404   -0.1514 C   0  0  0  0  0  0  0  0  0  0  0  0
    5.4141   -7.1350    2.0214 C   0  0  0  0  0  0  0  0  0  0  0  0
    5.7525   -7.0631    3.1927 O   0  0  0  0  0  0  0  0  0  0  0  0
    5.4319   -8.2917    1.3136 O   0  0  0  0  0  0  0  0  0  0  0  0
    5.8480   -9.5236    1.8802 C   0  0  0  0  0  0  0  0  0  0  0  0
    5.0639   -9.9577    3.1346 C   0  0  0  0  0  0  0  0  0  0  0  0
    3.6666  -10.3395    2.8456 N   0  0  0  0  0  0  0  0  0  0  0  0
    3.0821  -11.0945    3.9891 C   0  0  0  0  0  0  0  0  0  0  0  0
    1.6403  -11.5418    3.7050 C   0  0  0  0  0  0  0  0  0  0  0  0
    0.7396  -10.3465    3.3509 C   0  0  0  0  0  0  0  0  0  0  0  0
    1.3733   -9.5273    2.2174 C   0  0  0  0  0  0  0  0  0  0  0  0
    2.8249   -9.1418    2.5485 C   0  0  0  0  0  0  0  0  0  0  0  0
    4.5053   -4.6899    2.0115 C   0  0  2  0  0  0  0  0  0  0  0  0
    3.0441   -5.0104    2.4264 C   0  0  0  0  0  0  0  0  0  0  0  0
    2.6963   -4.7945    3.9106 C   0  0  1  0  0  0  0  0  0  0  0  0
    3.0736   -6.0001    4.7838 C   0  0  0  0  0  0  0  0  0  0  0  0
    3.2221   -3.4997    4.5473 C   0  0  2  0  0  0  0  0  0  0  0  0
    2.4212   -3.3925    5.7418 O   0  0  0  0  0  0  0  0  0  0  0  0
    2.1298   -2.0868    6.1846 C   0  0  2  0  0  0  0  0  0  0  0  0
    1.9293   -2.1967    7.7155 C   0  0  0  0  0  0  0  0  0  0  0  0
    0.8417   -1.5459    5.5192 C   0  0  0  0  0  0  0  0  0  0  0  0
    0.6859   -1.9384    4.0511 C   0  0  0  0  0  0  0  0  0  0  0  0
    1.9046   -1.6604    3.1405 C   0  0  2  0  0  0  0  0  0  0  0  0
    3.2656   -2.1877    3.7156 C   0  0  2  0  0  0  0  0  0  0  0  0
    3.7665   -1.1906    4.6246 O   0  0  0  0  0  0  0  0  0  0  0  0
    3.2126   -1.2048    6.0252 O   0  0  0  0  0  0  0  0  0  0  0  0
    0.2997   -0.2018    1.3293 H   0  0  0  0  0  0  0  0  0  0  0  0
    0.9247    1.4068    1.6611 H   0  0  0  0  0  0  0  0  0  0  0  0
   -0.0041    0.5783    2.8885 H   0  0  0  0  0  0  0  0  0  0  0  0
    2.3299    0.4409    3.5122 H   0  0  0  0  0  0  0  0  0  0  0  0
    2.8203   -0.5462    0.6863 H   0  0  0  0  0  0  0  0  0  0  0  0
    3.2983    0.9789    1.3405 H   0  0  0  0  0  0  0  0  0  0  0  0
    5.2189   -0.5215    1.2915 H   0  0  0  0  0  0  0  0  0  0  0  0
    4.8599    0.0057    2.8764 H   0  0  0  0  0  0  0  0  0  0  0  0
    5.3106   -2.2195    3.2357 H   0  0  0  0  0  0  0  0  0  0  0  0
    3.8485   -3.7410   -0.5104 H   0  0  0  0  0  0  0  0  0  0  0  0
    4.1264   -2.0534   -0.3053 H   0  0  0  0  0  0  0  0  0  0  0  0
    2.7361   -2.8147    0.4442 H   0  0  0  0  0  0  0  0  0  0  0  0
    6.3303   -2.0942    0.5414 H   0  0  0  0  0  0  0  0  0  0  0  0
    6.8104   -3.0550    1.9087 H   0  0  0  0  0  0  0  0  0  0  0  0
    6.1583   -4.0927   -0.8740 H   0  0  0  0  0  0  0  0  0  0  0  0
    7.7396   -3.9041   -0.1650 H   0  0  0  0  0  0  0  0  0  0  0  0
    7.0519   -6.2374    0.0743 H   0  0  0  0  0  0  0  0  0  0  0  0
    7.2588   -5.4549    1.6175 H   0  0  0  0  0  0  0  0  0  0  0  0
    4.5981   -5.6005   -0.9973 H   0  0  0  0  0  0  0  0  0  0  0  0
    3.2863   -6.1815   -0.0010 H   0  0  0  0  0  0  0  0  0  0  0  0
    4.5583   -7.2383   -0.5479 H   0  0  0  0  0  0  0  0  0  0  0  0
    5.7109  -10.2849    1.1131 H   0  0  0  0  0  0  0  0  0  0  0  0
    6.9175   -9.5096    2.1093 H   0  0  0  0  0  0  0  0  0  0  0  0
    5.5845  -10.8225    3.5441 H   0  0  0  0  0  0  0  0  0  0  0  0
    5.0983   -9.1973    3.9204 H   0  0  0  0  0  0  0  0  0  0  0  0
    3.6906  -11.9676    4.2234 H   0  0  0  0  0  0  0  0  0  0  0  0
    3.0914  -10.4764    4.8844 H   0  0  0  0  0  0  0  0  0  0  0  0
    1.6601  -12.2580    2.8811 H   0  0  0  0  0  0  0  0  0  0  0  0
    1.2358  -12.0871    4.5682 H   0  0  0  0  0  0  0  0  0  0  0  0
   -0.2543  -10.6831    3.0600 H   0  0  0  0  0  0  0  0  0  0  0  0
    0.6022   -9.7232    4.2302 H   0  0  0  0  0  0  0  0  0  0  0  0
    1.3452  -10.0845    1.2864 H   0  0  0  0  0  0  0  0  0  0  0  0
    0.7753   -8.6296    2.0498 H   0  0  0  0  0  0  0  0  0  0  0  0
    2.8128   -8.5448    3.4243 H   0  0  0  0  0  0  0  0  0  0  0  0
    3.2248   -8.5538    1.7171 H   0  0  0  0  0  0  0  0  0  0  0  0
    5.0814   -4.6848    2.9361 H   0  0  0  0  0  0  0  0  0  0  0  0
    2.3502   -4.4236    1.8306 H   0  0  0  0  0  0  0  0  0  0  0  0
    2.7836   -6.0339    2.1739 H   0  0  0  0  0  0  0  0  0  0  0  0
    1.6112   -4.7737    3.9461 H   0  0  0  0  0  0  0  0  0  0  0  0
    4.1572   -6.1128    4.8406 H   0  0  0  0  0  0  0  0  0  0  0  0
    2.6130   -6.8720    4.3953 H   0  0  0  0  0  0  0  0  0  0  0  0
    2.7344   -5.8698    5.8203 H   0  0  0  0  0  0  0  0  0  0  0  0
    4.2415   -3.6716    4.9001 H   0  0  0  0  0  0  0  0  0  0  0  0
    2.8436   -2.5513    8.1883 H   0  0  0  0  0  0  0  0  0  0  0  0
    1.1324   -2.8909    7.9786 H   0  0  0  0  0  0  0  0  0  0  0  0
    1.6881   -1.2295    8.1445 H   0  0  0  0  0  0  0  0  0  0  0  0
   -0.0255   -1.9428    6.0441 H   0  0  0  0  0  0  0  0  0  0  0  0
    0.8009   -0.4675    5.6426 H   0  0  0  0  0  0  0  0  0  0  0  0
    0.4527   -2.9956    4.0097 H   0  0  0  0  0  0  0  0  0  0  0  0
   -0.2108   -1.4708    3.6580 H   0  0  0  0  0  0  0  0  0  0  0  0
    1.6887   -2.2427    2.2502 H   0  0  0  0  0  0  0  0  0  0  0  0
    3.6544  -10.9638    2.0429 H   0  0  0  0  0  0  0  0  0  0  0  0
  1  2  1  0
  1 38  1  0
  1 39  1  0
  1 40  1  0
  2 34  1  0
  2  3  1  0
  2 41  1  1
  3  4  1  0
  3 42  1  0
  3 43  1  0
  4  5  1  0
  4 44  1  0
  4 45  1  0
  5 35  1  0
  5  6  1  0
  5 46  1  1
  6 24  1  0
  6  7  1  6
  6  8  1  0
  7 47  1  0
  7 48  1  0
  7 49  1  0
  8  9  1  0
  8 50  1  0
  8 51  1  0
  9 10  1  0
  9 52  1  0
  9 53  1  0
 10 11  1  0
 10 54  1  0
 10 55  1  0
 11 12  1  6
 11 13  1  0
 11 24  1  0
 12 56  1  0
 12 57  1  0
 12 58  1  0
 13 14  2  0
 13 15  1  0
 15 16  1  0
 16 17  1  0
 16 59  1  0
 16 60  1  0
 17 18  1  0
 17 61  1  0
 17 62  1  0
 18 23  1  0
 18 19  1  0
 18 89  1  0
 19 20  1  0
 19 63  1  0
 19 64  1  0
 20 21  1  0
 20 65  1  0
 20 66  1  0
 21 22  1  0
 21 67  1  0
 21 68  1  0
 22 23  1  0
 22 69  1  0
 22 70  1  0
 23 71  1  0
 23 72  1  0
 24 25  1  0
 24 73  1  1
 25 26  1  0
 25 74  1  0
 25 75  1  0
 26 27  1  0
 26 28  1  0
 26 76  1  6
 27 77  1  0
 27 78  1  0
 27 79  1  0
 28 35  1  0
 28 29  1  0
 28 80  1  1
 29 30  1  0
 30 37  1  0
 30 31  1  1
 30 32  1  0
 31 81  1  0
 31 82  1  0
 31 83  1  0
 32 33  1  0
 32 84  1  0
 32 85  1  0
 33 34  1  0
 33 86  1  0
 33 87  1  0
 34 35  1  0
 34 88  1  6
 35 36  1  1
 36 37  1  0
M  CHG  1  18   1
M  END
>  <i_m_ct_stereo_status>  (68) 
1

>  <s_m_source_file>  (68) 
/var/tmp/pbs.5076255.sched01/tmpi0kgw23q/0rwfjwt46.sdf

>  <i_m_source_file_index>  (68) 
36

>  <i_lp_mmshare_version>  (68) 
48012

>  <i_f3d_flags>  (68) 
0

>  <s_epik_input>  (68) 
W0NIMl0xW0NIMl1bQ0BASF0oW0NIM10pW0NAQEhdMltDSDJdW0NIMl1bQ0BdKFtDSDNdKShPTzMpT1tDQEhdNFtDQEhdKFtDSDNdKVtDSDJdW0NASF0oW0NAXTUoW0NAQEhdMVtDQF0yMzQpW0NIM10pW0NAQF0oW0NIM10pKFtDSDJdW0NIMl1bQ0gyXTUpQyg9TylPW0NIMl1bQ0gyXU42W0NIMl1bQ0gyXVtDSDJdW0NIMl1bQ0gyXTY=

>  <s_epik_cmdline>  (68) 
J2VwaWtfcHl0aG9uJywgJy1waHQnLCAnMi4wJywgJy1waCcsICc3LjAnLCAnLXRuJywgJzgnLCAnLW1hJywgJzIwMCcsICctaW1hZScsICc8aW5maWxlLm1hZT4nLCAnLW9tYWUnLCAnPG91dGZpbGUubWFlPic=

>  <r_epik_Ionization_Penalty>  (68) 
0.0103969

>  <r_epik_Ionization_Penalty_Charging>  (68) 
0.0103969

>  <r_epik_Ionization_Penalty_Neutral>  (68) 
3.039e-14

>  <r_epik_State_Penalty>  (68) 
0.00794843

>  <r_epik_Charging_Adjusted_Penalty>  (68) 
0.0183453

>  <i_epik_Tot_Q>  (68) 
1

>  <i_epik_Tot_abs_Q>  (68) 
1

>  <s_epik_Chemistry_Notes>  (68) 
This compound has an ester and may undergo hydrolysis at high or low pH.

>  <s_lp_Force_Field>  (68) 
OPLS3e

>  <r_lp_Energy>  (68) 
97.8797

>  <b_lp_Chiralities_Consistent>  (68) 
1

>  <s_lp_Variant>  (68) 
20:0-1

>  <s_i_glide_gridfile>  (68) 
pfpi4k_grid

>  <i_i_glide_lignum>  (68) 
36

>  <i_i_glide_rotatable_bonds>  (68) 
5

>  <r_i_docking_score>  (68) 
-2.52492

>  <r_i_glide_ligand_efficiency>  (68) 
-0.0682412

>  <r_i_glide_ligand_efficiency_sa>  (68) 
-0.227395

>  <r_i_glide_ligand_efficiency_ln>  (68) 
-0.547597

>  <r_i_glide_gscore>  (68) 
-2.52492

>  <r_i_glide_lipo>  (68) 
-0.73039

>  <r_i_glide_hbond>  (68) 
-0.153204

>  <r_i_glide_metal>  (68) 
-0

>  <r_i_glide_rewards>  (68) 
-0.0535612

>  <r_i_glide_evdw>  (68) 
-25.0216

>  <r_i_glide_ecoul>  (68) 
-3.93486

>  <r_i_glide_erotb>  (68) 
0.30532

>  <r_i_glide_esite>  (68) 
-0.0517801

>  <r_i_glide_emodel>  (68) 
-31.4837

>  <r_i_glide_energy>  (68) 
-28.9564

>  <r_i_glide_einternal>  (68) 
4.53498

>  <r_i_glide_intrahb_reward>  (68) 
-0

>  <i_i_glide_confnum>  (68) 
2

>  <i_i_glide_posenum>  (68) 
23

>  <r_i_glide_eff_state_penalty>  (68) 
0

>  <ligand_id>  (68) 
20

>  <original_smiles>  (68) 
CC1CCC2C3(C)CCCC(C)(C(=O)OCCN4CCCCC4)C3CC(C)C3OC4(C)CCC1C32OO4

>  <smiles>  (68) 
[H]C([H])([H])C12OOC34C([H])(O1)C([H])(C([H])([H])[H])C([H])([H])C1([H])C(C(=O)OC([H])([H])C([H])([H])[N+]5([H])C([H])([H])C([H])([H])C([H])([H])C([H])([H])C5([H])[H])(C([H])([H])[H])C([H])([H])C([H])([H])C([H])([H])C1(C([H])([H])[H])C3([H])C([H])([H])C([H])([H])C([H])(C([H])([H])[H])C4([H])C([H])([H])C2([H])[H]

$$$$
20:0:1
     RDKit          3D

 89 94  0  0  1  0  0  0  0  0999 V2000
    2.3322   -6.1614    0.9260 C   0  0  0  0  0  0  0  0  0  0  0  0
    3.0028   -5.2735    1.9833 C   0  0  2  0  0  0  0  0  0  0  0  0
    2.5205   -5.7015    3.3797 C   0  0  0  0  0  0  0  0  0  0  0  0
    3.1357   -4.8656    4.5067 C   0  0  0  0  0  0  0  0  0  0  0  0
    2.9677   -3.3225    4.3528 C   0  0  2  0  0  0  0  0  0  0  0  0
    1.6394   -2.7441    5.0408 C   0  0  1  0  0  0  0  0  0  0  0  0
    0.3958   -3.5671    4.6436 C   0  0  0  0  0  0  0  0  0  0  0  0
    1.8339   -2.9420    6.5851 C   0  0  0  0  0  0  0  0  0  0  0  0
    0.7629   -2.3043    7.4696 C   0  0  0  0  0  0  0  0  0  0  0  0
    0.7422   -0.7974    7.2540 C   0  0  0  0  0  0  0  0  0  0  0  0
    0.4446   -0.4115    5.7887 C   0  0  1  0  0  0  0  0  0  0  0  0
   -1.0728   -0.6430    5.4800 C   0  0  0  0  0  0  0  0  0  0  0  0
    0.7522    1.1230    5.7991 C   0  0  0  0  0  0  0  0  0  0  0  0
    1.8215    1.5708    5.4107 O   0  0  0  0  0  0  0  0  0  0  0  0
   -0.1849    1.8474    6.4708 O   0  0  0  0  0  0  0  0  0  0  0  0
    0.0641    3.2231    6.7282 C   0  0  0  0  0  0  0  0  0  0  0  0
   -0.0869    4.1283    5.4828 C   0  0  0  0  0  0  0  0  0  0  0  0
    1.2172    4.4043    4.8147 N   0  0  0  0  0  0  0  0  0  0  0  0
    1.0532    4.8184    3.4053 C   0  0  0  0  0  0  0  0  0  0  0  0
    2.4090    4.9356    2.6897 C   0  0  0  0  0  0  0  0  0  0  0  0
    3.3331    5.9222    3.4147 C   0  0  0  0  0  0  0  0  0  0  0  0
    3.4845    5.5053    4.8846 C   0  0  0  0  0  0  0  0  0  0  0  0
    2.0984    5.3576    5.5487 C   0  0  0  0  0  0  0  0  0  0  0  0
    1.4423   -1.1887    4.7972 C   0  0  2  0  0  0  0  0  0  0  0  0
    1.1712   -0.8724    3.2990 C   0  0  0  0  0  0  0  0  0  0  0  0
    2.3979   -0.5003    2.4470 C   0  0  1  0  0  0  0  0  0  0  0  0
    2.7844    0.9838    2.5722 C   0  0  0  0  0  0  0  0  0  0  0  0
    3.6515   -1.3752    2.6574 C   0  0  2  0  0  0  0  0  0  0  0  0
    4.4473   -1.0744    1.5122 O   0  0  0  0  0  0  0  0  0  0  0  0
    5.2499   -2.1194    0.9942 C   0  0  2  0  0  0  0  0  0  0  0  0
    6.4293   -1.4415    0.3039 C   0  0  0  0  0  0  0  0  0  0  0  0
    4.4776   -2.9903   -0.0113 C   0  0  0  0  0  0  0  0  0  0  0  0
    3.0204   -3.2352    0.3559 C   0  0  0  0  0  0  0  0  0  0  0  0
    2.7749   -3.7428    1.7937 C   0  0  2  0  0  0  0  0  0  0  0  0
    3.4865   -2.9108    2.9105 C   0  0  2  0  0  0  0  0  0  0  0  0
    4.8285   -3.4178    3.0084 O   0  0  0  0  0  0  0  0  0  0  0  0
    5.8215   -2.8977    2.0245 O   0  0  0  0  0  0  0  0  0  0  0  0
    1.2730   -5.9332    0.8134 H   0  0  0  0  0  0  0  0  0  0  0  0
    2.4175   -7.2120    1.1972 H   0  0  0  0  0  0  0  0  0  0  0  0
    2.8189   -6.0450   -0.0390 H   0  0  0  0  0  0  0  0  0  0  0  0
    4.0753   -5.4834    1.9361 H   0  0  0  0  0  0  0  0  0  0  0  0
    1.4312   -5.6620    3.4209 H   0  0  0  0  0  0  0  0  0  0  0  0
    2.7710   -6.7477    3.5535 H   0  0  0  0  0  0  0  0  0  0  0  0
    2.7477   -5.2277    5.4464 H   0  0  0  0  0  0  0  0  0  0  0  0
    4.1995   -5.1085    4.5505 H   0  0  0  0  0  0  0  0  0  0  0  0
    3.7480   -2.9045    4.9769 H   0  0  0  0  0  0  0  0  0  0  0  0
   -0.5263   -3.1289    4.9889 H   0  0  0  0  0  0  0  0  0  0  0  0
    0.4253   -4.5650    5.0789 H   0  0  0  0  0  0  0  0  0  0  0  0
    0.2963   -3.6844    3.5679 H   0  0  0  0  0  0  0  0  0  0  0  0
    1.8457   -3.9967    6.8513 H   0  0  0  0  0  0  0  0  0  0  0  0
    2.8005   -2.5433    6.9052 H   0  0  0  0  0  0  0  0  0  0  0  0
   -0.2094   -2.7595    7.2880 H   0  0  0  0  0  0  0  0  0  0  0  0
    0.9966   -2.5036    8.5167 H   0  0  0  0  0  0  0  0  0  0  0  0
    0.0257   -0.3390    7.9360 H   0  0  0  0  0  0  0  0  0  0  0  0
    1.7178   -0.3954    7.5359 H   0  0  0  0  0  0  0  0  0  0  0  0
   -1.4529   -1.5391    5.9671 H   0  0  0  0  0  0  0  0  0  0  0  0
   -1.2775   -0.7431    4.4137 H   0  0  0  0  0  0  0  0  0  0  0  0
   -1.7430    0.1384    5.8389 H   0  0  0  0  0  0  0  0  0  0  0  0
   -0.6582    3.5402    7.4808 H   0  0  0  0  0  0  0  0  0  0  0  0
    1.0531    3.3167    7.1715 H   0  0  0  0  0  0  0  0  0  0  0  0
   -0.8227    3.6861    4.7996 H   0  0  0  0  0  0  0  0  0  0  0  0
   -0.5185    5.0790    5.7957 H   0  0  0  0  0  0  0  0  0  0  0  0
    0.4464    4.0589    2.9157 H   0  0  0  0  0  0  0  0  0  0  0  0
    0.5191    5.7660    3.3307 H   0  0  0  0  0  0  0  0  0  0  0  0
    2.8889    3.9591    2.5876 H   0  0  0  0  0  0  0  0  0  0  0  0
    2.2398    5.3013    1.6820 H   0  0  0  0  0  0  0  0  0  0  0  0
    4.3004    5.9680    2.9090 H   0  0  0  0  0  0  0  0  0  0  0  0
    2.9058    6.9204    3.3591 H   0  0  0  0  0  0  0  0  0  0  0  0
    4.0296    4.5617    4.9469 H   0  0  0  0  0  0  0  0  0  0  0  0
    4.0843    6.2438    5.4189 H   0  0  0  0  0  0  0  0  0  0  0  0
    1.6248    6.3408    5.5963 H   0  0  0  0  0  0  0  0  0  0  0  0
    2.2603    5.0411    6.5833 H   0  0  0  0  0  0  0  0  0  0  0  0
    2.4233   -0.7723    5.0220 H   0  0  0  0  0  0  0  0  0  0  0  0
    0.6823   -1.7109    2.8173 H   0  0  0  0  0  0  0  0  0  0  0  0
    0.4513   -0.0647    3.2017 H   0  0  0  0  0  0  0  0  0  0  0  0
    2.0683   -0.6132    1.4114 H   0  0  0  0  0  0  0  0  0  0  0  0
    3.2835    1.1729    3.5287 H   0  0  0  0  0  0  0  0  0  0  0  0
    1.9066    1.6209    2.5031 H   0  0  0  0  0  0  0  0  0  0  0  0
    3.4641    1.2933    1.7667 H   0  0  0  0  0  0  0  0  0  0  0  0
    4.2171   -0.9899    3.5145 H   0  0  0  0  0  0  0  0  0  0  0  0
    7.0025   -0.8516    1.0144 H   0  0  0  0  0  0  0  0  0  0  0  0
    6.1052   -0.7660   -0.4956 H   0  0  0  0  0  0  0  0  0  0  0  0
    7.1067   -2.1766   -0.1316 H   0  0  0  0  0  0  0  0  0  0  0  0
    4.4744   -2.4944   -0.9895 H   0  0  0  0  0  0  0  0  0  0  0  0
    5.0097   -3.9290   -0.1611 H   0  0  0  0  0  0  0  0  0  0  0  0
    2.4879   -2.2972    0.2175 H   0  0  0  0  0  0  0  0  0  0  0  0
    2.5646   -3.8903   -0.3855 H   0  0  0  0  0  0  0  0  0  0  0  0
    1.7144   -3.5800    1.9429 H   0  0  0  0  0  0  0  0  0  0  0  0
    1.7096    3.5140    4.7658 H   0  0  0  0  0  0  0  0  0  0  0  0
  1  2  1  0
  1 38  1  0
  1 39  1  0
  1 40  1  0
  2 34  1  0
  2  3  1  0
  2 41  1  1
  3  4  1  0
  3 42  1  0
  3 43  1  0
  4  5  1  0
  4 44  1  0
  4 45  1  0
  5 35  1  0
  5  6  1  0
  5 46  1  1
  6 24  1  0
  6  7  1  6
  6  8  1  0
  7 47  1  0
  7 48  1  0
  7 49  1  0
  8  9  1  0
  8 50  1  0
  8 51  1  0
  9 10  1  0
  9 52  1  0
  9 53  1  0
 10 11  1  0
 10 54  1  0
 10 55  1  0
 11 12  1  6
 11 13  1  0
 11 24  1  0
 12 56  1  0
 12 57  1  0
 12 58  1  0
 13 14  2  0
 13 15  1  0
 15 16  1  0
 16 17  1  0
 16 59  1  0
 16 60  1  0
 17 18  1  0
 17 61  1  0
 17 62  1  0
 18 23  1  0
 18 19  1  0
 18 89  1  0
 19 20  1  0
 19 63  1  0
 19 64  1  0
 20 21  1  0
 20 65  1  0
 20 66  1  0
 21 22  1  0
 21 67  1  0
 21 68  1  0
 22 23  1  0
 22 69  1  0
 22 70  1  0
 23 71  1  0
 23 72  1  0
 24 25  1  0
 24 73  1  1
 25 26  1  0
 25 74  1  0
 25 75  1  0
 26 27  1  0
 26 28  1  0
 26 76  1  6
 27 77  1  0
 27 78  1  0
 27 79  1  0
 28 35  1  0
 28 29  1  0
 28 80  1  1
 29 30  1  0
 30 37  1  0
 30 31  1  6
 30 32  1  0
 31 81  1  0
 31 82  1  0
 31 83  1  0
 32 33  1  0
 32 84  1  0
 32 85  1  0
 33 34  1  0
 33 86  1  0
 33 87  1  0
 34 35  1  0
 34 88  1  1
 35 36  1  1
 36 37  1  0
M  CHG  1  18   1
M  END
>  <i_m_ct_stereo_status>  (69) 
1

>  <s_m_source_file>  (69) 
/var/tmp/pbs.5076255.sched01/tmpi0kgw23q/0rwfjwt46.sdf

>  <i_m_source_file_index>  (69) 
36

>  <i_lp_mmshare_version>  (69) 
48012

>  <i_f3d_flags>  (69) 
0

>  <s_epik_input>  (69) 
W0NIMl0xW0NIMl1bQ0BASF0oW0NIM10pW0NAQEhdMltDSDJdW0NIMl1bQ0BdKFtDSDNdKShPTzMpT1tDQEhdNFtDQEhdKFtDSDNdKVtDSDJdW0NASF0oW0NAXTUoW0NAQEhdMVtDQF0yMzQpW0NIM10pW0NAQF0oW0NIM10pKFtDSDJdW0NIMl1bQ0gyXTUpQyg9TylPW0NIMl1bQ0gyXU42W0NIMl1bQ0gyXVtDSDJdW0NIMl1bQ0gyXTY=

>  <s_epik_cmdline>  (69) 
J2VwaWtfcHl0aG9uJywgJy1waHQnLCAnMi4wJywgJy1waCcsICc3LjAnLCAnLXRuJywgJzgnLCAnLW1hJywgJzIwMCcsICctaW1hZScsICc8aW5maWxlLm1hZT4nLCAnLW9tYWUnLCAnPG91dGZpbGUubWFlPic=

>  <r_epik_Ionization_Penalty>  (69) 
0.0103969

>  <r_epik_Ionization_Penalty_Charging>  (69) 
0.0103969

>  <r_epik_Ionization_Penalty_Neutral>  (69) 
3.039e-14

>  <r_epik_State_Penalty>  (69) 
0.00794843

>  <r_epik_Charging_Adjusted_Penalty>  (69) 
0.0183453

>  <i_epik_Tot_Q>  (69) 
1

>  <i_epik_Tot_abs_Q>  (69) 
1

>  <s_epik_Chemistry_Notes>  (69) 
This compound has an ester and may undergo hydrolysis at high or low pH.

>  <s_lp_Force_Field>  (69) 
OPLS3e

>  <r_lp_Energy>  (69) 
97.8797

>  <b_lp_Chiralities_Consistent>  (69) 
1

>  <s_lp_Variant>  (69) 
20:0-1

>  <s_i_glide_gridfile>  (69) 
pfpi4k_grid

>  <i_i_glide_lignum>  (69) 
36

>  <i_i_glide_rotatable_bonds>  (69) 
5

>  <r_i_docking_score>  (69) 
-1.95782

>  <r_i_glide_ligand_efficiency>  (69) 
-0.0529142

>  <r_i_glide_ligand_efficiency_sa>  (69) 
-0.176322

>  <r_i_glide_ligand_efficiency_ln>  (69) 
-0.424606

>  <r_i_glide_gscore>  (69) 
-1.95782

>  <r_i_glide_lipo>  (69) 
-0.134838

>  <r_i_glide_hbond>  (69) 
0

>  <r_i_glide_metal>  (69) 
-0

>  <r_i_glide_rewards>  (69) 
-0.574266

>  <r_i_glide_evdw>  (69) 
-23.8894

>  <r_i_glide_ecoul>  (69) 
-2.27311

>  <r_i_glide_erotb>  (69) 
0.30532

>  <r_i_glide_esite>  (69) 
-0.018604

>  <r_i_glide_emodel>  (69) 
-33.3433

>  <r_i_glide_energy>  (69) 
-26.1625

>  <r_i_glide_einternal>  (69) 
3.41565

>  <r_i_glide_intrahb_reward>  (69) 
-0.5

>  <i_i_glide_confnum>  (69) 
2

>  <i_i_glide_posenum>  (69) 
4

>  <r_i_glide_eff_state_penalty>  (69) 
0

>  <ligand_id>  (69) 
20

>  <original_smiles>  (69) 
CC1CCC2C3(C)CCCC(C)(C(=O)OCCN4CCCCC4)C3CC(C)C3OC4(C)CCC1C32OO4

>  <smiles>  (69) 
[H]C([H])([H])C12OOC34C([H])(O1)C([H])(C([H])([H])[H])C([H])([H])C1([H])C(C(=O)OC([H])([H])C([H])([H])[N+]5([H])C([H])([H])C([H])([H])C([H])([H])C([H])([H])C5([H])[H])(C([H])([H])[H])C([H])([H])C([H])([H])C([H])([H])C1(C([H])([H])[H])C3([H])C([H])([H])C([H])([H])C([H])(C([H])([H])[H])C4([H])C([H])([H])C2([H])[H]

$$$$
20:0:2
     RDKit          3D

 89 94  0  0  1  0  0  0  0  0999 V2000
   -0.7762    0.0778    5.1838 C   0  0  0  0  0  0  0  0  0  0  0  0
    0.5620   -0.6357    5.4488 C   0  0  2  0  0  0  0  0  0  0  0  0
    1.6167   -0.1297    4.4521 C   0  0  0  0  0  0  0  0  0  0  0  0
    2.9911   -0.7834    4.6536 C   0  0  0  0  0  0  0  0  0  0  0  0
    2.9741   -2.3493    4.6466 C   0  0  2  0  0  0  0  0  0  0  0  0
    3.1925   -2.9871    3.1890 C   0  0  1  0  0  0  0  0  0  0  0  0
    2.2541   -2.3351    2.1334 C   0  0  0  0  0  0  0  0  0  0  0  0
    4.6612   -2.6343    2.7721 C   0  0  0  0  0  0  0  0  0  0  0  0
    5.1607   -3.2954    1.4865 C   0  0  0  0  0  0  0  0  0  0  0  0
    5.1394   -4.8154    1.6431 C   0  0  0  0  0  0  0  0  0  0  0  0
    3.7269   -5.3703    1.9420 C   0  0  1  0  0  0  0  0  0  0  0  0
    2.8663   -5.2945    0.6319 C   0  0  0  0  0  0  0  0  0  0  0  0
    3.9849   -6.8697    2.2742 C   0  0  0  0  0  0  0  0  0  0  0  0
    4.1203   -7.2770    3.4357 O   0  0  0  0  0  0  0  0  0  0  0  0
    4.1799   -7.6686    1.2032 O   0  0  0  0  0  0  0  0  0  0  0  0
    4.1809   -9.0763    1.3637 C   0  0  0  0  0  0  0  0  0  0  0  0
    2.7266   -9.5826    1.4546 C   0  0  0  0  0  0  0  0  0  0  0  0
    2.1924   -9.6226    2.8357 N   0  0  0  0  0  0  0  0  0  0  0  0
    0.7015   -9.5778    2.8445 C   0  0  0  0  0  0  0  0  0  0  0  0
    0.1083   -9.5184    4.2820 C   0  0  0  0  0  0  0  0  0  0  0  0
    0.6861  -10.6871    5.1268 C   0  0  0  0  0  0  0  0  0  0  0  0
    2.2322  -10.7369    5.0481 C   0  0  0  0  0  0  0  0  0  0  0  0
    2.7123  -10.7917    3.5916 C   0  0  0  0  0  0  0  0  0  0  0  0
    3.0870   -4.5705    3.1805 C   0  0  2  0  0  0  0  0  0  0  0  0
    1.6414   -5.0253    3.5188 C   0  0  0  0  0  0  0  0  0  0  0  0
    1.3740   -5.3682    4.9864 C   0  0  1  0  0  0  0  0  0  0  0  0
    1.9209   -6.7650    5.3212 C   0  0  0  0  0  0  0  0  0  0  0  0
    1.8937   -4.3604    6.0310 C   0  0  2  0  0  0  0  0  0  0  0  0
    1.1567   -4.6950    7.2085 O   0  0  0  0  0  0  0  0  0  0  0  0
    0.8479   -3.6416    8.0962 C   0  0  2  0  0  0  0  0  0  0  0  0
    0.7343   -4.2756    9.4992 C   0  0  0  0  0  0  0  0  0  0  0  0
   -0.4675   -2.9553    7.7044 C   0  0  0  0  0  0  0  0  0  0  0  0
   -0.6837   -2.8065    6.1959 C   0  0  0  0  0  0  0  0  0  0  0  0
    0.4854   -2.1910    5.3960 C   0  0  2  0  0  0  0  0  0  0  0  0
    1.8810   -2.8366    5.6925 C   0  0  2  0  0  0  0  0  0  0  0  0
    2.4226   -2.2014    6.8768 O   0  0  0  0  0  0  0  0  0  0  0  0
    1.8980   -2.7057    8.2177 O   0  0  0  0  0  0  0  0  0  0  0  0
   -1.2439   -0.2608    4.2577 H   0  0  0  0  0  0  0  0  0  0  0  0
   -0.6291    1.1554    5.1032 H   0  0  0  0  0  0  0  0  0  0  0  0
   -1.4783   -0.0736    6.0019 H   0  0  0  0  0  0  0  0  0  0  0  0
    0.8878   -0.3372    6.4450 H   0  0  0  0  0  0  0  0  0  0  0  0
    1.2657   -0.2717    3.4336 H   0  0  0  0  0  0  0  0  0  0  0  0
    1.7369    0.9460    4.5559 H   0  0  0  0  0  0  0  0  0  0  0  0
    3.6852   -0.3786    3.9269 H   0  0  0  0  0  0  0  0  0  0  0  0
    3.3909   -0.4366    5.6073 H   0  0  0  0  0  0  0  0  0  0  0  0
    3.8967   -2.6301    5.1543 H   0  0  0  0  0  0  0  0  0  0  0  0
    2.2893   -2.8282    1.1725 H   0  0  0  0  0  0  0  0  0  0  0  0
    2.5444   -1.3055    1.9272 H   0  0  0  0  0  0  0  0  0  0  0  0
    1.2090   -2.3191    2.4297 H   0  0  0  0  0  0  0  0  0  0  0  0
    4.7900   -1.5667    2.6273 H   0  0  0  0  0  0  0  0  0  0  0  0
    5.3580   -2.9123    3.5640 H   0  0  0  0  0  0  0  0  0  0  0  0
    4.5826   -2.9659    0.6210 H   0  0  0  0  0  0  0  0  0  0  0  0
    6.1866   -2.9815    1.2923 H   0  0  0  0  0  0  0  0  0  0  0  0
    5.5502   -5.2819    0.7431 H   0  0  0  0  0  0  0  0  0  0  0  0
    5.8186   -5.0806    2.4596 H   0  0  0  0  0  0  0  0  0  0  0  0
    3.0738   -4.4086    0.0426 H   0  0  0  0  0  0  0  0  0  0  0  0
    1.7969   -5.3256    0.8242 H   0  0  0  0  0  0  0  0  0  0  0  0
    3.0591   -6.0848   -0.0921 H   0  0  0  0  0  0  0  0  0  0  0  0
    4.6470   -9.4901    0.4736 H   0  0  0  0  0  0  0  0  0  0  0  0
    4.7894   -9.3944    2.2106 H   0  0  0  0  0  0  0  0  0  0  0  0
    2.0940   -8.9672    0.8177 H   0  0  0  0  0  0  0  0  0  0  0  0
    2.6600  -10.5857    1.0607 H   0  0  0  0  0  0  0  0  0  0  0  0
    0.3664   -8.7061    2.2913 H   0  0  0  0  0  0  0  0  0  0  0  0
    0.3460  -10.4466    2.2953 H   0  0  0  0  0  0  0  0  0  0  0  0
    0.2796   -8.6096    4.8140 H   0  0  0  0  0  0  0  0  0  0  0  0
   -0.9883   -9.6075    4.1717 H   0  0  0  0  0  0  0  0  0  0  0  0
    0.3985  -10.5385    6.1610 H   0  0  0  0  0  0  0  0  0  0  0  0
    0.2840  -11.6551    4.8145 H   0  0  0  0  0  0  0  0  0  0  0  0
    2.6836   -9.8629    5.5361 H   0  0  0  0  0  0  0  0  0  0  0  0
    2.6162  -11.6065    5.5889 H   0  0  0  0  0  0  0  0  0  0  0  0
    2.3672  -11.7173    3.1266 H   0  0  0  0  0  0  0  0  0  0  0  0
    3.8071  -10.8276    3.5648 H   0  0  0  0  0  0  0  0  0  0  0  0
    3.6993   -4.8687    4.0332 H   0  0  0  0  0  0  0  0  0  0  0  0
    0.9044   -4.2941    3.1895 H   0  0  0  0  0  0  0  0  0  0  0  0
    1.3757   -5.9038    2.9271 H   0  0  0  0  0  0  0  0  0  0  0  0
    0.2903   -5.4289    5.0826 H   0  0  0  0  0  0  0  0  0  0  0  0
    3.0001   -6.7176    5.5393 H   0  0  0  0  0  0  0  0  0  0  0  0
    1.7261   -7.4035    4.4985 H   0  0  0  0  0  0  0  0  0  0  0  0
    1.4553   -7.1622    6.2252 H   0  0  0  0  0  0  0  0  0  0  0  0
    2.9318   -4.6029    6.2638 H   0  0  0  0  0  0  0  0  0  0  0  0
    1.6764   -4.7395    9.7952 H   0  0  0  0  0  0  0  0  0  0  0  0
   -0.0324   -5.0497    9.5549 H   0  0  0  0  0  0  0  0  0  0  0  0
    0.5017   -3.5307   10.2624 H   0  0  0  0  0  0  0  0  0  0  0  0
   -1.3069   -3.5352    8.0916 H   0  0  0  0  0  0  0  0  0  0  0  0
   -0.5069   -1.9845    8.1918 H   0  0  0  0  0  0  0  0  0  0  0  0
   -0.8931   -3.7993    5.8026 H   0  0  0  0  0  0  0  0  0  0  0  0
   -1.6116   -2.2680    6.0106 H   0  0  0  0  0  0  0  0  0  0  0  0
    0.2442   -2.4456    4.3711 H   0  0  0  0  0  0  0  0  0  0  0  0
    2.5419   -8.7919    3.2977 H   0  0  0  0  0  0  0  0  0  0  0  0
  1  2  1  0
  1 38  1  0
  1 39  1  0
  1 40  1  0
  2 34  1  0
  2  3  1  0
  2 41  1  1
  3  4  1  0
  3 42  1  0
  3 43  1  0
  4  5  1  0
  4 44  1  0
  4 45  1  0
  5 35  1  0
  5  6  1  0
  5 46  1  1
  6 24  1  0
  6  7  1  6
  6  8  1  0
  7 47  1  0
  7 48  1  0
  7 49  1  0
  8  9  1  0
  8 50  1  0
  8 51  1  0
  9 10  1  0
  9 52  1  0
  9 53  1  0
 10 11  1  0
 10 54  1  0
 10 55  1  0
 11 12  1  6
 11 13  1  0
 11 24  1  0
 12 56  1  0
 12 57  1  0
 12 58  1  0
 13 14  2  0
 13 15  1  0
 15 16  1  0
 16 17  1  0
 16 59  1  0
 16 60  1  0
 17 18  1  0
 17 61  1  0
 17 62  1  0
 18 23  1  0
 18 19  1  0
 18 89  1  0
 19 20  1  0
 19 63  1  0
 19 64  1  0
 20 21  1  0
 20 65  1  0
 20 66  1  0
 21 22  1  0
 21 67  1  0
 21 68  1  0
 22 23  1  0
 22 69  1  0
 22 70  1  0
 23 71  1  0
 23 72  1  0
 24 25  1  0
 24 73  1  1
 25 26  1  0
 25 74  1  0
 25 75  1  0
 26 27  1  0
 26 28  1  0
 26 76  1  6
 27 77  1  0
 27 78  1  0
 27 79  1  0
 28 35  1  0
 28 29  1  0
 28 80  1  1
 29 30  1  0
 30 37  1  0
 30 31  1  1
 30 32  1  0
 31 81  1  0
 31 82  1  0
 31 83  1  0
 32 33  1  0
 32 84  1  0
 32 85  1  0
 33 34  1  0
 33 86  1  0
 33 87  1  0
 34 35  1  0
 34 88  1  6
 35 36  1  1
 36 37  1  0
M  CHG  1  18   1
M  END
>  <i_m_ct_stereo_status>  (70) 
1

>  <s_m_source_file>  (70) 
/var/tmp/pbs.5076255.sched01/tmpi0kgw23q/0rwfjwt46.sdf

>  <i_m_source_file_index>  (70) 
36

>  <i_lp_mmshare_version>  (70) 
48012

>  <i_f3d_flags>  (70) 
0

>  <s_epik_input>  (70) 
W0NIMl0xW0NIMl1bQ0BASF0oW0NIM10pW0NAQEhdMltDSDJdW0NIMl1bQ0BdKFtDSDNdKShPTzMpT1tDQEhdNFtDQEhdKFtDSDNdKVtDSDJdW0NASF0oW0NAXTUoW0NAQEhdMVtDQF0yMzQpW0NIM10pW0NAQF0oW0NIM10pKFtDSDJdW0NIMl1bQ0gyXTUpQyg9TylPW0NIMl1bQ0gyXU42W0NIMl1bQ0gyXVtDSDJdW0NIMl1bQ0gyXTY=

>  <s_epik_cmdline>  (70) 
J2VwaWtfcHl0aG9uJywgJy1waHQnLCAnMi4wJywgJy1waCcsICc3LjAnLCAnLXRuJywgJzgnLCAnLW1hJywgJzIwMCcsICctaW1hZScsICc8aW5maWxlLm1hZT4nLCAnLW9tYWUnLCAnPG91dGZpbGUubWFlPic=

>  <r_epik_Ionization_Penalty>  (70) 
0.0103969

>  <r_epik_Ionization_Penalty_Charging>  (70) 
0.0103969

>  <r_epik_Ionization_Penalty_Neutral>  (70) 
3.039e-14

>  <r_epik_State_Penalty>  (70) 
0.00794843

>  <r_epik_Charging_Adjusted_Penalty>  (70) 
0.0183453

>  <i_epik_Tot_Q>  (70) 
1

>  <i_epik_Tot_abs_Q>  (70) 
1

>  <s_epik_Chemistry_Notes>  (70) 
This compound has an ester and may undergo hydrolysis at high or low pH.

>  <s_lp_Force_Field>  (70) 
OPLS3e

>  <r_lp_Energy>  (70) 
97.8797

>  <b_lp_Chiralities_Consistent>  (70) 
1

>  <s_lp_Variant>  (70) 
20:0-1

>  <s_i_glide_gridfile>  (70) 
pfpi4k_grid

>  <i_i_glide_lignum>  (70) 
36

>  <i_i_glide_rotatable_bonds>  (70) 
5

>  <r_i_docking_score>  (70) 
-1.78027

>  <r_i_glide_ligand_efficiency>  (70) 
-0.0481153

>  <r_i_glide_ligand_efficiency_sa>  (70) 
-0.160331

>  <r_i_glide_ligand_efficiency_ln>  (70) 
-0.386098

>  <r_i_glide_gscore>  (70) 
-1.78027

>  <r_i_glide_lipo>  (70) 
-0.120678

>  <r_i_glide_hbond>  (70) 
0

>  <r_i_glide_metal>  (70) 
-0

>  <r_i_glide_rewards>  (70) 
-0.510777

>  <r_i_glide_evdw>  (70) 
-20.8976

>  <r_i_glide_ecoul>  (70) 
-2.67878

>  <r_i_glide_erotb>  (70) 
0.30532

>  <r_i_glide_esite>  (70) 
-0.00743314

>  <r_i_glide_emodel>  (70) 
-29.617

>  <r_i_glide_energy>  (70) 
-23.5764

>  <r_i_glide_einternal>  (70) 
3.52254

>  <r_i_glide_intrahb_reward>  (70) 
-0.5

>  <i_i_glide_confnum>  (70) 
2

>  <i_i_glide_posenum>  (70) 
2

>  <r_i_glide_eff_state_penalty>  (70) 
0

>  <ligand_id>  (70) 
20

>  <original_smiles>  (70) 
CC1CCC2C3(C)CCCC(C)(C(=O)OCCN4CCCCC4)C3CC(C)C3OC4(C)CCC1C32OO4

>  <smiles>  (70) 
[H]C([H])([H])C12OOC34C([H])(O1)C([H])(C([H])([H])[H])C([H])([H])C1([H])C(C(=O)OC([H])([H])C([H])([H])[N+]5([H])C([H])([H])C([H])([H])C([H])([H])C([H])([H])C5([H])[H])(C([H])([H])[H])C([H])([H])C([H])([H])C([H])([H])C1(C([H])([H])[H])C3([H])C([H])([H])C([H])([H])C([H])(C([H])([H])[H])C4([H])C([H])([H])C2([H])[H]

$$$$
20:1:0
     RDKit          3D

 88 93  0  0  1  0  0  0  0  0999 V2000
   -0.0195    5.4751    3.9249 C   0  0  0  0  0  0  0  0  0  0  0  0
    0.7414    4.4675    4.7938 C   0  0  2  0  0  0  0  0  0  0  0  0
    2.1885    4.3680    4.2860 C   0  0  0  0  0  0  0  0  0  0  0  0
    3.0292    3.3607    5.0814 C   0  0  0  0  0  0  0  0  0  0  0  0
    2.4087    1.9258    5.2054 C   0  0  2  0  0  0  0  0  0  0  0  0
    2.8514    0.9275    4.0373 C   0  0  1  0  0  0  0  0  0  0  0  0
    2.6695    1.5904    2.6435 C   0  0  0  0  0  0  0  0  0  0  0  0
    4.3904    0.6870    4.2348 C   0  0  0  0  0  0  0  0  0  0  0  0
    5.0163   -0.3601    3.3154 C   0  0  0  0  0  0  0  0  0  0  0  0
    4.3662   -1.7175    3.5618 C   0  0  0  0  0  0  0  0  0  0  0  0
    2.8381   -1.7047    3.3112 C   0  0  1  0  0  0  0  0  0  0  0  0
    2.5671   -1.6761    1.7753 C   0  0  0  0  0  0  0  0  0  0  0  0
    2.3562   -3.0785    3.8716 C   0  0  0  0  0  0  0  0  0  0  0  0
    1.6808   -3.1527    4.8912 O   0  0  0  0  0  0  0  0  0  0  0  0
    2.8640   -4.1622    3.2301 O   0  0  0  0  0  0  0  0  0  0  0  0
    2.4689   -5.4775    3.6110 C   0  0  0  0  0  0  0  0  0  0  0  0
    1.7660   -6.1741    2.4335 C   0  0  0  0  0  0  0  0  0  0  0  0
    0.7090   -7.0928    2.8858 N   0  0  0  0  0  0  0  0  0  0  0  0
    1.2988   -8.2593    3.5491 C   0  0  0  0  0  0  0  0  0  0  0  0
    0.2029   -9.2179    4.0442 C   0  0  0  0  0  0  0  0  0  0  0  0
   -0.6873   -9.6619    2.8811 C   0  0  0  0  0  0  0  0  0  0  0  0
   -1.2183   -8.4337    2.1500 C   0  0  0  0  0  0  0  0  0  0  0  0
   -0.0612   -7.5210    1.7159 C   0  0  0  0  0  0  0  0  0  0  0  0
    2.1545   -0.4924    4.1226 C   0  0  2  0  0  0  0  0  0  0  0  0
    0.6218   -0.3892    3.8874 C   0  0  0  0  0  0  0  0  0  0  0  0
   -0.2632   -0.2436    5.1401 C   0  0  1  0  0  0  0  0  0  0  0  0
   -0.5561   -1.5872    5.8254 C   0  0  0  0  0  0  0  0  0  0  0  0
    0.2318    0.7592    6.1971 C   0  0  2  0  0  0  0  0  0  0  0  0
   -0.9342    0.9668    7.0043 O   0  0  0  0  0  0  0  0  0  0  0  0
   -1.0864    2.2538    7.5596 C   0  0  2  0  0  0  0  0  0  0  0  0
   -1.9126    2.0726    8.8359 C   0  0  0  0  0  0  0  0  0  0  0  0
   -1.8178    3.2130    6.6009 C   0  0  0  0  0  0  0  0  0  0  0  0
   -1.4253    3.0487    5.1354 C   0  0  0  0  0  0  0  0  0  0  0  0
    0.0856    3.0525    4.8381 C   0  0  2  0  0  0  0  0  0  0  0  0
    0.9236    2.0816    5.7397 C   0  0  2  0  0  0  0  0  0  0  0  0
    1.2162    2.7799    6.9640 O   0  0  0  0  0  0  0  0  0  0  0  0
    0.1390    2.7936    8.0127 O   0  0  0  0  0  0  0  0  0  0  0  0
   -0.1997    5.0897    2.9198 H   0  0  0  0  0  0  0  0  0  0  0  0
    0.5343    6.4094    3.8246 H   0  0  0  0  0  0  0  0  0  0  0  0
   -0.9702    5.7196    4.3893 H   0  0  0  0  0  0  0  0  0  0  0  0
    0.7802    4.8840    5.8024 H   0  0  0  0  0  0  0  0  0  0  0  0
    2.1810    4.1196    3.2254 H   0  0  0  0  0  0  0  0  0  0  0  0
    2.6696    5.3464    4.3429 H   0  0  0  0  0  0  0  0  0  0  0  0
    4.0247    3.3511    4.6581 H   0  0  0  0  0  0  0  0  0  0  0  0
    3.1747    3.7795    6.0795 H   0  0  0  0  0  0  0  0  0  0  0  0
    2.9091    1.5016    6.0722 H   0  0  0  0  0  0  0  0  0  0  0  0
    2.8691    0.9181    1.8236 H   0  0  0  0  0  0  0  0  0  0  0  0
    3.3741    2.4124    2.5256 H   0  0  0  0  0  0  0  0  0  0  0  0
    1.6760    2.0047    2.4739 H   0  0  0  0  0  0  0  0  0  0  0  0
    4.9523    1.6017    4.0874 H   0  0  0  0  0  0  0  0  0  0  0  0
    4.5939    0.3832    5.2645 H   0  0  0  0  0  0  0  0  0  0  0  0
    4.9405   -0.0524    2.2718 H   0  0  0  0  0  0  0  0  0  0  0  0
    6.0835   -0.4238    3.5202 H   0  0  0  0  0  0  0  0  0  0  0  0
    4.8710   -2.4608    2.9398 H   0  0  0  0  0  0  0  0  0  0  0  0
    4.5635   -2.0045    4.6000 H   0  0  0  0  0  0  0  0  0  0  0  0
    3.2874   -1.0705    1.2393 H   0  0  0  0  0  0  0  0  0  0  0  0
    1.5817   -1.2841    1.5397 H   0  0  0  0  0  0  0  0  0  0  0  0
    2.6314   -2.6549    1.2969 H   0  0  0  0  0  0  0  0  0  0  0  0
    3.3451   -6.0429    3.9436 H   0  0  0  0  0  0  0  0  0  0  0  0
    1.7851   -5.4517    4.4571 H   0  0  0  0  0  0  0  0  0  0  0  0
    1.2975   -5.4086    1.8123 H   0  0  0  0  0  0  0  0  0  0  0  0
    2.5067   -6.6835    1.8143 H   0  0  0  0  0  0  0  0  0  0  0  0
    1.9630   -8.7804    2.8557 H   0  0  0  0  0  0  0  0  0  0  0  0
    1.9026   -7.9565    4.4060 H   0  0  0  0  0  0  0  0  0  0  0  0
    0.6473  -10.0953    4.5153 H   0  0  0  0  0  0  0  0  0  0  0  0
   -0.4087   -8.7301    4.8038 H   0  0  0  0  0  0  0  0  0  0  0  0
   -0.1267  -10.2979    2.1939 H   0  0  0  0  0  0  0  0  0  0  0  0
   -1.5222  -10.2444    3.2527 H   0  0  0  0  0  0  0  0  0  0  0  0
   -1.7854   -8.7784    1.2847 H   0  0  0  0  0  0  0  0  0  0  0  0
   -1.9097   -7.8837    2.7906 H   0  0  0  0  0  0  0  0  0  0  0  0
   -0.4663   -6.6553    1.1977 H   0  0  0  0  0  0  0  0  0  0  0  0
    0.6083   -8.0251    1.0181 H   0  0  0  0  0  0  0  0  0  0  0  0
    2.2814   -0.7723    5.1712 H   0  0  0  0  0  0  0  0  0  0  0  0
    0.4011    0.4494    3.2308 H   0  0  0  0  0  0  0  0  0  0  0  0
    0.2638   -1.2466    3.3200 H   0  0  0  0  0  0  0  0  0  0  0  0
   -1.2233    0.1011    4.7609 H   0  0  0  0  0  0  0  0  0  0  0  0
    0.3309   -1.9496    6.3537 H   0  0  0  0  0  0  0  0  0  0  0  0
   -0.8212   -2.3450    5.0981 H   0  0  0  0  0  0  0  0  0  0  0  0
   -1.4029   -1.5112    6.5123 H   0  0  0  0  0  0  0  0  0  0  0  0
    0.9522    0.2578    6.8499 H   0  0  0  0  0  0  0  0  0  0  0  0
   -1.3884    1.4152    9.5321 H   0  0  0  0  0  0  0  0  0  0  0  0
   -2.8915    1.6489    8.6176 H   0  0  0  0  0  0  0  0  0  0  0  0
   -2.0825    3.0239    9.3392 H   0  0  0  0  0  0  0  0  0  0  0  0
   -2.8903    3.0342    6.6649 H   0  0  0  0  0  0  0  0  0  0  0  0
   -1.6627    4.2346    6.9403 H   0  0  0  0  0  0  0  0  0  0  0  0
   -1.8464    2.1118    4.7834 H   0  0  0  0  0  0  0  0  0  0  0  0
   -1.9516    3.7844    4.5332 H   0  0  0  0  0  0  0  0  0  0  0  0
    0.1434    2.6713    3.8258 H   0  0  0  0  0  0  0  0  0  0  0  0
  1  2  1  0
  1 38  1  0
  1 39  1  0
  1 40  1  0
  2 34  1  0
  2  3  1  0
  2 41  1  1
  3  4  1  0
  3 42  1  0
  3 43  1  0
  4  5  1  0
  4 44  1  0
  4 45  1  0
  5 35  1  0
  5  6  1  0
  5 46  1  1
  6 24  1  0
  6  7  1  6
  6  8  1  0
  7 47  1  0
  7 48  1  0
  7 49  1  0
  8  9  1  0
  8 50  1  0
  8 51  1  0
  9 10  1  0
  9 52  1  0
  9 53  1  0
 10 11  1  0
 10 54  1  0
 10 55  1  0
 11 12  1  6
 11 13  1  0
 11 24  1  0
 12 56  1  0
 12 57  1  0
 12 58  1  0
 13 14  2  0
 13 15  1  0
 15 16  1  0
 16 17  1  0
 16 59  1  0
 16 60  1  0
 17 18  1  0
 17 61  1  0
 17 62  1  0
 18 23  1  0
 18 19  1  0
 19 20  1  0
 19 63  1  0
 19 64  1  0
 20 21  1  0
 20 65  1  0
 20 66  1  0
 21 22  1  0
 21 67  1  0
 21 68  1  0
 22 23  1  0
 22 69  1  0
 22 70  1  0
 23 71  1  0
 23 72  1  0
 24 25  1  0
 24 73  1  1
 25 26  1  0
 25 74  1  0
 25 75  1  0
 26 27  1  0
 26 28  1  0
 26 76  1  6
 27 77  1  0
 27 78  1  0
 27 79  1  0
 28 35  1  0
 28 29  1  0
 28 80  1  1
 29 30  1  0
 30 37  1  0
 30 31  1  1
 30 32  1  0
 31 81  1  0
 31 82  1  0
 31 83  1  0
 32 33  1  0
 32 84  1  0
 32 85  1  0
 33 34  1  0
 33 86  1  0
 33 87  1  0
 34 35  1  0
 34 88  1  6
 35 36  1  1
 36 37  1  0
M  END
>  <i_m_ct_stereo_status>  (71) 
1

>  <s_m_source_file>  (71) 
/var/tmp/pbs.5076255.sched01/tmpi0kgw23q/0rwfjwt46.sdf

>  <i_m_source_file_index>  (71) 
37

>  <i_lp_mmshare_version>  (71) 
48012

>  <i_f3d_flags>  (71) 
0

>  <s_epik_input>  (71) 
W0NIMl0xW0NIMl1bQ0BASF0oW0NIM10pW0NAQEhdMltDSDJdW0NIMl1bQ0BdKFtDSDNdKShPTzMpT1tDQEhdNFtDQEhdKFtDSDNdKVtDSDJdW0NASF0oW0NAXTUoW0NAQEhdMVtDQF0yMzQpW0NIM10pW0NAQF0oW0NIM10pKFtDSDJdW0NIMl1bQ0gyXTUpQyg9TylPW0NIMl1bQ0gyXU42W0NIMl1bQ0gyXVtDSDJdW0NIMl1bQ0gyXTY=

>  <s_epik_cmdline>  (71) 
J2VwaWtfcHl0aG9uJywgJy1waHQnLCAnMi4wJywgJy1waCcsICc3LjAnLCAnLXRuJywgJzgnLCAnLW1hJywgJzIwMCcsICctaW1hZScsICc8aW5maWxlLm1hZT4nLCAnLW9tYWUnLCAnPG91dGZpbGUubWFlPic=

>  <r_epik_Ionization_Penalty>  (71) 
2.4005

>  <r_epik_Ionization_Penalty_Charging>  (71) 
0

>  <r_epik_Ionization_Penalty_Neutral>  (71) 
2.4005

>  <r_epik_State_Penalty>  (71) 
2.55838

>  <r_epik_Charging_Adjusted_Penalty>  (71) 
2.55838

>  <i_epik_Tot_Q>  (71) 
0

>  <i_epik_Tot_abs_Q>  (71) 
0

>  <s_epik_Chemistry_Notes>  (71) 
This compound has an ester and may undergo hydrolysis at high or low pH.

>  <s_lp_Force_Field>  (71) 
OPLS3e

>  <r_lp_Energy>  (71) 
90.0227

>  <b_lp_Chiralities_Consistent>  (71) 
1

>  <s_lp_Variant>  (71) 
20:0-2

>  <s_i_glide_gridfile>  (71) 
pfpi4k_grid

>  <i_i_glide_lignum>  (71) 
37

>  <i_i_glide_rotatable_bonds>  (71) 
5

>  <r_i_docking_score>  (71) 
-1.48665

>  <r_i_glide_ligand_efficiency>  (71) 
-0.0401799

>  <r_i_glide_ligand_efficiency_sa>  (71) 
-0.133888

>  <r_i_glide_ligand_efficiency_ln>  (71) 
-0.322421

>  <r_i_glide_gscore>  (71) 
-1.48665

>  <r_i_glide_lipo>  (71) 
-0.242385

>  <r_i_glide_hbond>  (71) 
-0.00229506

>  <r_i_glide_metal>  (71) 
-0

>  <r_i_glide_rewards>  (71) 
-0.00159123

>  <r_i_glide_evdw>  (71) 
-25.2128

>  <r_i_glide_ecoul>  (71) 
-1.83864

>  <r_i_glide_erotb>  (71) 
0.306414

>  <r_i_glide_esite>  (71) 
-0.0103603

>  <r_i_glide_emodel>  (71) 
-27.373

>  <r_i_glide_energy>  (71) 
-27.0515

>  <r_i_glide_einternal>  (71) 
2.89281

>  <r_i_glide_intrahb_reward>  (71) 
-0

>  <i_i_glide_confnum>  (71) 
2

>  <i_i_glide_posenum>  (71) 
12

>  <r_i_glide_eff_state_penalty>  (71) 
0

>  <ligand_id>  (71) 
20

>  <original_smiles>  (71) 
CC1CCC2C3(C)CCCC(C)(C(=O)OCCN4CCCCC4)C3CC(C)C3OC4(C)CCC1C32OO4

>  <smiles>  (71) 
[H]C([H])([H])C12OOC34C([H])(O1)C([H])(C([H])([H])[H])C([H])([H])C1([H])C(C(=O)OC([H])([H])C([H])([H])N5C([H])([H])C([H])([H])C([H])([H])C([H])([H])C5([H])[H])(C([H])([H])[H])C([H])([H])C([H])([H])C([H])([H])C1(C([H])([H])[H])C3([H])C([H])([H])C([H])([H])C([H])(C([H])([H])[H])C4([H])C([H])([H])C2([H])[H]

$$$$
20:1:1
     RDKit          3D

 88 93  0  0  1  0  0  0  0  0999 V2000
    2.6579   -6.3019    1.2950 C   0  0  0  0  0  0  0  0  0  0  0  0
    3.2139   -5.2469    2.2686 C   0  0  2  0  0  0  0  0  0  0  0  0
    2.6917   -5.5551    3.6853 C   0  0  0  0  0  0  0  0  0  0  0  0
    3.1809   -4.5425    4.7345 C   0  0  0  0  0  0  0  0  0  0  0  0
    2.9062   -3.0508    4.3903 C   0  0  2  0  0  0  0  0  0  0  0  0
    1.5037   -2.5130    4.9476 C   0  0  1  0  0  0  0  0  0  0  0  0
    0.3563   -3.4795    4.5820 C   0  0  0  0  0  0  0  0  0  0  0  0
    1.6171   -2.5087    6.5097 C   0  0  0  0  0  0  0  0  0  0  0  0
    0.4419   -1.8709    7.2570 C   0  0  0  0  0  0  0  0  0  0  0  0
    0.2927   -0.4164    6.8524 C   0  0  0  0  0  0  0  0  0  0  0  0
    0.0642   -0.2417    5.3315 C   0  0  1  0  0  0  0  0  0  0  0  0
   -1.4157   -0.6486    4.9862 C   0  0  0  0  0  0  0  0  0  0  0  0
    0.3112    1.2894    5.1867 C   0  0  0  0  0  0  0  0  0  0  0  0
    1.4450    1.7400    5.1852 O   0  0  0  0  0  0  0  0  0  0  0  0
   -0.8059    2.0369    5.3237 O   0  0  0  0  0  0  0  0  0  0  0  0
   -0.7573    3.4624    5.3980 C   0  0  0  0  0  0  0  0  0  0  0  0
   -0.2283    4.1495    4.1184 C   0  0  0  0  0  0  0  0  0  0  0  0
    1.1840    4.4931    4.2674 N   0  0  0  0  0  0  0  0  0  0  0  0
    1.4122    5.6661    5.0991 C   0  0  0  0  0  0  0  0  0  0  0  0
    2.9187    5.8968    5.3055 C   0  0  0  0  0  0  0  0  0  0  0  0
    3.6401    6.0347    3.9630 C   0  0  0  0  0  0  0  0  0  0  0  0
    3.3183    4.8205    3.0911 C   0  0  0  0  0  0  0  0  0  0  0  0
    1.8034    4.6406    2.9542 C   0  0  0  0  0  0  0  0  0  0  0  0
    1.1846   -1.0406    4.5028 C   0  0  2  0  0  0  0  0  0  0  0  0
    1.0089   -0.8978    2.9686 C   0  0  0  0  0  0  0  0  0  0  0  0
    2.2624   -0.5086    2.1657 C   0  0  1  0  0  0  0  0  0  0  0  0
    2.5161    1.0042    2.1592 C   0  0  0  0  0  0  0  0  0  0  0  0
    3.5567   -1.2698    2.5238 C   0  0  2  0  0  0  0  0  0  0  0  0
    4.3811   -1.0323    1.3789 O   0  0  0  0  0  0  0  0  0  0  0  0
    5.2573   -2.0761    1.0197 C   0  0  2  0  0  0  0  0  0  0  0  0
    6.4394   -1.4039    0.3000 C   0  0  0  0  0  0  0  0  0  0  0  0
    4.6102   -3.1086    0.0789 C   0  0  0  0  0  0  0  0  0  0  0  0
    3.1578   -3.4127    0.4132 C   0  0  0  0  0  0  0  0  0  0  0  0
    2.8767   -3.7777    1.8838 C   0  0  2  0  0  0  0  0  0  0  0  0
    3.4746   -2.7700    2.9198 C   0  0  2  0  0  0  0  0  0  0  0  0
    4.8348   -3.1448    3.1717 O   0  0  0  0  0  0  0  0  0  0  0  0
    5.8425   -2.7124    2.1227 O   0  0  0  0  0  0  0  0  0  0  0  0
    1.5907   -6.1669    1.1233 H   0  0  0  0  0  0  0  0  0  0  0  0
    2.8059   -7.3072    1.6888 H   0  0  0  0  0  0  0  0  0  0  0  0
    3.1748   -6.2589    0.3369 H   0  0  0  0  0  0  0  0  0  0  0  0
    4.2977   -5.3819    2.2902 H   0  0  0  0  0  0  0  0  0  0  0  0
    1.6033   -5.6015    3.6685 H   0  0  0  0  0  0  0  0  0  0  0  0
    3.0148   -6.5531    3.9924 H   0  0  0  0  0  0  0  0  0  0  0  0
    2.7625   -4.8321    5.6917 H   0  0  0  0  0  0  0  0  0  0  0  0
    4.2502   -4.6984    4.8571 H   0  0  0  0  0  0  0  0  0  0  0  0
    3.6191   -2.4960    5.0011 H   0  0  0  0  0  0  0  0  0  0  0  0
   -0.6089   -3.0709    4.8383 H   0  0  0  0  0  0  0  0  0  0  0  0
    0.4344   -4.4140    5.1352 H   0  0  0  0  0  0  0  0  0  0  0  0
    0.3210   -3.7134    3.5207 H   0  0  0  0  0  0  0  0  0  0  0  0
    1.7117   -3.5222    6.8986 H   0  0  0  0  0  0  0  0  0  0  0  0
    2.5281   -1.9844    6.8148 H   0  0  0  0  0  0  0  0  0  0  0  0
   -0.4699   -2.4370    7.0774 H   0  0  0  0  0  0  0  0  0  0  0  0
    0.6316   -1.9334    8.3337 H   0  0  0  0  0  0  0  0  0  0  0  0
   -0.4943    0.0605    7.4410 H   0  0  0  0  0  0  0  0  0  0  0  0
    1.2158    0.0894    7.1502 H   0  0  0  0  0  0  0  0  0  0  0  0
   -1.7577   -1.5242    5.5350 H   0  0  0  0  0  0  0  0  0  0  0  0
   -1.5301   -0.8721    3.9341 H   0  0  0  0  0  0  0  0  0  0  0  0
   -2.1801    0.0946    5.2183 H   0  0  0  0  0  0  0  0  0  0  0  0
   -1.7876    3.7978    5.5271 H   0  0  0  0  0  0  0  0  0  0  0  0
   -0.2297    3.7840    6.2913 H   0  0  0  0  0  0  0  0  0  0  0  0
   -0.3835    3.4964    3.2610 H   0  0  0  0  0  0  0  0  0  0  0  0
   -0.7793    5.0499    3.8622 H   0  0  0  0  0  0  0  0  0  0  0  0
    0.9471    6.5434    4.6532 H   0  0  0  0  0  0  0  0  0  0  0  0
    0.9499    5.5366    6.0751 H   0  0  0  0  0  0  0  0  0  0  0  0
    3.0789    6.7880    5.9085 H   0  0  0  0  0  0  0  0  0  0  0  0
    3.3391    5.0664    5.8671 H   0  0  0  0  0  0  0  0  0  0  0  0
    3.2962    6.9368    3.4582 H   0  0  0  0  0  0  0  0  0  0  0  0
    4.7156    6.1434    4.1050 H   0  0  0  0  0  0  0  0  0  0  0  0
    3.7591    4.9314    2.1004 H   0  0  0  0  0  0  0  0  0  0  0  0
    3.7472    3.9149    3.5190 H   0  0  0  0  0  0  0  0  0  0  0  0
    1.6230    3.7382    2.3794 H   0  0  0  0  0  0  0  0  0  0  0  0
    1.3522    5.4743    2.4224 H   0  0  0  0  0  0  0  0  0  0  0  0
    2.1228   -0.5423    4.7397 H   0  0  0  0  0  0  0  0  0  0  0  0
    0.6277   -1.8204    2.5524 H   0  0  0  0  0  0  0  0  0  0  0  0
    0.2342   -0.1672    2.7395 H   0  0  0  0  0  0  0  0  0  0  0  0
    2.0135   -0.7461    1.1378 H   0  0  0  0  0  0  0  0  0  0  0  0
    2.8913    1.3450    3.1249 H   0  0  0  0  0  0  0  0  0  0  0  0
    1.5970    1.5367    1.9215 H   0  0  0  0  0  0  0  0  0  0  0  0
    3.2607    1.2873    1.4072 H   0  0  0  0  0  0  0  0  0  0  0  0
    4.0430   -0.7483    3.3505 H   0  0  0  0  0  0  0  0  0  0  0  0
    6.9388   -0.7066    0.9728 H   0  0  0  0  0  0  0  0  0  0  0  0
    6.1024   -0.8437   -0.5765 H   0  0  0  0  0  0  0  0  0  0  0  0
    7.1691   -2.1434   -0.0242 H   0  0  0  0  0  0  0  0  0  0  0  0
    4.6250   -2.7241   -0.9446 H   0  0  0  0  0  0  0  0  0  0  0  0
    5.2120   -4.0140    0.0682 H   0  0  0  0  0  0  0  0  0  0  0  0
    2.5689   -2.5422    0.1492 H   0  0  0  0  0  0  0  0  0  0  0  0
    2.7851   -4.1802   -0.2639 H   0  0  0  0  0  0  0  0  0  0  0  0
    1.7989   -3.6914    1.9599 H   0  0  0  0  0  0  0  0  0  0  0  0
  1  2  1  0
  1 38  1  0
  1 39  1  0
  1 40  1  0
  2 34  1  0
  2  3  1  0
  2 41  1  1
  3  4  1  0
  3 42  1  0
  3 43  1  0
  4  5  1  0
  4 44  1  0
  4 45  1  0
  5 35  1  0
  5  6  1  0
  5 46  1  1
  6 24  1  0
  6  7  1  1
  6  8  1  0
  7 47  1  0
  7 48  1  0
  7 49  1  0
  8  9  1  0
  8 50  1  0
  8 51  1  0
  9 10  1  0
  9 52  1  0
  9 53  1  0
 10 11  1  0
 10 54  1  0
 10 55  1  0
 11 12  1  6
 11 13  1  0
 11 24  1  0
 12 56  1  0
 12 57  1  0
 12 58  1  0
 13 14  2  0
 13 15  1  0
 15 16  1  0
 16 17  1  0
 16 59  1  0
 16 60  1  0
 17 18  1  0
 17 61  1  0
 17 62  1  0
 18 23  1  0
 18 19  1  0
 19 20  1  0
 19 63  1  0
 19 64  1  0
 20 21  1  0
 20 65  1  0
 20 66  1  0
 21 22  1  0
 21 67  1  0
 21 68  1  0
 22 23  1  0
 22 69  1  0
 22 70  1  0
 23 71  1  0
 23 72  1  0
 24 25  1  0
 24 73  1  1
 25 26  1  0
 25 74  1  0
 25 75  1  0
 26 27  1  0
 26 28  1  0
 26 76  1  6
 27 77  1  0
 27 78  1  0
 27 79  1  0
 28 35  1  0
 28 29  1  0
 28 80  1  1
 29 30  1  0
 30 37  1  0
 30 31  1  6
 30 32  1  0
 31 81  1  0
 31 82  1  0
 31 83  1  0
 32 33  1  0
 32 84  1  0
 32 85  1  0
 33 34  1  0
 33 86  1  0
 33 87  1  0
 34 35  1  0
 34 88  1  6
 35 36  1  1
 36 37  1  0
M  END
>  <i_m_ct_stereo_status>  (72) 
1

>  <s_m_source_file>  (72) 
/var/tmp/pbs.5076255.sched01/tmpi0kgw23q/0rwfjwt46.sdf

>  <i_m_source_file_index>  (72) 
37

>  <i_lp_mmshare_version>  (72) 
48012

>  <i_f3d_flags>  (72) 
0

>  <s_epik_input>  (72) 
W0NIMl0xW0NIMl1bQ0BASF0oW0NIM10pW0NAQEhdMltDSDJdW0NIMl1bQ0BdKFtDSDNdKShPTzMpT1tDQEhdNFtDQEhdKFtDSDNdKVtDSDJdW0NASF0oW0NAXTUoW0NAQEhdMVtDQF0yMzQpW0NIM10pW0NAQF0oW0NIM10pKFtDSDJdW0NIMl1bQ0gyXTUpQyg9TylPW0NIMl1bQ0gyXU42W0NIMl1bQ0gyXVtDSDJdW0NIMl1bQ0gyXTY=

>  <s_epik_cmdline>  (72) 
J2VwaWtfcHl0aG9uJywgJy1waHQnLCAnMi4wJywgJy1waCcsICc3LjAnLCAnLXRuJywgJzgnLCAnLW1hJywgJzIwMCcsICctaW1hZScsICc8aW5maWxlLm1hZT4nLCAnLW9tYWUnLCAnPG91dGZpbGUubWFlPic=

>  <r_epik_Ionization_Penalty>  (72) 
2.4005

>  <r_epik_Ionization_Penalty_Charging>  (72) 
0

>  <r_epik_Ionization_Penalty_Neutral>  (72) 
2.4005

>  <r_epik_State_Penalty>  (72) 
2.55838

>  <r_epik_Charging_Adjusted_Penalty>  (72) 
2.55838

>  <i_epik_Tot_Q>  (72) 
0

>  <i_epik_Tot_abs_Q>  (72) 
0

>  <s_epik_Chemistry_Notes>  (72) 
This compound has an ester and may undergo hydrolysis at high or low pH.

>  <s_lp_Force_Field>  (72) 
OPLS3e

>  <r_lp_Energy>  (72) 
90.0227

>  <b_lp_Chiralities_Consistent>  (72) 
1

>  <s_lp_Variant>  (72) 
20:0-2

>  <s_i_glide_gridfile>  (72) 
pfpi4k_grid

>  <i_i_glide_lignum>  (72) 
37

>  <i_i_glide_rotatable_bonds>  (72) 
5

>  <r_i_docking_score>  (72) 
-1.39335

>  <r_i_glide_ligand_efficiency>  (72) 
-0.037658

>  <r_i_glide_ligand_efficiency_sa>  (72) 
-0.125485

>  <r_i_glide_ligand_efficiency_ln>  (72) 
-0.302184

>  <r_i_glide_gscore>  (72) 
-1.39335

>  <r_i_glide_lipo>  (72) 
-0.182027

>  <r_i_glide_hbond>  (72) 
0

>  <r_i_glide_metal>  (72) 
-0

>  <r_i_glide_rewards>  (72) 
-0.0789147

>  <r_i_glide_evdw>  (72) 
-25.9083

>  <r_i_glide_ecoul>  (72) 
-0.921864

>  <r_i_glide_erotb>  (72) 
0.306414

>  <r_i_glide_esite>  (72) 
-0.00512475

>  <r_i_glide_emodel>  (72) 
-25.3377

>  <r_i_glide_energy>  (72) 
-26.8302

>  <r_i_glide_einternal>  (72) 
5.84472

>  <r_i_glide_intrahb_reward>  (72) 
-0

>  <i_i_glide_confnum>  (72) 
2

>  <i_i_glide_posenum>  (72) 
1

>  <r_i_glide_eff_state_penalty>  (72) 
0

>  <ligand_id>  (72) 
20

>  <original_smiles>  (72) 
CC1CCC2C3(C)CCCC(C)(C(=O)OCCN4CCCCC4)C3CC(C)C3OC4(C)CCC1C32OO4

>  <smiles>  (72) 
[H]C([H])([H])C12OOC34C([H])(O1)C([H])(C([H])([H])[H])C([H])([H])C1([H])C(C(=O)OC([H])([H])C([H])([H])N5C([H])([H])C([H])([H])C([H])([H])C([H])([H])C5([H])[H])(C([H])([H])[H])C([H])([H])C([H])([H])C([H])([H])C1(C([H])([H])[H])C3([H])C([H])([H])C([H])([H])C([H])(C([H])([H])[H])C4([H])C([H])([H])C2([H])[H]

$$$$
20:1:2
     RDKit          3D

 88 93  0  0  1  0  0  0  0  0999 V2000
    2.4704   -6.1862    0.8290 C   0  0  0  0  0  0  0  0  0  0  0  0
    3.1398   -5.3005    1.8884 C   0  0  2  0  0  0  0  0  0  0  0  0
    2.7158   -5.7853    3.2812 C   0  0  0  0  0  0  0  0  0  0  0  0
    3.3160   -4.9519    4.4179 C   0  0  0  0  0  0  0  0  0  0  0  0
    3.0752   -3.4077    4.3059 C   0  0  2  0  0  0  0  0  0  0  0  0
    1.7385   -2.9220    5.0420 C   0  0  1  0  0  0  0  0  0  0  0  0
    0.5258   -3.7924    4.6446 C   0  0  0  0  0  0  0  0  0  0  0  0
    1.9737   -3.1402    6.5748 C   0  0  0  0  0  0  0  0  0  0  0  0
    0.8865   -2.5867    7.4986 C   0  0  0  0  0  0  0  0  0  0  0  0
    0.7701   -1.0770    7.3207 C   0  0  0  0  0  0  0  0  0  0  0  0
    0.4332   -0.6750    5.8648 C   0  0  1  0  0  0  0  0  0  0  0  0
   -1.0804   -0.9766    5.5734 C   0  0  0  0  0  0  0  0  0  0  0  0
    0.7041    0.8622    5.9092 C   0  0  0  0  0  0  0  0  0  0  0  0
    1.8290    1.3087    5.7042 O   0  0  0  0  0  0  0  0  0  0  0  0
   -0.3056    1.5804    6.4695 O   0  0  0  0  0  0  0  0  0  0  0  0
   -0.1623    2.9831    6.6993 C   0  0  0  0  0  0  0  0  0  0  0  0
   -0.2409    3.8329    5.4023 C   0  0  0  0  0  0  0  0  0  0  0  0
    1.0864    4.0880    4.8225 N   0  0  0  0  0  0  0  0  0  0  0  0
    1.8133    5.1236    5.5726 C   0  0  0  0  0  0  0  0  0  0  0  0
    3.2340    5.3051    4.9996 C   0  0  0  0  0  0  0  0  0  0  0  0
    3.1828    5.6809    3.5134 C   0  0  0  0  0  0  0  0  0  0  0  0
    2.3437    4.6423    2.7652 C   0  0  0  0  0  0  0  0  0  0  0  0
    0.9560    4.4785    3.4157 C   0  0  0  0  0  0  0  0  0  0  0  0
    1.4533   -1.3775    4.8417 C   0  0  2  0  0  0  0  0  0  0  0  0
    1.1515   -1.0201    3.3613 C   0  0  0  0  0  0  0  0  0  0  0  0
    2.3476   -0.5710    2.5015 C   0  0  1  0  0  0  0  0  0  0  0  0
    2.6892    0.9205    2.6759 C   0  0  0  0  0  0  0  0  0  0  0  0
    3.6360   -1.3975    2.6530 C   0  0  2  0  0  0  0  0  0  0  0  0
    4.3919   -1.0390    1.4993 O   0  0  0  0  0  0  0  0  0  0  0  0
    5.2085   -2.0350    0.9264 C   0  0  2  0  0  0  0  0  0  0  0  0
    6.3383   -1.2903    0.2193 C   0  0  0  0  0  0  0  0  0  0  0  0
    4.4461   -2.9029   -0.0861 C   0  0  0  0  0  0  0  0  0  0  0  0
    3.0113   -3.2226    0.3185 C   0  0  0  0  0  0  0  0  0  0  0  0
    2.8314   -3.7747    1.7410 C   0  0  2  0  0  0  0  0  0  0  0  0
    3.5357   -2.9482    2.8680 C   0  0  2  0  0  0  0  0  0  0  0  0
    4.9011   -3.3902    2.9226 O   0  0  0  0  0  0  0  0  0  0  0  0
    5.8504   -2.8226    1.9075 O   0  0  0  0  0  0  0  0  0  0  0  0
    1.3982   -6.0005    0.7619 H   0  0  0  0  0  0  0  0  0  0  0  0
    2.6116   -7.2412    1.0713 H   0  0  0  0  0  0  0  0  0  0  0  0
    2.9193   -6.0206   -0.1479 H   0  0  0  0  0  0  0  0  0  0  0  0
    4.2159   -5.4616    1.8015 H   0  0  0  0  0  0  0  0  0  0  0  0
    1.6295   -5.8012    3.3500 H   0  0  0  0  0  0  0  0  0  0  0  0
    3.0242   -6.8230    3.4231 H   0  0  0  0  0  0  0  0  0  0  0  0
    2.9645   -5.3527    5.3550 H   0  0  0  0  0  0  0  0  0  0  0  0
    4.3893   -5.1415    4.4302 H   0  0  0  0  0  0  0  0  0  0  0  0
    3.8516   -2.9694    4.9285 H   0  0  0  0  0  0  0  0  0  0  0  0
   -0.4052   -3.4105    5.0307 H   0  0  0  0  0  0  0  0  0  0  0  0
    0.6239   -4.7989    5.0542 H   0  0  0  0  0  0  0  0  0  0  0  0
    0.4104   -3.8816    3.5680 H   0  0  0  0  0  0  0  0  0  0  0  0
    2.0543   -4.1986    6.8107 H   0  0  0  0  0  0  0  0  0  0  0  0
    2.9233   -2.6934    6.8805 H   0  0  0  0  0  0  0  0  0  0  0  0
   -0.0628   -3.0896    7.3159 H   0  0  0  0  0  0  0  0  0  0  0  0
    1.1507   -2.8029    8.5333 H   0  0  0  0  0  0  0  0  0  0  0  0
    0.0420   -0.6765    8.0327 H   0  0  0  0  0  0  0  0  0  0  0  0
    1.7312   -0.6344    7.6019 H   0  0  0  0  0  0  0  0  0  0  0  0
   -1.4088   -1.9051    6.0365 H   0  0  0  0  0  0  0  0  0  0  0  0
   -1.2778   -1.0649    4.5057 H   0  0  0  0  0  0  0  0  0  0  0  0
   -1.7870   -0.2333    5.9506 H   0  0  0  0  0  0  0  0  0  0  0  0
   -0.9850    3.2924    7.3466 H   0  0  0  0  0  0  0  0  0  0  0  0
    0.7594    3.1627    7.2543 H   0  0  0  0  0  0  0  0  0  0  0  0
   -0.8857    3.3292    4.6786 H   0  0  0  0  0  0  0  0  0  0  0  0
   -0.7364    4.7874    5.5946 H   0  0  0  0  0  0  0  0  0  0  0  0
    1.2782    6.0757    5.5521 H   0  0  0  0  0  0  0  0  0  0  0  0
    1.9077    4.8400    6.6197 H   0  0  0  0  0  0  0  0  0  0  0  0
    3.7635    6.0792    5.5560 H   0  0  0  0  0  0  0  0  0  0  0  0
    3.8043    4.3849    5.1342 H   0  0  0  0  0  0  0  0  0  0  0  0
    2.7233    6.6617    3.3991 H   0  0  0  0  0  0  0  0  0  0  0  0
    4.1861    5.7511    3.0862 H   0  0  0  0  0  0  0  0  0  0  0  0
    2.2166    4.9364    1.7232 H   0  0  0  0  0  0  0  0  0  0  0  0
    2.8735    3.6901    2.7554 H   0  0  0  0  0  0  0  0  0  0  0  0
    0.4189    3.6977    2.8782 H   0  0  0  0  0  0  0  0  0  0  0  0
    0.3758    5.3992    3.3091 H   0  0  0  0  0  0  0  0  0  0  0  0
    2.4196   -0.9256    5.0639 H   0  0  0  0  0  0  0  0  0  0  0  0
    0.6879   -1.8665    2.8625 H   0  0  0  0  0  0  0  0  0  0  0  0
    0.3952   -0.2395    3.2988 H   0  0  0  0  0  0  0  0  0  0  0  0
    2.0031   -0.6628    1.4699 H   0  0  0  0  0  0  0  0  0  0  0  0
    3.1787    1.0952    3.6393 H   0  0  0  0  0  0  0  0  0  0  0  0
    1.7819    1.5174    2.6437 H   0  0  0  0  0  0  0  0  0  0  0  0
    3.3438    1.2797    1.8710 H   0  0  0  0  0  0  0  0  0  0  0  0
    4.2050   -1.0198    3.5082 H   0  0  0  0  0  0  0  0  0  0  0  0
    6.9117   -0.6985    0.9324 H   0  0  0  0  0  0  0  0  0  0  0  0
    5.9511   -0.6136   -0.5457 H   0  0  0  0  0  0  0  0  0  0  0  0
    7.0199   -1.9956   -0.2582 H   0  0  0  0  0  0  0  0  0  0  0  0
    4.3935   -2.3790   -1.0417 H   0  0  0  0  0  0  0  0  0  0  0  0
    5.0110   -3.8144   -0.2756 H   0  0  0  0  0  0  0  0  0  0  0  0
    2.4390   -2.3018    0.2250 H   0  0  0  0  0  0  0  0  0  0  0  0
    2.5609   -3.8702   -0.4314 H   0  0  0  0  0  0  0  0  0  0  0  0
    1.7716   -3.6707    1.9190 H   0  0  0  0  0  0  0  0  0  0  0  0
  1  2  1  0
  1 38  1  0
  1 39  1  0
  1 40  1  0
  2 34  1  0
  2  3  1  0
  2 41  1  1
  3  4  1  0
  3 42  1  0
  3 43  1  0
  4  5  1  0
  4 44  1  0
  4 45  1  0
  5 35  1  0
  5  6  1  0
  5 46  1  1
  6 24  1  0
  6  7  1  6
  6  8  1  0
  7 47  1  0
  7 48  1  0
  7 49  1  0
  8  9  1  0
  8 50  1  0
  8 51  1  0
  9 10  1  0
  9 52  1  0
  9 53  1  0
 10 11  1  0
 10 54  1  0
 10 55  1  0
 11 12  1  6
 11 13  1  0
 11 24  1  0
 12 56  1  0
 12 57  1  0
 12 58  1  0
 13 14  2  0
 13 15  1  0
 15 16  1  0
 16 17  1  0
 16 59  1  0
 16 60  1  0
 17 18  1  0
 17 61  1  0
 17 62  1  0
 18 23  1  0
 18 19  1  0
 19 20  1  0
 19 63  1  0
 19 64  1  0
 20 21  1  0
 20 65  1  0
 20 66  1  0
 21 22  1  0
 21 67  1  0
 21 68  1  0
 22 23  1  0
 22 69  1  0
 22 70  1  0
 23 71  1  0
 23 72  1  0
 24 25  1  0
 24 73  1  1
 25 26  1  0
 25 74  1  0
 25 75  1  0
 26 27  1  0
 26 28  1  0
 26 76  1  6
 27 77  1  0
 27 78  1  0
 27 79  1  0
 28 35  1  0
 28 29  1  0
 28 80  1  1
 29 30  1  0
 30 37  1  0
 30 31  1  6
 30 32  1  0
 31 81  1  0
 31 82  1  0
 31 83  1  0
 32 33  1  0
 32 84  1  0
 32 85  1  0
 33 34  1  0
 33 86  1  0
 33 87  1  0
 34 35  1  0
 34 88  1  1
 35 36  1  1
 36 37  1  0
M  END
>  <i_m_ct_stereo_status>  (73) 
1

>  <s_m_source_file>  (73) 
/var/tmp/pbs.5076255.sched01/tmpi0kgw23q/0rwfjwt46.sdf

>  <i_m_source_file_index>  (73) 
37

>  <i_lp_mmshare_version>  (73) 
48012

>  <i_f3d_flags>  (73) 
0

>  <s_epik_input>  (73) 
W0NIMl0xW0NIMl1bQ0BASF0oW0NIM10pW0NAQEhdMltDSDJdW0NIMl1bQ0BdKFtDSDNdKShPTzMpT1tDQEhdNFtDQEhdKFtDSDNdKVtDSDJdW0NASF0oW0NAXTUoW0NAQEhdMVtDQF0yMzQpW0NIM10pW0NAQF0oW0NIM10pKFtDSDJdW0NIMl1bQ0gyXTUpQyg9TylPW0NIMl1bQ0gyXU42W0NIMl1bQ0gyXVtDSDJdW0NIMl1bQ0gyXTY=

>  <s_epik_cmdline>  (73) 
J2VwaWtfcHl0aG9uJywgJy1waHQnLCAnMi4wJywgJy1waCcsICc3LjAnLCAnLXRuJywgJzgnLCAnLW1hJywgJzIwMCcsICctaW1hZScsICc8aW5maWxlLm1hZT4nLCAnLW9tYWUnLCAnPG91dGZpbGUubWFlPic=

>  <r_epik_Ionization_Penalty>  (73) 
2.4005

>  <r_epik_Ionization_Penalty_Charging>  (73) 
0

>  <r_epik_Ionization_Penalty_Neutral>  (73) 
2.4005

>  <r_epik_State_Penalty>  (73) 
2.55838

>  <r_epik_Charging_Adjusted_Penalty>  (73) 
2.55838

>  <i_epik_Tot_Q>  (73) 
0

>  <i_epik_Tot_abs_Q>  (73) 
0

>  <s_epik_Chemistry_Notes>  (73) 
This compound has an ester and may undergo hydrolysis at high or low pH.

>  <s_lp_Force_Field>  (73) 
OPLS3e

>  <r_lp_Energy>  (73) 
90.0227

>  <b_lp_Chiralities_Consistent>  (73) 
1

>  <s_lp_Variant>  (73) 
20:0-2

>  <s_i_glide_gridfile>  (73) 
pfpi4k_grid

>  <i_i_glide_lignum>  (73) 
37

>  <i_i_glide_rotatable_bonds>  (73) 
5

>  <r_i_docking_score>  (73) 
-1.27343

>  <r_i_glide_ligand_efficiency>  (73) 
-0.0344171

>  <r_i_glide_ligand_efficiency_sa>  (73) 
-0.114685

>  <r_i_glide_ligand_efficiency_ln>  (73) 
-0.276178

>  <r_i_glide_gscore>  (73) 
-1.27343

>  <r_i_glide_lipo>  (73) 
-0.13377

>  <r_i_glide_hbond>  (73) 
0

>  <r_i_glide_metal>  (73) 
-0

>  <r_i_glide_rewards>  (73) 
-0.073473

>  <r_i_glide_evdw>  (73) 
-24.5266

>  <r_i_glide_ecoul>  (73) 
-0.953764

>  <r_i_glide_erotb>  (73) 
0.306414

>  <r_i_glide_esite>  (73) 
-0.00320708

>  <r_i_glide_emodel>  (73) 
-24.7494

>  <r_i_glide_energy>  (73) 
-25.4804

>  <r_i_glide_einternal>  (73) 
4.18427

>  <r_i_glide_intrahb_reward>  (73) 
-0

>  <i_i_glide_confnum>  (73) 
2

>  <i_i_glide_posenum>  (73) 
18

>  <r_i_glide_eff_state_penalty>  (73) 
0

>  <ligand_id>  (73) 
20

>  <original_smiles>  (73) 
CC1CCC2C3(C)CCCC(C)(C(=O)OCCN4CCCCC4)C3CC(C)C3OC4(C)CCC1C32OO4

>  <smiles>  (73) 
[H]C([H])([H])C12OOC34C([H])(O1)C([H])(C([H])([H])[H])C([H])([H])C1([H])C(C(=O)OC([H])([H])C([H])([H])N5C([H])([H])C([H])([H])C([H])([H])C([H])([H])C5([H])[H])(C([H])([H])[H])C([H])([H])C([H])([H])C([H])([H])C1(C([H])([H])[H])C3([H])C([H])([H])C([H])([H])C([H])(C([H])([H])[H])C4([H])C([H])([H])C2([H])[H]

$$$$
21:1:0
     RDKit          3D

 69 74  0  0  1  0  0  0  0  0999 V2000
    3.6650   -7.2947    5.7394 C   0  0  0  0  0  0  0  0  0  0  0  0
    2.9355   -5.9798    5.4560 C   0  0  0  0  0  0  0  0  0  0  0  0
    2.0710   -5.7026    6.6874 C   0  0  0  0  0  0  0  0  0  0  0  0
    3.8332   -4.8555    4.9709 C   0  0  0  0  0  0  0  0  0  0  0  0
    3.2586   -4.8113    3.5231 C   0  0  1  0  0  0  0  0  0  0  0  0
    4.1556   -5.6287    2.4747 C   0  0  1  0  0  0  0  0  0  0  0  0
    3.3381   -6.3341    1.5284 O   0  0  0  0  0  0  0  0  0  0  0  0
    2.1858   -6.9571    1.8356 C   0  0  0  0  0  0  0  0  0  0  0  0
    1.3578   -7.3892    1.0538 O   0  0  0  0  0  0  0  0  0  0  0  0
    1.9081   -7.1106    3.3043 C   0  0  0  0  0  0  0  0  0  0  0  0
    2.2242   -5.8349    4.0950 C   0  0  1  0  0  0  0  0  0  0  0  0
    5.4808   -5.0853    1.7341 C   0  0  1  0  0  0  0  0  0  0  0  0
    6.0233   -6.2238    1.0822 O   0  0  0  0  0  0  0  0  0  0  0  0
    5.4905   -3.9033    0.6779 C   0  0  1  0  0  0  0  0  0  0  0  0
    4.3357   -4.1307   -0.2459 C   0  0  2  0  0  0  0  0  0  0  0  0
    4.4649   -3.4223   -1.6382 C   0  0  1  0  0  0  0  0  0  0  0  0
    5.0022   -4.2488   -2.6327 O   0  0  0  0  0  0  0  0  0  0  0  0
    3.0512   -3.0819   -1.9250 C   0  0  0  0  0  0  0  0  0  0  0  0
    2.3053   -3.2169   -0.8407 C   0  0  0  0  0  0  0  0  0  0  0  0
    3.0206   -3.6737    0.4262 C   0  0  2  0  0  0  0  0  0  0  0  0
    3.0822   -2.7403    1.7458 C   0  0  1  0  0  0  0  0  0  0  0  0
    2.0632   -1.6236    1.3175 C   0  0  0  0  0  0  0  0  0  0  0  0
    2.5301   -3.4360    3.0143 C   0  0  2  0  0  0  0  0  0  0  0  0
    2.2196   -2.2223    4.0368 C   0  0  1  0  0  0  0  0  0  0  0  0
    1.8200   -2.5556    5.3472 O   0  0  0  0  0  0  0  0  0  0  0  0
    3.0711   -0.8574    3.9893 C   0  0  1  0  0  0  0  0  0  0  0  0
    3.6216   -0.5725    5.2663 O   0  0  0  0  0  0  0  0  0  0  0  0
    4.1317   -0.7086    2.8007 C   0  0  1  0  0  0  0  0  0  0  0  0
    5.2417    0.0931    3.1861 O   0  0  0  0  0  0  0  0  0  0  0  0
    4.4935   -2.1311    2.2593 C   0  0  1  0  0  0  0  0  0  0  0  0
    5.2711   -2.6265    3.5421 C   0  0  0  0  0  0  0  0  0  0  0  0
    5.4571   -2.3831    1.0892 C   0  0  1  0  0  0  0  0  0  0  0  0
    6.7851   -1.9462    1.2251 O   0  0  0  0  0  0  0  0  0  0  0  0
    4.3028   -7.2114    6.6167 H   0  0  0  0  0  0  0  0  0  0  0  0
    4.3072   -7.5818    4.9089 H   0  0  0  0  0  0  0  0  0  0  0  0
    2.9728   -8.1221    5.9043 H   0  0  0  0  0  0  0  0  0  0  0  0
    1.4629   -4.8137    6.5622 H   0  0  0  0  0  0  0  0  0  0  0  0
    2.6873   -5.5546    7.5674 H   0  0  0  0  0  0  0  0  0  0  0  0
    1.3843   -6.5229    6.8922 H   0  0  0  0  0  0  0  0  0  0  0  0
    3.7169   -3.9870    5.5997 H   0  0  0  0  0  0  0  0  0  0  0  0
    4.8689   -5.1752    4.9958 H   0  0  0  0  0  0  0  0  0  0  0  0
    4.5768   -6.4425    3.0649 H   0  0  0  0  0  0  0  0  0  0  0  0
    0.8568   -7.3810    3.4130 H   0  0  0  0  0  0  0  0  0  0  0  0
    2.4722   -7.9684    3.6631 H   0  0  0  0  0  0  0  0  0  0  0  0
    1.3098   -5.2751    4.2927 H   0  0  0  0  0  0  0  0  0  0  0  0
    6.3048   -4.9468    2.4244 H   0  0  0  0  0  0  0  0  0  0  0  0
    6.1550   -6.9053    1.7255 H   0  0  0  0  0  0  0  0  0  0  0  0
    6.3861   -4.0469    0.0637 H   0  0  0  0  0  0  0  0  0  0  0  0
    4.2316   -5.1974   -0.4817 H   0  0  0  0  0  0  0  0  0  0  0  0
    4.9971   -2.4759   -1.6456 H   0  0  0  0  0  0  0  0  0  0  0  0
    4.4505   -5.0155   -2.6930 H   0  0  0  0  0  0  0  0  0  0  0  0
    2.6603   -2.8230   -2.8968 H   0  0  0  0  0  0  0  0  0  0  0  0
    1.2516   -3.0705   -0.9081 H   0  0  0  0  0  0  0  0  0  0  0  0
    2.3498   -4.4908    0.6438 H   0  0  0  0  0  0  0  0  0  0  0  0
    1.7473   -0.8360    1.9817 H   0  0  0  0  0  0  0  0  0  0  0  0
    1.0907   -2.0361    1.1180 H   0  0  0  0  0  0  0  0  0  0  0  0
    2.4718   -1.0530    0.4859 H   0  0  0  0  0  0  0  0  0  0  0  0
    1.5230   -3.7543    2.7203 H   0  0  0  0  0  0  0  0  0  0  0  0
    1.2335   -1.8934    3.7168 H   0  0  0  0  0  0  0  0  0  0  0  0
    2.5728   -2.9257    5.7837 H   0  0  0  0  0  0  0  0  0  0  0  0
    2.3598   -0.0350    3.8788 H   0  0  0  0  0  0  0  0  0  0  0  0
    2.8976   -0.4775    5.8680 H   0  0  0  0  0  0  0  0  0  0  0  0
    3.7423   -0.0825    2.0042 H   0  0  0  0  0  0  0  0  0  0  0  0
    4.9120    0.9592    3.3896 H   0  0  0  0  0  0  0  0  0  0  0  0
    6.1919   -2.0613    3.6353 H   0  0  0  0  0  0  0  0  0  0  0  0
    5.6101   -3.6307    3.6188 H   0  0  0  0  0  0  0  0  0  0  0  0
    4.7768   -2.4964    4.5008 H   0  0  0  0  0  0  0  0  0  0  0  0
    5.1049   -1.7505    0.2867 H   0  0  0  0  0  0  0  0  0  0  0  0
    6.7880   -1.1127    1.6677 H   0  0  0  0  0  0  0  0  0  0  0  0
  1  2  1  0
  1 34  1  0
  1 35  1  0
  1 36  1  0
  2 11  1  0
  2  3  1  0
  2  4  1  0
  3 37  1  0
  3 38  1  0
  3 39  1  0
  5  4  1  1
  4 40  1  0
  4 41  1  0
  5 11  1  0
  5 23  1  0
  5  6  1  0
  6  7  1  0
  6 12  1  0
  6 42  1  1
  7  8  1  0
  8  9  2  0
  8 10  1  0
 10 11  1  0
 10 43  1  0
 10 44  1  0
 11 45  1  1
 12 13  1  0
 12 14  1  0
 12 46  1  1
 13 47  1  0
 14 32  1  0
 14 15  1  0
 14 48  1  6
 15 20  1  0
 15 16  1  0
 15 49  1  6
 16 17  1  0
 16 18  1  0
 16 50  1  1
 17 51  1  0
 18 19  2  0
 18 52  1  0
 19 20  1  0
 19 53  1  0
 20 21  1  0
 20 54  1  1
 21 30  1  0
 21 22  1  6
 21 23  1  0
 22 55  1  0
 22 56  1  0
 22 57  1  0
 23 24  1  0
 23 58  1  6
 24 25  1  0
 24 26  1  0
 24 59  1  6
 25 60  1  0
 26 27  1  0
 26 28  1  0
 26 61  1  6
 27 62  1  0
 28 29  1  0
 28 30  1  0
 28 63  1  6
 29 64  1  0
 30 31  1  1
 30 32  1  0
 31 65  1  0
 31 66  1  0
 31 67  1  0
 32 33  1  0
 32 68  1  6
 33 69  1  0
M  END
>  <i_m_ct_stereo_status>  (74) 
1

>  <s_m_source_file>  (74) 
/var/tmp/pbs.5076255.sched01/tmpi0kgw23q/0rwfjwt46.sdf

>  <i_m_source_file_index>  (74) 
39

>  <i_lp_mmshare_version>  (74) 
48012

>  <i_f3d_flags>  (74) 
0

>  <s_epik_input>  (74) 
W0NIM11DKFtDSDNdKShbQ0gyXTEpW0NAQEhdMltDSDJdQyg9TylPW0NASF0oW0NAXTEyMylbQ0BASF0oW09IXSlbQ0BIXTRbQ0BIXTVbQ0BIXShbQ0hdPVtDSF1bQ0BASF01W09IXSlDNihbQ0gzXSlbQ0BASF0zW0NAQEhdKFtPSF0pW0NAQEhdKFtPSF0pW0NAQEhdKFtPSF0pW0NAXTYoW0NIM10pW0NASF00W09IXQ==

>  <s_epik_cmdline>  (74) 
J2VwaWtfcHl0aG9uJywgJy1waHQnLCAnMi4wJywgJy1waCcsICc3LjAnLCAnLXRuJywgJzgnLCAnLW1hJywgJzIwMCcsICctaW1hZScsICc8aW5maWxlLm1hZT4nLCAnLW9tYWUnLCAnPG91dGZpbGUubWFlPic=

>  <r_lp_tautomer_probability>  (74) 
1

>  <r_epik_Ionization_Penalty>  (74) 
5.54356e-07

>  <r_epik_Ionization_Penalty_Charging>  (74) 
0

>  <r_epik_Ionization_Penalty_Neutral>  (74) 
5.54356e-07

>  <r_epik_State_Penalty>  (74) 
-0

>  <r_epik_Charging_Adjusted_Penalty>  (74) 
0

>  <i_epik_Tot_Q>  (74) 
0

>  <i_epik_Tot_abs_Q>  (74) 
0

>  <s_epik_Chemistry_Notes>  (74) 
This compound has an ester and may undergo hydrolysis at high or low pH.

>  <s_lp_Force_Field>  (74) 
OPLS3e

>  <r_lp_Energy>  (74) 
177.165

>  <b_lp_Chiralities_Consistent>  (74) 
1

>  <s_lp_Variant>  (74) 
21:0-2

>  <s_i_glide_gridfile>  (74) 
pfpi4k_grid

>  <i_i_glide_lignum>  (74) 
39

>  <i_i_glide_rotatable_bonds>  (74) 
6

>  <r_i_docking_score>  (74) 
-2.95975

>  <r_i_glide_ligand_efficiency>  (74) 
-0.0896894

>  <r_i_glide_ligand_efficiency_sa>  (74) 
-0.287682

>  <r_i_glide_ligand_efficiency_ln>  (74) 
-0.658233

>  <r_i_glide_gscore>  (74) 
-2.95975

>  <r_i_glide_lipo>  (74) 
-0.267342

>  <r_i_glide_hbond>  (74) 
-0.32

>  <r_i_glide_metal>  (74) 
-0

>  <r_i_glide_rewards>  (74) 
-0.741714

>  <r_i_glide_evdw>  (74) 
-11.9667

>  <r_i_glide_ecoul>  (74) 
-6.78451

>  <r_i_glide_erotb>  (74) 
0

>  <r_i_glide_esite>  (74) 
-0.0146819

>  <r_i_glide_emodel>  (74) 
-24.2535

>  <r_i_glide_energy>  (74) 
-18.7512

>  <r_i_glide_einternal>  (74) 
1.37694

>  <r_i_glide_intrahb_reward>  (74) 
-0.5

>  <i_i_glide_confnum>  (74) 
2

>  <i_i_glide_posenum>  (74) 
34

>  <r_i_glide_eff_state_penalty>  (74) 
0

>  <ligand_id>  (74) 
21

>  <original_smiles>  (74) 
CC1(C)CC23C(OC(=O)CC12)C(O)C1C2C(O)C=CC2C2(C)C3C(O)C(O)C(O)C2(C)C1O

>  <smiles>  (74) 
[H]OC1([H])C([H])=C([H])C2([H])C1([H])C1([H])C([H])(O[H])C3([H])OC(=O)C([H])([H])C4([H])C(C([H])([H])[H])(C([H])([H])[H])C([H])([H])C34C3([H])C([H])(O[H])C([H])(O[H])C([H])(O[H])C(C([H])([H])[H])(C1([H])O[H])C23C([H])([H])[H]

$$$$
22:0:0
     RDKit          3D

 52 55  0  0  1  0  0  0  0  0999 V2000
    6.1019   -2.9824   -2.0532 C   0  0  0  0  0  0  0  0  0  0  0  0
    4.6517   -2.5337   -1.7861 C   0  0  2  0  0  0  0  0  0  0  0  0
    4.6033   -1.1749   -1.0492 C   0  0  0  0  0  0  0  0  0  0  0  0
    4.8186   -1.2823    0.4704 C   0  0  0  0  0  0  0  0  0  0  0  0
    3.7548   -2.2043    1.1263 C   0  0  1  0  0  0  0  0  0  0  0  0
    3.8691   -3.6207    0.4988 C   0  0  2  0  0  0  0  0  0  0  0  0
    5.0858   -4.3813    1.0639 C   0  0  0  0  0  0  0  0  0  0  0  0
    5.0466   -4.4500    2.5959 C   0  0  1  0  0  0  0  0  0  0  0  0
    6.2134   -5.1203    3.0172 O   0  0  0  0  0  0  0  0  0  0  0  0
    4.9630   -3.0396    3.2437 C   0  0  2  0  0  0  0  0  0  0  0  0
    4.9454   -3.1011    4.7922 C   0  0  0  0  0  0  0  0  0  0  0  0
    3.6460   -3.7088    5.3459 C   0  0  1  0  0  0  0  0  0  0  0  0
    3.6258   -3.5612    6.7504 O   0  0  0  0  0  0  0  0  0  0  0  0
    2.3815   -3.0411    4.7708 C   0  0  0  0  0  0  0  0  0  0  0  0
    2.4340   -2.8954    3.2341 C   0  0  0  0  0  0  0  0  0  0  0  0
    3.7422   -2.2297    2.7022 C   0  0  2  0  0  0  0  0  0  0  0  0
    3.7749   -0.7643    3.2153 C   0  0  0  0  0  0  0  0  0  0  0  0
    3.8159   -3.6125   -1.0530 C   0  0  1  0  0  0  0  0  0  0  0  0
    2.3810   -3.4566   -1.5981 C   0  0  0  0  0  0  0  0  0  0  0  0
    2.5189   -3.0516   -3.0636 C   0  0  0  0  0  0  0  0  0  0  0  0
    3.8828   -2.4015   -3.1113 C   0  0  0  0  0  0  0  0  0  0  0  0
    4.2976   -1.8193   -4.1102 O   0  0  0  0  0  0  0  0  0  0  0  0
    6.6832   -3.1026   -1.1441 H   0  0  0  0  0  0  0  0  0  0  0  0
    6.6420   -2.2694   -2.6712 H   0  0  0  0  0  0  0  0  0  0  0  0
    6.1257   -3.9297   -2.5852 H   0  0  0  0  0  0  0  0  0  0  0  0
    5.3453   -0.4958   -1.4719 H   0  0  0  0  0  0  0  0  0  0  0  0
    3.6371   -0.6929   -1.2170 H   0  0  0  0  0  0  0  0  0  0  0  0
    5.8289   -1.6387    0.6799 H   0  0  0  0  0  0  0  0  0  0  0  0
    4.7679   -0.2691    0.8674 H   0  0  0  0  0  0  0  0  0  0  0  0
    2.7893   -1.7927    0.8298 H   0  0  0  0  0  0  0  0  0  0  0  0
    2.9980   -4.2018    0.8010 H   0  0  0  0  0  0  0  0  0  0  0  0
    5.1096   -5.3901    0.6507 H   0  0  0  0  0  0  0  0  0  0  0  0
    6.0167   -3.9081    0.7622 H   0  0  0  0  0  0  0  0  0  0  0  0
    4.1974   -5.0609    2.8964 H   0  0  0  0  0  0  0  0  0  0  0  0
    6.1741   -6.0152    2.7166 H   0  0  0  0  0  0  0  0  0  0  0  0
    5.8706   -2.5062    2.9620 H   0  0  0  0  0  0  0  0  0  0  0  0
    5.8027   -3.6662    5.1563 H   0  0  0  0  0  0  0  0  0  0  0  0
    5.0805   -2.0983    5.1958 H   0  0  0  0  0  0  0  0  0  0  0  0
    3.6248   -4.7754    5.1246 H   0  0  0  0  0  0  0  0  0  0  0  0
    4.3576   -4.0334    7.1180 H   0  0  0  0  0  0  0  0  0  0  0  0
    1.5117   -3.6382    5.0488 H   0  0  0  0  0  0  0  0  0  0  0  0
    2.2208   -2.0682    5.2364 H   0  0  0  0  0  0  0  0  0  0  0  0
    2.3124   -3.8957    2.8248 H   0  0  0  0  0  0  0  0  0  0  0  0
    1.5600   -2.3393    2.8917 H   0  0  0  0  0  0  0  0  0  0  0  0
    3.5789   -0.6806    4.2827 H   0  0  0  0  0  0  0  0  0  0  0  0
    3.0194   -0.1572    2.7116 H   0  0  0  0  0  0  0  0  0  0  0  0
    4.7477   -0.2987    3.0578 H   0  0  0  0  0  0  0  0  0  0  0  0
    4.1780   -4.5837   -1.3939 H   0  0  0  0  0  0  0  0  0  0  0  0
    1.8010   -4.3758   -1.4983 H   0  0  0  0  0  0  0  0  0  0  0  0
    1.8512   -2.6721   -1.0630 H   0  0  0  0  0  0  0  0  0  0  0  0
    2.5095   -3.9112   -3.7348 H   0  0  0  0  0  0  0  0  0  0  0  0
    1.7448   -2.3542   -3.3876 H   0  0  0  0  0  0  0  0  0  0  0  0
  2  1  1  6
  1 23  1  0
  1 24  1  0
  1 25  1  0
  2 18  1  0
  2 21  1  0
  2  3  1  0
  3  4  1  0
  3 26  1  0
  3 27  1  0
  4  5  1  0
  4 28  1  0
  4 29  1  0
  5 16  1  0
  5  6  1  0
  5 30  1  6
  6  7  1  0
  6 18  1  0
  6 31  1  1
  7  8  1  0
  7 32  1  0
  7 33  1  0
  8  9  1  0
  8 10  1  0
  8 34  1  6
  9 35  1  0
 10 16  1  0
 10 11  1  0
 10 36  1  1
 11 12  1  0
 11 37  1  0
 11 38  1  0
 12 13  1  0
 12 14  1  0
 12 39  1  1
 13 40  1  0
 14 15  1  0
 14 41  1  0
 14 42  1  0
 15 16  1  0
 15 43  1  0
 15 44  1  0
 16 17  1  1
 17 45  1  0
 17 46  1  0
 17 47  1  0
 18 19  1  0
 18 48  1  6
 19 20  1  0
 19 49  1  0
 19 50  1  0
 20 21  1  0
 20 51  1  0
 20 52  1  0
 21 22  2  0
M  END
>  <i_m_ct_stereo_status>  (75) 
1

>  <s_m_source_file>  (75) 
/var/tmp/pbs.5076255.sched01/tmpi0kgw23q/0rwfjwt46.sdf

>  <i_m_source_file_index>  (75) 
40

>  <i_lp_mmshare_version>  (75) 
48012

>  <i_f3d_flags>  (75) 
0

>  <s_epik_input>  (75) 
Tz1DMVtDSDJdW0NIMl1bQ0BASF0oW0NAQF0xMltDSDNdKVtDQEBIXTNbQ0BIXShbQ0gyXVtDSDJdMilbQ0BdNChbQ0gzXSlbQ0BIXShbQ0BASF0oW0NIMl0zKVtPSF0pW0NIMl1bQ0BASF0oW09IXSlbQ0gyXVtDSDJdNA==

>  <s_epik_cmdline>  (75) 
J2VwaWtfcHl0aG9uJywgJy1waHQnLCAnMi4wJywgJy1waCcsICc3LjAnLCAnLXRuJywgJzgnLCAnLW1hJywgJzIwMCcsICctaW1hZScsICc8aW5maWxlLm1hZT4nLCAnLW9tYWUnLCAnPG91dGZpbGUubWFlPic=

>  <r_lp_tautomer_probability>  (75) 
1

>  <r_epik_Ionization_Penalty>  (75) 
4.52521e-06

>  <r_epik_Ionization_Penalty_Charging>  (75) 
0

>  <r_epik_Ionization_Penalty_Neutral>  (75) 
4.52521e-06

>  <r_epik_State_Penalty>  (75) 
-0

>  <r_epik_Charging_Adjusted_Penalty>  (75) 
0

>  <i_epik_Tot_Q>  (75) 
0

>  <i_epik_Tot_abs_Q>  (75) 
0

>  <s_lp_Force_Field>  (75) 
OPLS3e

>  <r_lp_Energy>  (75) 
36.2542

>  <b_lp_Chiralities_Consistent>  (75) 
1

>  <s_lp_Variant>  (75) 
22:0-1

>  <s_i_glide_gridfile>  (75) 
pfpi4k_grid

>  <i_i_glide_lignum>  (75) 
40

>  <i_i_glide_rotatable_bonds>  (75) 
2

>  <r_i_docking_score>  (75) 
-4.08576

>  <r_i_glide_ligand_efficiency>  (75) 
-0.185716

>  <r_i_glide_ligand_efficiency_sa>  (75) 
-0.520384

>  <r_i_glide_ligand_efficiency_ln>  (75) 
-0.998709

>  <r_i_glide_gscore>  (75) 
-4.08576

>  <r_i_glide_lipo>  (75) 
-0.550987

>  <r_i_glide_hbond>  (75) 
-0.252191

>  <r_i_glide_metal>  (75) 
-0

>  <r_i_glide_rewards>  (75) 
-1.50312

>  <r_i_glide_evdw>  (75) 
-23.4744

>  <r_i_glide_ecoul>  (75) 
-4.03826

>  <r_i_glide_erotb>  (75) 
0

>  <r_i_glide_esite>  (75) 
0

>  <r_i_glide_emodel>  (75) 
-33.809

>  <r_i_glide_energy>  (75) 
-27.5126

>  <r_i_glide_einternal>  (75) 
0.657774

>  <r_i_glide_intrahb_reward>  (75) 
-0

>  <i_i_glide_confnum>  (75) 
2

>  <i_i_glide_posenum>  (75) 
38

>  <r_i_glide_eff_state_penalty>  (75) 
0

>  <ligand_id>  (75) 
22

>  <original_smiles>  (75) 
CC12CCC3C(CC(O)C4CC(O)CCC43C)C1CCC2=O

>  <smiles>  (75) 
[H]OC1([H])C([H])([H])C([H])([H])C2(C([H])([H])[H])C([H])(C1([H])[H])C([H])(O[H])C([H])([H])C1([H])C3([H])C([H])([H])C([H])([H])C(=O)C3(C([H])([H])[H])C([H])([H])C([H])([H])C12[H]

$$$$
22:0:1
     RDKit          3D

 52 55  0  0  1  0  0  0  0  0999 V2000
    5.8570   -5.4101    3.3972 C   0  0  0  0  0  0  0  0  0  0  0  0
    4.7371   -4.3472    3.4519 C   0  0  2  0  0  0  0  0  0  0  0  0
    3.4540   -4.8427    2.7535 C   0  0  0  0  0  0  0  0  0  0  0  0
    3.4933   -4.6902    1.2209 C   0  0  0  0  0  0  0  0  0  0  0  0
    3.7157   -3.2082    0.8021 C   0  0  1  0  0  0  0  0  0  0  0  0
    5.0564   -2.7135    1.3843 C   0  0  2  0  0  0  0  0  0  0  0  0
    6.2451   -3.2658    0.5724 C   0  0  0  0  0  0  0  0  0  0  0  0
    6.1215   -2.9096   -0.9168 C   0  0  1  0  0  0  0  0  0  0  0  0
    7.2515   -3.4255   -1.5781 O   0  0  0  0  0  0  0  0  0  0  0  0
    4.8034   -3.4468   -1.5357 C   0  0  2  0  0  0  0  0  0  0  0  0
    4.6633   -3.1210   -3.0448 C   0  0  0  0  0  0  0  0  0  0  0  0
    4.4838   -1.6240   -3.3034 C   0  0  1  0  0  0  0  0  0  0  0  0
    4.1758   -1.4016   -4.6635 O   0  0  0  0  0  0  0  0  0  0  0  0
    3.3870   -0.9944   -2.4714 C   0  0  0  0  0  0  0  0  0  0  0  0
    3.5003   -1.3685   -0.9731 C   0  0  0  0  0  0  0  0  0  0  0  0
    3.5855   -2.9085   -0.7338 C   0  0  2  0  0  0  0  0  0  0  0  0
    2.2591   -3.5287   -1.2265 C   0  0  0  0  0  0  0  0  0  0  0  0
    5.1450   -2.9526    2.9097 C   0  0  1  0  0  0  0  0  0  0  0  0
    4.4020   -1.9083    3.7646 C   0  0  0  0  0  0  0  0  0  0  0  0
    4.2994   -2.5177    5.1660 C   0  0  0  0  0  0  0  0  0  0  0  0
    4.4165   -4.0048    4.9038 C   0  0  0  0  0  0  0  0  0  0  0  0
    4.2810   -4.8517    5.7974 O   0  0  0  0  0  0  0  0  0  0  0  0
    6.1428   -5.6763    2.3851 H   0  0  0  0  0  0  0  0  0  0  0  0
    5.5610   -6.3321    3.8938 H   0  0  0  0  0  0  0  0  0  0  0  0
    6.7483   -5.0620    3.9117 H   0  0  0  0  0  0  0  0  0  0  0  0
    3.2762   -5.8897    3.0064 H   0  0  0  0  0  0  0  0  0  0  0  0
    2.5850   -4.2971    3.1313 H   0  0  0  0  0  0  0  0  0  0  0  0
    4.2722   -5.3302    0.8053 H   0  0  0  0  0  0  0  0  0  0  0  0
    2.5450   -5.0806    0.8431 H   0  0  0  0  0  0  0  0  0  0  0  0
    2.9193   -2.6452    1.2845 H   0  0  0  0  0  0  0  0  0  0  0  0
    5.1057   -1.6317    1.2774 H   0  0  0  0  0  0  0  0  0  0  0  0
    7.1806   -2.8623    0.9647 H   0  0  0  0  0  0  0  0  0  0  0  0
    6.3205   -4.3476    0.6622 H   0  0  0  0  0  0  0  0  0  0  0  0
    6.1872   -1.8270   -1.0182 H   0  0  0  0  0  0  0  0  0  0  0  0
    7.1892   -3.2432   -2.5038 H   0  0  0  0  0  0  0  0  0  0  0  0
    4.8135   -4.5344   -1.4539 H   0  0  0  0  0  0  0  0  0  0  0  0
    5.5215   -3.4873   -3.5961 H   0  0  0  0  0  0  0  0  0  0  0  0
    3.8072   -3.6586   -3.4537 H   0  0  0  0  0  0  0  0  0  0  0  0
    5.4039   -1.1067   -3.0466 H   0  0  0  0  0  0  0  0  0  0  0  0
    3.7064   -0.5847   -4.7392 H   0  0  0  0  0  0  0  0  0  0  0  0
    3.4750    0.0866   -2.6233 H   0  0  0  0  0  0  0  0  0  0  0  0
    2.3957   -1.2494   -2.8482 H   0  0  0  0  0  0  0  0  0  0  0  0
    4.3590   -0.8394   -0.5761 H   0  0  0  0  0  0  0  0  0  0  0  0
    2.6626   -0.9459   -0.4058 H   0  0  0  0  0  0  0  0  0  0  0  0
    1.9679   -3.2398   -2.2347 H   0  0  0  0  0  0  0  0  0  0  0  0
    1.4579   -3.2284   -0.5726 H   0  0  0  0  0  0  0  0  0  0  0  0
    2.2918   -4.6133   -1.2151 H   0  0  0  0  0  0  0  0  0  0  0  0
    6.1686   -2.7991    3.1784 H   0  0  0  0  0  0  0  0  0  0  0  0
    4.9446   -0.9612    3.7861 H   0  0  0  0  0  0  0  0  0  0  0  0
    3.3976   -1.7114    3.3865 H   0  0  0  0  0  0  0  0  0  0  0  0
    5.1300   -2.2099    5.8072 H   0  0  0  0  0  0  0  0  0  0  0  0
    3.3643   -2.2687    5.6705 H   0  0  0  0  0  0  0  0  0  0  0  0
  2  1  1  1
  1 23  1  0
  1 24  1  0
  1 25  1  0
  2 18  1  0
  2 21  1  0
  2  3  1  0
  3  4  1  0
  3 26  1  0
  3 27  1  0
  4  5  1  0
  4 28  1  0
  4 29  1  0
  5 16  1  0
  5  6  1  0
  5 30  1  1
  6  7  1  0
  6 18  1  0
  6 31  1  1
  7  8  1  0
  7 32  1  0
  7 33  1  0
  8  9  1  0
  8 10  1  0
  8 34  1  1
  9 35  1  0
 10 16  1  0
 10 11  1  0
 10 36  1  6
 11 12  1  0
 11 37  1  0
 11 38  1  0
 12 13  1  0
 12 14  1  0
 12 39  1  1
 13 40  1  0
 14 15  1  0
 14 41  1  0
 14 42  1  0
 15 16  1  0
 15 43  1  0
 15 44  1  0
 16 17  1  6
 17 45  1  0
 17 46  1  0
 17 47  1  0
 18 19  1  0
 18 48  1  1
 19 20  1  0
 19 49  1  0
 19 50  1  0
 20 21  1  0
 20 51  1  0
 20 52  1  0
 21 22  2  0
M  END
>  <i_m_ct_stereo_status>  (76) 
1

>  <s_m_source_file>  (76) 
/var/tmp/pbs.5076255.sched01/tmpi0kgw23q/0rwfjwt46.sdf

>  <i_m_source_file_index>  (76) 
40

>  <i_lp_mmshare_version>  (76) 
48012

>  <i_f3d_flags>  (76) 
0

>  <s_epik_input>  (76) 
Tz1DMVtDSDJdW0NIMl1bQ0BASF0oW0NAQF0xMltDSDNdKVtDQEBIXTNbQ0BIXShbQ0gyXVtDSDJdMilbQ0BdNChbQ0gzXSlbQ0BIXShbQ0BASF0oW0NIMl0zKVtPSF0pW0NIMl1bQ0BASF0oW09IXSlbQ0gyXVtDSDJdNA==

>  <s_epik_cmdline>  (76) 
J2VwaWtfcHl0aG9uJywgJy1waHQnLCAnMi4wJywgJy1waCcsICc3LjAnLCAnLXRuJywgJzgnLCAnLW1hJywgJzIwMCcsICctaW1hZScsICc8aW5maWxlLm1hZT4nLCAnLW9tYWUnLCAnPG91dGZpbGUubWFlPic=

>  <r_lp_tautomer_probability>  (76) 
1

>  <r_epik_Ionization_Penalty>  (76) 
4.52521e-06

>  <r_epik_Ionization_Penalty_Charging>  (76) 
0

>  <r_epik_Ionization_Penalty_Neutral>  (76) 
4.52521e-06

>  <r_epik_State_Penalty>  (76) 
-0

>  <r_epik_Charging_Adjusted_Penalty>  (76) 
0

>  <i_epik_Tot_Q>  (76) 
0

>  <i_epik_Tot_abs_Q>  (76) 
0

>  <s_lp_Force_Field>  (76) 
OPLS3e

>  <r_lp_Energy>  (76) 
36.2542

>  <b_lp_Chiralities_Consistent>  (76) 
1

>  <s_lp_Variant>  (76) 
22:0-1

>  <s_i_glide_gridfile>  (76) 
pfpi4k_grid

>  <i_i_glide_lignum>  (76) 
40

>  <i_i_glide_rotatable_bonds>  (76) 
2

>  <r_i_docking_score>  (76) 
-3.79155

>  <r_i_glide_ligand_efficiency>  (76) 
-0.172343

>  <r_i_glide_ligand_efficiency_sa>  (76) 
-0.482913

>  <r_i_glide_ligand_efficiency_ln>  (76) 
-0.926794

>  <r_i_glide_gscore>  (76) 
-3.79155

>  <r_i_glide_lipo>  (76) 
-0.465568

>  <r_i_glide_hbond>  (76) 
-0.354506

>  <r_i_glide_metal>  (76) 
-0

>  <r_i_glide_rewards>  (76) 
-1.32365

>  <r_i_glide_evdw>  (76) 
-15.2322

>  <r_i_glide_ecoul>  (76) 
-5.90814

>  <r_i_glide_erotb>  (76) 
0

>  <r_i_glide_esite>  (76) 
0

>  <r_i_glide_emodel>  (76) 
-26.38

>  <r_i_glide_energy>  (76) 
-21.1403

>  <r_i_glide_einternal>  (76) 
1.32558

>  <r_i_glide_intrahb_reward>  (76) 
-0

>  <i_i_glide_confnum>  (76) 
2

>  <i_i_glide_posenum>  (76) 
40

>  <r_i_glide_eff_state_penalty>  (76) 
0

>  <ligand_id>  (76) 
22

>  <original_smiles>  (76) 
CC12CCC3C(CC(O)C4CC(O)CCC43C)C1CCC2=O

>  <smiles>  (76) 
[H]OC1([H])C([H])([H])C([H])([H])C2(C([H])([H])[H])C([H])(C1([H])[H])C([H])(O[H])C([H])([H])C1([H])C3([H])C([H])([H])C([H])([H])C(=O)C3(C([H])([H])[H])C([H])([H])C([H])([H])C12[H]

$$$$
22:0:2
     RDKit          3D

 52 55  0  0  1  0  0  0  0  0999 V2000
    5.8570   -5.4102    3.3975 C   0  0  0  0  0  0  0  0  0  0  0  0
    4.7335   -4.3473    3.4489 C   0  0  2  0  0  0  0  0  0  0  0  0
    3.4526   -4.8455    2.7481 C   0  0  0  0  0  0  0  0  0  0  0  0
    3.4930   -4.6902    1.2140 C   0  0  0  0  0  0  0  0  0  0  0  0
    3.7160   -3.2113    0.7955 C   0  0  1  0  0  0  0  0  0  0  0  0
    5.0516   -2.7170    1.3830 C   0  0  2  0  0  0  0  0  0  0  0  0
    6.2478   -3.2720    0.5786 C   0  0  0  0  0  0  0  0  0  0  0  0
    6.1202   -2.9125   -0.9117 C   0  0  1  0  0  0  0  0  0  0  0  0
    7.2386   -3.4541   -1.5858 O   0  0  0  0  0  0  0  0  0  0  0  0
    4.7998   -3.4438   -1.5337 C   0  0  2  0  0  0  0  0  0  0  0  0
    4.6579   -3.1152   -3.0422 C   0  0  0  0  0  0  0  0  0  0  0  0
    4.4812   -1.6188   -3.3092 C   0  0  1  0  0  0  0  0  0  0  0  0
    4.1781   -1.3888   -4.6702 O   0  0  0  0  0  0  0  0  0  0  0  0
    3.3841   -0.9858   -2.4736 C   0  0  0  0  0  0  0  0  0  0  0  0
    3.4939   -1.3669   -0.9780 C   0  0  0  0  0  0  0  0  0  0  0  0
    3.5774   -2.9037   -0.7368 C   0  0  2  0  0  0  0  0  0  0  0  0
    2.2591   -3.5310   -1.2344 C   0  0  0  0  0  0  0  0  0  0  0  0
    5.1425   -2.9537    2.9096 C   0  0  1  0  0  0  0  0  0  0  0  0
    4.4015   -1.9095    3.7660 C   0  0  0  0  0  0  0  0  0  0  0  0
    4.2998   -2.5187    5.1672 C   0  0  0  0  0  0  0  0  0  0  0  0
    4.4155   -4.0036    4.9042 C   0  0  0  0  0  0  0  0  0  0  0  0
    4.2826   -4.8499    5.7968 O   0  0  0  0  0  0  0  0  0  0  0  0
    6.1392   -5.6739    2.3829 H   0  0  0  0  0  0  0  0  0  0  0  0
    5.5603   -6.3346    3.8949 H   0  0  0  0  0  0  0  0  0  0  0  0
    6.7497   -5.0628    3.9117 H   0  0  0  0  0  0  0  0  0  0  0  0
    3.2730   -5.8922    3.0072 H   0  0  0  0  0  0  0  0  0  0  0  0
    2.5864   -4.2943    3.1261 H   0  0  0  0  0  0  0  0  0  0  0  0
    4.2725   -5.3316    0.8001 H   0  0  0  0  0  0  0  0  0  0  0  0
    2.5447   -5.0803    0.8401 H   0  0  0  0  0  0  0  0  0  0  0  0
    2.9194   -2.6489    1.2866 H   0  0  0  0  0  0  0  0  0  0  0  0
    5.1077   -1.6380    1.2751 H   0  0  0  0  0  0  0  0  0  0  0  0
    7.1801   -2.8671    0.9712 H   0  0  0  0  0  0  0  0  0  0  0  0
    6.3212   -4.3535    0.6667 H   0  0  0  0  0  0  0  0  0  0  0  0
    6.1948   -1.8294   -1.0167 H   0  0  0  0  0  0  0  0  0  0  0  0
    8.0336   -3.1002   -1.2347 H   0  0  0  0  0  0  0  0  0  0  0  0
    4.8036   -4.5279   -1.4552 H   0  0  0  0  0  0  0  0  0  0  0  0
    5.5269   -3.4810   -3.5898 H   0  0  0  0  0  0  0  0  0  0  0  0
    3.8083   -3.6575   -3.4589 H   0  0  0  0  0  0  0  0  0  0  0  0
    5.4062   -1.1074   -3.0532 H   0  0  0  0  0  0  0  0  0  0  0  0
    3.8834   -0.4991   -4.7759 H   0  0  0  0  0  0  0  0  0  0  0  0
    3.4758    0.0893   -2.6208 H   0  0  0  0  0  0  0  0  0  0  0  0
    2.3967   -1.2363   -2.8515 H   0  0  0  0  0  0  0  0  0  0  0  0
    4.3557   -0.8383   -0.5763 H   0  0  0  0  0  0  0  0  0  0  0  0
    2.6521   -0.9416   -0.4095 H   0  0  0  0  0  0  0  0  0  0  0  0
    1.9618   -3.2337   -2.2404 H   0  0  0  0  0  0  0  0  0  0  0  0
    1.4494   -3.2453   -0.5790 H   0  0  0  0  0  0  0  0  0  0  0  0
    2.2922   -4.6140   -1.2306 H   0  0  0  0  0  0  0  0  0  0  0  0
    6.1649   -2.8004    3.1802 H   0  0  0  0  0  0  0  0  0  0  0  0
    4.9494   -0.9637    3.7874 H   0  0  0  0  0  0  0  0  0  0  0  0
    3.4002   -1.7153    3.3817 H   0  0  0  0  0  0  0  0  0  0  0  0
    5.1286   -2.2091    5.8088 H   0  0  0  0  0  0  0  0  0  0  0  0
    3.3626   -2.2692    5.6666 H   0  0  0  0  0  0  0  0  0  0  0  0
  2  1  1  1
  1 23  1  0
  1 24  1  0
  1 25  1  0
  2 18  1  0
  2 21  1  0
  2  3  1  0
  3  4  1  0
  3 26  1  0
  3 27  1  0
  4  5  1  0
  4 28  1  0
  4 29  1  0
  5 16  1  0
  5  6  1  0
  5 30  1  1
  6  7  1  0
  6 18  1  0
  6 31  1  1
  7  8  1  0
  7 32  1  0
  7 33  1  0
  8  9  1  0
  8 10  1  0
  8 34  1  1
  9 35  1  0
 10 16  1  0
 10 11  1  0
 10 36  1  6
 11 12  1  0
 11 37  1  0
 11 38  1  0
 12 13  1  0
 12 14  1  0
 12 39  1  1
 13 40  1  0
 14 15  1  0
 14 41  1  0
 14 42  1  0
 15 16  1  0
 15 43  1  0
 15 44  1  0
 16 17  1  6
 17 45  1  0
 17 46  1  0
 17 47  1  0
 18 19  1  0
 18 48  1  1
 19 20  1  0
 19 49  1  0
 19 50  1  0
 20 21  1  0
 20 51  1  0
 20 52  1  0
 21 22  2  0
M  END
>  <i_m_ct_stereo_status>  (77) 
1

>  <s_m_source_file>  (77) 
/var/tmp/pbs.5076255.sched01/tmpi0kgw23q/0rwfjwt46.sdf

>  <i_m_source_file_index>  (77) 
40

>  <i_lp_mmshare_version>  (77) 
48012

>  <i_f3d_flags>  (77) 
0

>  <s_epik_input>  (77) 
Tz1DMVtDSDJdW0NIMl1bQ0BASF0oW0NAQF0xMltDSDNdKVtDQEBIXTNbQ0BIXShbQ0gyXVtDSDJdMilbQ0BdNChbQ0gzXSlbQ0BIXShbQ0BASF0oW0NIMl0zKVtPSF0pW0NIMl1bQ0BASF0oW09IXSlbQ0gyXVtDSDJdNA==

>  <s_epik_cmdline>  (77) 
J2VwaWtfcHl0aG9uJywgJy1waHQnLCAnMi4wJywgJy1waCcsICc3LjAnLCAnLXRuJywgJzgnLCAnLW1hJywgJzIwMCcsICctaW1hZScsICc8aW5maWxlLm1hZT4nLCAnLW9tYWUnLCAnPG91dGZpbGUubWFlPic=

>  <r_lp_tautomer_probability>  (77) 
1

>  <r_epik_Ionization_Penalty>  (77) 
4.52521e-06

>  <r_epik_Ionization_Penalty_Charging>  (77) 
0

>  <r_epik_Ionization_Penalty_Neutral>  (77) 
4.52521e-06

>  <r_epik_State_Penalty>  (77) 
-0

>  <r_epik_Charging_Adjusted_Penalty>  (77) 
0

>  <i_epik_Tot_Q>  (77) 
0

>  <i_epik_Tot_abs_Q>  (77) 
0

>  <s_lp_Force_Field>  (77) 
OPLS3e

>  <r_lp_Energy>  (77) 
36.2542

>  <b_lp_Chiralities_Consistent>  (77) 
1

>  <s_lp_Variant>  (77) 
22:0-1

>  <s_i_glide_gridfile>  (77) 
pfpi4k_grid

>  <i_i_glide_lignum>  (77) 
40

>  <i_i_glide_rotatable_bonds>  (77) 
2

>  <r_i_docking_score>  (77) 
-3.47121

>  <r_i_glide_ligand_efficiency>  (77) 
-0.157782

>  <r_i_glide_ligand_efficiency_sa>  (77) 
-0.442112

>  <r_i_glide_ligand_efficiency_ln>  (77) 
-0.84849

>  <r_i_glide_gscore>  (77) 
-3.47121

>  <r_i_glide_lipo>  (77) 
-0.465902

>  <r_i_glide_hbond>  (77) 
-0.32

>  <r_i_glide_metal>  (77) 
-0

>  <r_i_glide_rewards>  (77) 
-1.32365

>  <r_i_glide_evdw>  (77) 
-14.8371

>  <r_i_glide_ecoul>  (77) 
-4.13199

>  <r_i_glide_erotb>  (77) 
0

>  <r_i_glide_esite>  (77) 
0

>  <r_i_glide_emodel>  (77) 
-23.9308

>  <r_i_glide_energy>  (77) 
-18.9691

>  <r_i_glide_einternal>  (77) 
0.927353

>  <r_i_glide_intrahb_reward>  (77) 
-0

>  <i_i_glide_confnum>  (77) 
2

>  <i_i_glide_posenum>  (77) 
1

>  <r_i_glide_eff_state_penalty>  (77) 
0

>  <ligand_id>  (77) 
22

>  <original_smiles>  (77) 
CC12CCC3C(CC(O)C4CC(O)CCC43C)C1CCC2=O

>  <smiles>  (77) 
[H]OC1([H])C([H])([H])C([H])([H])C2(C([H])([H])[H])C([H])(C1([H])[H])C([H])(O[H])C([H])([H])C1([H])C3([H])C([H])([H])C([H])([H])C(=O)C3(C([H])([H])[H])C([H])([H])C([H])([H])C12[H]

$$$$
23:0:0
     RDKit          3D

 58 62  0  0  1  0  0  0  0  0999 V2000
    2.4278   -2.8317    5.5394 C   0  0  0  0  0  0  0  0  0  0  0  0
    3.3423   -2.3452    4.3858 C   0  0  2  0  0  0  0  0  0  0  0  0
    4.3477   -1.3146    4.9701 C   0  0  0  0  0  0  0  0  0  0  0  0
    3.6842   -0.0185    5.4512 C   0  0  0  0  0  0  0  0  0  0  0  0
    2.8153    0.5916    4.3500 C   0  0  0  0  0  0  0  0  0  0  0  0
    2.8694    1.7784    4.0757 O   0  0  0  0  0  0  0  0  0  0  0  0
    1.8254   -0.3552    3.6574 C   0  0  0  0  0  0  0  0  0  0  0  0
    2.4518   -1.7122    3.2570 C   0  0  1  0  0  0  0  0  0  0  0  0
    3.0592   -1.7083    1.8180 C   0  0  1  0  0  0  0  0  0  0  0  0
    4.0723   -0.5847    1.5002 C   0  0  0  0  0  0  0  0  0  0  0  0
    4.6776   -0.7636    0.1353 C   0  0  0  0  0  0  0  0  0  0  0  0
    4.6589   -1.8960   -0.5844 C   0  0  0  0  0  0  0  0  0  0  0  0
    5.0754   -1.9041   -2.0439 C   0  0  0  0  0  0  0  0  0  0  0  0
    3.7937   -2.0826   -2.9043 C   0  0  0  0  0  0  0  0  0  0  0  0
    3.0637   -3.3799   -2.5402 C   0  0  0  0  0  0  0  0  0  0  0  0
    2.7729   -3.4207   -1.0140 C   0  0  1  0  0  0  0  0  0  0  0  0
    2.0756   -4.5973   -0.7186 O   0  0  0  0  0  0  0  0  0  0  0  0
    4.0219   -3.2059   -0.0985 C   0  0  1  0  0  0  0  0  0  0  0  0
    5.0325   -4.3591   -0.3119 C   0  0  0  0  0  0  0  0  0  0  0  0
    3.6175   -3.0982    1.4251 C   0  0  1  0  0  0  0  0  0  0  0  0
    4.7065   -3.4739    2.4609 C   0  0  0  0  0  0  0  0  0  0  0  0
    4.0960   -3.5959    3.8628 C   0  0  0  0  0  0  0  0  0  0  0  0
    4.1475   -2.1359   -4.2392 O   0  0  0  0  0  0  0  0  0  0  0  0
    4.0072   -0.8109   -4.7160 C   0  0  0  0  0  0  0  0  0  0  0  0
    3.4965    0.0185   -3.5625 C   0  0  0  0  0  0  0  0  0  0  0  0
    2.9582   -0.9902   -2.7355 O   0  0  0  0  0  0  0  0  0  0  0  0
    3.0088   -3.2494    6.3623 H   0  0  0  0  0  0  0  0  0  0  0  0
    1.7446   -3.6106    5.2046 H   0  0  0  0  0  0  0  0  0  0  0  0
    1.8112   -2.0359    5.9521 H   0  0  0  0  0  0  0  0  0  0  0  0
    4.8973   -1.7561    5.8091 H   0  0  0  0  0  0  0  0  0  0  0  0
    5.1070   -1.0626    4.2387 H   0  0  0  0  0  0  0  0  0  0  0  0
    3.0531   -0.2031    6.3164 H   0  0  0  0  0  0  0  0  0  0  0  0
    4.4283    0.7143    5.7686 H   0  0  0  0  0  0  0  0  0  0  0  0
    1.0003   -0.5147    4.3493 H   0  0  0  0  0  0  0  0  0  0  0  0
    1.3995    0.1479    2.7878 H   0  0  0  0  0  0  0  0  0  0  0  0
    1.6033   -2.3841    3.1605 H   0  0  0  0  0  0  0  0  0  0  0  0
    2.2132   -1.5130    1.1606 H   0  0  0  0  0  0  0  0  0  0  0  0
    3.5701    0.3812    1.5172 H   0  0  0  0  0  0  0  0  0  0  0  0
    4.8949   -0.5264    2.2027 H   0  0  0  0  0  0  0  0  0  0  0  0
    5.0822    0.1416   -0.2986 H   0  0  0  0  0  0  0  0  0  0  0  0
    5.5945   -0.9651   -2.2735 H   0  0  0  0  0  0  0  0  0  0  0  0
    5.7744   -2.7119   -2.2788 H   0  0  0  0  0  0  0  0  0  0  0  0
    2.1347   -3.4518   -3.1155 H   0  0  0  0  0  0  0  0  0  0  0  0
    3.6899   -4.2557   -2.8584 H   0  0  0  0  0  0  0  0  0  0  0  0
    2.0407   -2.6642   -0.7926 H   0  0  0  0  0  0  0  0  0  0  0  0
    2.4377   -5.2722   -1.3074 H   0  0  0  0  0  0  0  0  0  0  0  0
    4.6692   -5.2920    0.1148 H   0  0  0  0  0  0  0  0  0  0  0  0
    5.9946   -4.1195    0.1417 H   0  0  0  0  0  0  0  0  0  0  0  0
    5.2434   -4.5625   -1.3579 H   0  0  0  0  0  0  0  0  0  0  0  0
    2.8174   -3.8165    1.5780 H   0  0  0  0  0  0  0  0  0  0  0  0
    5.1435   -4.4495    2.2351 H   0  0  0  0  0  0  0  0  0  0  0  0
    5.5337   -2.7618    2.4518 H   0  0  0  0  0  0  0  0  0  0  0  0
    4.8718   -3.8726    4.5655 H   0  0  0  0  0  0  0  0  0  0  0  0
    3.4061   -4.4462    3.8403 H   0  0  0  0  0  0  0  0  0  0  0  0
    4.9726   -0.4553   -5.0267 H   0  0  0  0  0  0  0  0  0  0  0  0
    3.3192   -0.7486   -5.5594 H   0  0  0  0  0  0  0  0  0  0  0  0
    4.2918    0.5493   -3.0353 H   0  0  0  0  0  0  0  0  0  0  0  0
    2.7716    0.7412   -3.9570 H   0  0  0  0  0  0  0  0  0  0  0  0
  2  1  1  1
  1 27  1  0
  1 28  1  0
  1 29  1  0
  2  8  1  0
  2 22  1  0
  2  3  1  0
  3  4  1  0
  3 30  1  0
  3 31  1  0
  4  5  1  0
  4 32  1  0
  4 33  1  0
  5  6  2  0
  5  7  1  0
  7  8  1  0
  7 34  1  0
  7 35  1  0
  8  9  1  0
  8 36  1  6
  9 20  1  0
  9 10  1  0
  9 37  1  6
 10 11  1  0
 10 38  1  0
 10 39  1  0
 11 12  2  0
 11 40  1  0
 12 18  1  0
 12 13  1  0
 13 14  1  0
 13 41  1  0
 13 42  1  0
 14 26  1  0
 14 15  1  0
 14 23  1  0
 15 16  1  0
 15 43  1  0
 15 44  1  0
 16 17  1  0
 16 18  1  0
 16 45  1  6
 17 46  1  0
 18 19  1  1
 18 20  1  0
 19 47  1  0
 19 48  1  0
 19 49  1  0
 20 21  1  0
 20 50  1  6
 21 22  1  0
 21 51  1  0
 21 52  1  0
 22 53  1  0
 22 54  1  0
 23 24  1  0
 24 25  1  0
 24 55  1  0
 24 56  1  0
 25 26  1  0
 25 57  1  0
 25 58  1  0
M  END
>  <i_m_ct_stereo_status>  (78) 
1

>  <s_m_source_file>  (78) 
/var/tmp/pbs.5076255.sched01/tmpi0kgw23q/0rwfjwt46.sdf

>  <i_m_source_file_index>  (78) 
41

>  <i_lp_mmshare_version>  (78) 
48012

>  <i_f3d_flags>  (78) 
0

>  <s_epik_input>  (78) 
Tz1DKFtDSDJdMSlbQ0gyXVtDSDJdW0NAXShbQ0gzXSkoW0NIMl1bQ0gyXTIpW0NAQEhdMVtDQEBIXShbQ0gyXVtDSF09MylbQ0BIXTJbQ0BAXShbQ0gzXSkoW0NAQEhdKFtDSDJdNClbT0hdKUMzW0NIMl1DNDVPW0NIMl1bQ0gyXU81

>  <s_epik_cmdline>  (78) 
J2VwaWtfcHl0aG9uJywgJy1waHQnLCAnMi4wJywgJy1waCcsICc3LjAnLCAnLXRuJywgJzgnLCAnLW1hJywgJzIwMCcsICctaW1hZScsICc8aW5maWxlLm1hZT4nLCAnLW9tYWUnLCAnPG91dGZpbGUubWFlPic=

>  <r_lp_tautomer_probability>  (78) 
1

>  <r_epik_Ionization_Penalty>  (78) 
5.73672e-08

>  <r_epik_Ionization_Penalty_Charging>  (78) 
0

>  <r_epik_Ionization_Penalty_Neutral>  (78) 
5.73672e-08

>  <r_epik_State_Penalty>  (78) 
-0

>  <r_epik_Charging_Adjusted_Penalty>  (78) 
0

>  <i_epik_Tot_Q>  (78) 
0

>  <i_epik_Tot_abs_Q>  (78) 
0

>  <s_lp_Force_Field>  (78) 
OPLS3e

>  <r_lp_Energy>  (78) 
24.3997

>  <b_lp_Chiralities_Consistent>  (78) 
1

>  <s_lp_Variant>  (78) 
23:0-1

>  <s_i_glide_gridfile>  (78) 
pfpi4k_grid

>  <i_i_glide_lignum>  (78) 
41

>  <i_i_glide_rotatable_bonds>  (78) 
1

>  <r_i_docking_score>  (78) 
-4.07082

>  <r_i_glide_ligand_efficiency>  (78) 
-0.15657

>  <r_i_glide_ligand_efficiency_sa>  (78) 
-0.463838

>  <r_i_glide_ligand_efficiency_ln>  (78) 
-0.956019

>  <r_i_glide_gscore>  (78) 
-4.07082

>  <r_i_glide_lipo>  (78) 
-0.366822

>  <r_i_glide_hbond>  (78) 
-0.608

>  <r_i_glide_metal>  (78) 
-0

>  <r_i_glide_rewards>  (78) 
-1.0201

>  <r_i_glide_evdw>  (78) 
-19.2418

>  <r_i_glide_ecoul>  (78) 
-7.42485

>  <r_i_glide_erotb>  (78) 
0

>  <r_i_glide_esite>  (78) 
-8.42389e-05

>  <r_i_glide_emodel>  (78) 
-33.039

>  <r_i_glide_energy>  (78) 
-26.6667

>  <r_i_glide_einternal>  (78) 
0.72048

>  <r_i_glide_intrahb_reward>  (78) 
-0

>  <i_i_glide_confnum>  (78) 
3

>  <i_i_glide_posenum>  (78) 
2

>  <r_i_glide_eff_state_penalty>  (78) 
0

>  <ligand_id>  (78) 
23

>  <original_smiles>  (78) 
CC12CCC(=O)CC1C1CC=C3CC4(CC(O)C3(C)C1CC2)OCCO4

>  <smiles>  (78) 
[H]OC1([H])C([H])([H])C2(OC([H])([H])C([H])([H])O2)C([H])([H])C2=C([H])C([H])([H])C3([H])C([H])(C([H])([H])C([H])([H])C4(C([H])([H])[H])C([H])([H])C([H])([H])C(=O)C([H])([H])C34[H])C21C([H])([H])[H]

$$$$
23:0:1
     RDKit          3D

 58 62  0  0  1  0  0  0  0  0999 V2000
    5.7039   -0.6632    0.2918 C   0  0  0  0  0  0  0  0  0  0  0  0
    5.4227   -2.1762    0.4589 C   0  0  2  0  0  0  0  0  0  0  0  0
    6.2709   -2.9478   -0.5859 C   0  0  0  0  0  0  0  0  0  0  0  0
    5.8388   -2.6821   -2.0379 C   0  0  0  0  0  0  0  0  0  0  0  0
    4.3408   -2.8867   -2.2432 C   0  0  0  0  0  0  0  0  0  0  0  0
    3.9070   -3.4002   -3.2689 O   0  0  0  0  0  0  0  0  0  0  0  0
    3.4117   -2.2684   -1.1886 C   0  0  0  0  0  0  0  0  0  0  0  0
    3.8867   -2.4363    0.2804 C   0  0  1  0  0  0  0  0  0  0  0  0
    3.3066   -3.6996    0.9747 C   0  0  1  0  0  0  0  0  0  0  0  0
    3.5171   -5.0383    0.2378 C   0  0  0  0  0  0  0  0  0  0  0  0
    3.0392   -6.2012    1.0493 C   0  0  0  0  0  0  0  0  0  0  0  0
    2.7939   -6.1856    2.3782 C   0  0  0  0  0  0  0  0  0  0  0  0
    2.0677   -7.3348    3.0485 C   0  0  0  0  0  0  0  0  0  0  0  0
    0.6446   -6.8461    3.4486 C   0  0  0  0  0  0  0  0  0  0  0  0
    0.7209   -5.6050    4.3549 C   0  0  0  0  0  0  0  0  0  0  0  0
    1.5779   -4.4875    3.6954 C   0  0  1  0  0  0  0  0  0  0  0  0
    1.6391   -3.4093    4.5959 O   0  0  0  0  0  0  0  0  0  0  0  0
    3.0151   -4.9464    3.2508 C   0  0  1  0  0  0  0  0  0  0  0  0
    3.8453   -5.3553    4.5002 C   0  0  0  0  0  0  0  0  0  0  0  0
    3.7563   -3.8076    2.4521 C   0  0  1  0  0  0  0  0  0  0  0  0
    5.3036   -3.8392    2.4656 C   0  0  0  0  0  0  0  0  0  0  0  0
    5.8833   -2.5423    1.8875 C   0  0  0  0  0  0  0  0  0  0  0  0
   -0.0143   -7.8659    4.1068 O   0  0  0  0  0  0  0  0  0  0  0  0
   -0.7586   -8.5805    3.1419 C   0  0  0  0  0  0  0  0  0  0  0  0
   -0.5095   -7.8158    1.8474 C   0  0  0  0  0  0  0  0  0  0  0  0
   -0.0953   -6.5517    2.3026 O   0  0  0  0  0  0  0  0  0  0  0  0
    6.7700   -0.4624    0.3904 H   0  0  0  0  0  0  0  0  0  0  0  0
    5.1883   -0.0808    1.0509 H   0  0  0  0  0  0  0  0  0  0  0  0
    5.3733   -0.2915   -0.6746 H   0  0  0  0  0  0  0  0  0  0  0  0
    7.3236   -2.6789   -0.4873 H   0  0  0  0  0  0  0  0  0  0  0  0
    6.2317   -4.0193   -0.4054 H   0  0  0  0  0  0  0  0  0  0  0  0
    6.0394   -1.6539   -2.3206 H   0  0  0  0  0  0  0  0  0  0  0  0
    6.3870   -3.3150   -2.7329 H   0  0  0  0  0  0  0  0  0  0  0  0
    3.3529   -1.2078   -1.4290 H   0  0  0  0  0  0  0  0  0  0  0  0
    2.4031   -2.6566   -1.3114 H   0  0  0  0  0  0  0  0  0  0  0  0
    3.3941   -1.6170    0.8092 H   0  0  0  0  0  0  0  0  0  0  0  0
    2.2280   -3.5482    0.9861 H   0  0  0  0  0  0  0  0  0  0  0  0
    2.9475   -5.0247   -0.6921 H   0  0  0  0  0  0  0  0  0  0  0  0
    4.5493   -5.2448   -0.0214 H   0  0  0  0  0  0  0  0  0  0  0  0
    2.8076   -7.0868    0.4823 H   0  0  0  0  0  0  0  0  0  0  0  0
    2.0248   -8.2046    2.3803 H   0  0  0  0  0  0  0  0  0  0  0  0
    2.6005   -7.6442    3.9621 H   0  0  0  0  0  0  0  0  0  0  0  0
   -0.2828   -5.2406    4.5618 H   0  0  0  0  0  0  0  0  0  0  0  0
    1.1313   -5.8918    5.3195 H   0  0  0  0  0  0  0  0  0  0  0  0
    1.0288   -4.1384    2.8166 H   0  0  0  0  0  0  0  0  0  0  0  0
    2.0899   -2.6740    4.1581 H   0  0  0  0  0  0  0  0  0  0  0  0
    4.1135   -4.4899    5.1033 H   0  0  0  0  0  0  0  0  0  0  0  0
    4.7554   -5.8724    4.2024 H   0  0  0  0  0  0  0  0  0  0  0  0
    3.3175   -6.0353    5.1603 H   0  0  0  0  0  0  0  0  0  0  0  0
    3.4936   -2.8628    2.9310 H   0  0  0  0  0  0  0  0  0  0  0  0
    5.6861   -3.9219    3.4798 H   0  0  0  0  0  0  0  0  0  0  0  0
    5.6887   -4.7056    1.9246 H   0  0  0  0  0  0  0  0  0  0  0  0
    6.9877   -2.6038    1.8890 H   0  0  0  0  0  0  0  0  0  0  0  0
    5.5979   -1.7383    2.5705 H   0  0  0  0  0  0  0  0  0  0  0  0
   -0.4170   -9.6113    3.0631 H   0  0  0  0  0  0  0  0  0  0  0  0
   -1.8184   -8.5843    3.3971 H   0  0  0  0  0  0  0  0  0  0  0  0
    0.3292   -8.2504    1.3011 H   0  0  0  0  0  0  0  0  0  0  0  0
   -1.3874   -7.8138    1.1969 H   0  0  0  0  0  0  0  0  0  0  0  0
  2  1  1  6
  1 27  1  0
  1 28  1  0
  1 29  1  0
  2  8  1  0
  2 22  1  0
  2  3  1  0
  3  4  1  0
  3 30  1  0
  3 31  1  0
  4  5  1  0
  4 32  1  0
  4 33  1  0
  5  6  2  0
  5  7  1  0
  7  8  1  0
  7 34  1  0
  7 35  1  0
  8  9  1  0
  8 36  1  1
  9 20  1  0
  9 10  1  0
  9 37  1  1
 10 11  1  0
 10 38  1  0
 10 39  1  0
 11 12  2  0
 11 40  1  0
 12 18  1  0
 12 13  1  0
 13 14  1  0
 13 41  1  0
 13 42  1  0
 14 26  1  0
 14 15  1  0
 14 23  1  0
 15 16  1  0
 15 43  1  0
 15 44  1  0
 16 17  1  0
 16 18  1  0
 16 45  1  6
 17 46  1  0
 18 19  1  1
 18 20  1  0
 19 47  1  0
 19 48  1  0
 19 49  1  0
 20 21  1  0
 20 50  1  1
 21 22  1  0
 21 51  1  0
 21 52  1  0
 22 53  1  0
 22 54  1  0
 23 24  1  0
 24 25  1  0
 24 55  1  0
 24 56  1  0
 25 26  1  0
 25 57  1  0
 25 58  1  0
M  END
>  <i_m_ct_stereo_status>  (79) 
1

>  <s_m_source_file>  (79) 
/var/tmp/pbs.5076255.sched01/tmpi0kgw23q/0rwfjwt46.sdf

>  <i_m_source_file_index>  (79) 
41

>  <i_lp_mmshare_version>  (79) 
48012

>  <i_f3d_flags>  (79) 
0

>  <s_epik_input>  (79) 
Tz1DKFtDSDJdMSlbQ0gyXVtDSDJdW0NAXShbQ0gzXSkoW0NIMl1bQ0gyXTIpW0NAQEhdMVtDQEBIXShbQ0gyXVtDSF09MylbQ0BIXTJbQ0BAXShbQ0gzXSkoW0NAQEhdKFtDSDJdNClbT0hdKUMzW0NIMl1DNDVPW0NIMl1bQ0gyXU81

>  <s_epik_cmdline>  (79) 
J2VwaWtfcHl0aG9uJywgJy1waHQnLCAnMi4wJywgJy1waCcsICc3LjAnLCAnLXRuJywgJzgnLCAnLW1hJywgJzIwMCcsICctaW1hZScsICc8aW5maWxlLm1hZT4nLCAnLW9tYWUnLCAnPG91dGZpbGUubWFlPic=

>  <r_lp_tautomer_probability>  (79) 
1

>  <r_epik_Ionization_Penalty>  (79) 
5.73672e-08

>  <r_epik_Ionization_Penalty_Charging>  (79) 
0

>  <r_epik_Ionization_Penalty_Neutral>  (79) 
5.73672e-08

>  <r_epik_State_Penalty>  (79) 
-0

>  <r_epik_Charging_Adjusted_Penalty>  (79) 
0

>  <i_epik_Tot_Q>  (79) 
0

>  <i_epik_Tot_abs_Q>  (79) 
0

>  <s_lp_Force_Field>  (79) 
OPLS3e

>  <r_lp_Energy>  (79) 
24.3997

>  <b_lp_Chiralities_Consistent>  (79) 
1

>  <s_lp_Variant>  (79) 
23:0-1

>  <s_i_glide_gridfile>  (79) 
pfpi4k_grid

>  <i_i_glide_lignum>  (79) 
41

>  <i_i_glide_rotatable_bonds>  (79) 
1

>  <r_i_docking_score>  (79) 
-3.31676

>  <r_i_glide_ligand_efficiency>  (79) 
-0.127568

>  <r_i_glide_ligand_efficiency_sa>  (79) 
-0.377919

>  <r_i_glide_ligand_efficiency_ln>  (79) 
-0.778931

>  <r_i_glide_gscore>  (79) 
-3.31676

>  <r_i_glide_lipo>  (79) 
-0.284815

>  <r_i_glide_hbond>  (79) 
-0.16

>  <r_i_glide_metal>  (79) 
-0

>  <r_i_glide_rewards>  (79) 
-0.951224

>  <r_i_glide_evdw>  (79) 
-27.4508

>  <r_i_glide_ecoul>  (79) 
-3.4224

>  <r_i_glide_erotb>  (79) 
0

>  <r_i_glide_esite>  (79) 
-0.034824

>  <r_i_glide_emodel>  (79) 
-36.1939

>  <r_i_glide_energy>  (79) 
-30.8732

>  <r_i_glide_einternal>  (79) 
0.32518

>  <r_i_glide_intrahb_reward>  (79) 
-0

>  <i_i_glide_confnum>  (79) 
3

>  <i_i_glide_posenum>  (79) 
24

>  <r_i_glide_eff_state_penalty>  (79) 
0

>  <ligand_id>  (79) 
23

>  <original_smiles>  (79) 
CC12CCC(=O)CC1C1CC=C3CC4(CC(O)C3(C)C1CC2)OCCO4

>  <smiles>  (79) 
[H]OC1([H])C([H])([H])C2(OC([H])([H])C([H])([H])O2)C([H])([H])C2=C([H])C([H])([H])C3([H])C([H])(C([H])([H])C([H])([H])C4(C([H])([H])[H])C([H])([H])C([H])([H])C(=O)C([H])([H])C34[H])C21C([H])([H])[H]

$$$$
23:0:2
     RDKit          3D

 58 62  0  0  1  0  0  0  0  0999 V2000
    5.7086   -0.6624    0.3661 C   0  0  0  0  0  0  0  0  0  0  0  0
    5.4187   -2.1762    0.5131 C   0  0  2  0  0  0  0  0  0  0  0  0
    6.2608   -2.9447   -0.5476 C   0  0  0  0  0  0  0  0  0  0  0  0
    5.8317   -2.6557   -1.9908 C   0  0  0  0  0  0  0  0  0  0  0  0
    4.3269   -2.8616   -2.1930 C   0  0  0  0  0  0  0  0  0  0  0  0
    3.8887   -3.4051   -3.1984 O   0  0  0  0  0  0  0  0  0  0  0  0
    3.4155   -2.2389   -1.1277 C   0  0  0  0  0  0  0  0  0  0  0  0
    3.8805   -2.4278    0.3330 C   0  0  1  0  0  0  0  0  0  0  0  0
    3.3021   -3.7077    1.0146 C   0  0  1  0  0  0  0  0  0  0  0  0
    3.5054   -5.0354    0.2555 C   0  0  0  0  0  0  0  0  0  0  0  0
    3.0170   -6.2112    1.0548 C   0  0  0  0  0  0  0  0  0  0  0  0
    2.7761   -6.2066    2.3825 C   0  0  0  0  0  0  0  0  0  0  0  0
    2.0449   -7.3587    3.0440 C   0  0  0  0  0  0  0  0  0  0  0  0
    0.6278   -6.8713    3.4547 C   0  0  0  0  0  0  0  0  0  0  0  0
    0.7128   -5.6466    4.3788 C   0  0  0  0  0  0  0  0  0  0  0  0
    1.5741   -4.5246    3.7320 C   0  0  1  0  0  0  0  0  0  0  0  0
    1.6358   -3.4294    4.6325 O   0  0  0  0  0  0  0  0  0  0  0  0
    3.0044   -4.9842    3.2792 C   0  0  1  0  0  0  0  0  0  0  0  0
    3.8388   -5.4137    4.5161 C   0  0  0  0  0  0  0  0  0  0  0  0
    3.7476   -3.8351    2.4916 C   0  0  1  0  0  0  0  0  0  0  0  0
    5.2933   -3.8766    2.4985 C   0  0  0  0  0  0  0  0  0  0  0  0
    5.8660   -2.5695    1.9418 C   0  0  0  0  0  0  0  0  0  0  0  0
   -0.0321   -7.8998    4.1022 O   0  0  0  0  0  0  0  0  0  0  0  0
   -0.7726   -8.6015    3.1160 C   0  0  0  0  0  0  0  0  0  0  0  0
   -0.5163   -7.8203    1.8442 C   0  0  0  0  0  0  0  0  0  0  0  0
   -0.1101   -6.5603    2.3158 O   0  0  0  0  0  0  0  0  0  0  0  0
    6.7739   -0.4581    0.4630 H   0  0  0  0  0  0  0  0  0  0  0  0
    5.1957   -0.0833    1.1317 H   0  0  0  0  0  0  0  0  0  0  0  0
    5.3776   -0.2734   -0.5941 H   0  0  0  0  0  0  0  0  0  0  0  0
    7.3185   -2.6835   -0.4421 H   0  0  0  0  0  0  0  0  0  0  0  0
    6.2206   -4.0150   -0.3741 H   0  0  0  0  0  0  0  0  0  0  0  0
    6.0352   -1.6237   -2.2568 H   0  0  0  0  0  0  0  0  0  0  0  0
    6.3760   -3.2802   -2.6976 H   0  0  0  0  0  0  0  0  0  0  0  0
    3.3525   -1.1777   -1.3544 H   0  0  0  0  0  0  0  0  0  0  0  0
    2.4024   -2.6337   -1.2525 H   0  0  0  0  0  0  0  0  0  0  0  0
    3.3995   -1.6208    0.8825 H   0  0  0  0  0  0  0  0  0  0  0  0
    2.2258   -3.5494    1.0304 H   0  0  0  0  0  0  0  0  0  0  0  0
    2.9354   -5.0070   -0.6719 H   0  0  0  0  0  0  0  0  0  0  0  0
    4.5362   -5.2399   -0.0122 H   0  0  0  0  0  0  0  0  0  0  0  0
    2.7834   -7.0851    0.4797 H   0  0  0  0  0  0  0  0  0  0  0  0
    1.9961   -8.2212    2.3696 H   0  0  0  0  0  0  0  0  0  0  0  0
    2.5771   -7.7007    3.9363 H   0  0  0  0  0  0  0  0  0  0  0  0
   -0.2908   -5.2817    4.5918 H   0  0  0  0  0  0  0  0  0  0  0  0
    1.1275   -5.9531    5.3403 H   0  0  0  0  0  0  0  0  0  0  0  0
    1.0251   -4.1584    2.8644 H   0  0  0  0  0  0  0  0  0  0  0  0
    2.1436   -3.6938    5.3928 H   0  0  0  0  0  0  0  0  0  0  0  0
    4.1198   -4.5590    5.1307 H   0  0  0  0  0  0  0  0  0  0  0  0
    4.7486   -5.9295    4.2090 H   0  0  0  0  0  0  0  0  0  0  0  0
    3.3144   -6.1035    5.1705 H   0  0  0  0  0  0  0  0  0  0  0  0
    3.4907   -2.8994    2.9838 H   0  0  0  0  0  0  0  0  0  0  0  0
    5.6853   -3.9685    3.5120 H   0  0  0  0  0  0  0  0  0  0  0  0
    5.6819   -4.7371    1.9520 H   0  0  0  0  0  0  0  0  0  0  0  0
    6.9464   -2.6305    1.9466 H   0  0  0  0  0  0  0  0  0  0  0  0
    5.5960   -1.7707    2.6415 H   0  0  0  0  0  0  0  0  0  0  0  0
   -0.4366   -9.6314    3.0314 H   0  0  0  0  0  0  0  0  0  0  0  0
   -1.8316   -8.6019    3.3731 H   0  0  0  0  0  0  0  0  0  0  0  0
    0.3032   -8.2393    1.2829 H   0  0  0  0  0  0  0  0  0  0  0  0
   -1.3843   -7.8026    1.1898 H   0  0  0  0  0  0  0  0  0  0  0  0
  2  1  1  6
  1 27  1  0
  1 28  1  0
  1 29  1  0
  2  8  1  0
  2 22  1  0
  2  3  1  0
  3  4  1  0
  3 30  1  0
  3 31  1  0
  4  5  1  0
  4 32  1  0
  4 33  1  0
  5  6  2  0
  5  7  1  0
  7  8  1  0
  7 34  1  0
  7 35  1  0
  8  9  1  0
  8 36  1  1
  9 20  1  0
  9 10  1  0
  9 37  1  1
 10 11  1  0
 10 38  1  0
 10 39  1  0
 11 12  2  0
 11 40  1  0
 12 18  1  0
 12 13  1  0
 13 14  1  0
 13 41  1  0
 13 42  1  0
 14 26  1  0
 14 15  1  0
 14 23  1  0
 15 16  1  0
 15 43  1  0
 15 44  1  0
 16 17  1  0
 16 18  1  0
 16 45  1  6
 17 46  1  0
 18 19  1  1
 18 20  1  0
 19 47  1  0
 19 48  1  0
 19 49  1  0
 20 21  1  0
 20 50  1  1
 21 22  1  0
 21 51  1  0
 21 52  1  0
 22 53  1  0
 22 54  1  0
 23 24  1  0
 24 25  1  0
 24 55  1  0
 24 56  1  0
 25 26  1  0
 25 57  1  0
 25 58  1  0
M  END
>  <i_m_ct_stereo_status>  (80) 
1

>  <s_m_source_file>  (80) 
/var/tmp/pbs.5076255.sched01/tmpi0kgw23q/0rwfjwt46.sdf

>  <i_m_source_file_index>  (80) 
41

>  <i_lp_mmshare_version>  (80) 
48012

>  <i_f3d_flags>  (80) 
0

>  <s_epik_input>  (80) 
Tz1DKFtDSDJdMSlbQ0gyXVtDSDJdW0NAXShbQ0gzXSkoW0NIMl1bQ0gyXTIpW0NAQEhdMVtDQEBIXShbQ0gyXVtDSF09MylbQ0BIXTJbQ0BAXShbQ0gzXSkoW0NAQEhdKFtDSDJdNClbT0hdKUMzW0NIMl1DNDVPW0NIMl1bQ0gyXU81

>  <s_epik_cmdline>  (80) 
J2VwaWtfcHl0aG9uJywgJy1waHQnLCAnMi4wJywgJy1waCcsICc3LjAnLCAnLXRuJywgJzgnLCAnLW1hJywgJzIwMCcsICctaW1hZScsICc8aW5maWxlLm1hZT4nLCAnLW9tYWUnLCAnPG91dGZpbGUubWFlPic=

>  <r_lp_tautomer_probability>  (80) 
1

>  <r_epik_Ionization_Penalty>  (80) 
5.73672e-08

>  <r_epik_Ionization_Penalty_Charging>  (80) 
0

>  <r_epik_Ionization_Penalty_Neutral>  (80) 
5.73672e-08

>  <r_epik_State_Penalty>  (80) 
-0

>  <r_epik_Charging_Adjusted_Penalty>  (80) 
0

>  <i_epik_Tot_Q>  (80) 
0

>  <i_epik_Tot_abs_Q>  (80) 
0

>  <s_lp_Force_Field>  (80) 
OPLS3e

>  <r_lp_Energy>  (80) 
24.3997

>  <b_lp_Chiralities_Consistent>  (80) 
1

>  <s_lp_Variant>  (80) 
23:0-1

>  <s_i_glide_gridfile>  (80) 
pfpi4k_grid

>  <i_i_glide_lignum>  (80) 
41

>  <i_i_glide_rotatable_bonds>  (80) 
1

>  <r_i_docking_score>  (80) 
-3.1741

>  <r_i_glide_ligand_efficiency>  (80) 
-0.122081

>  <r_i_glide_ligand_efficiency_sa>  (80) 
-0.361664

>  <r_i_glide_ligand_efficiency_ln>  (80) 
-0.745426

>  <r_i_glide_gscore>  (80) 
-3.1741

>  <r_i_glide_lipo>  (80) 
-0.294177

>  <r_i_glide_hbond>  (80) 
-0.16

>  <r_i_glide_metal>  (80) 
-0

>  <r_i_glide_rewards>  (80) 
-0.951224

>  <r_i_glide_evdw>  (80) 
-27.2956

>  <r_i_glide_ecoul>  (80) 
-2.45137

>  <r_i_glide_erotb>  (80) 
0

>  <r_i_glide_esite>  (80) 
-0.0362078

>  <r_i_glide_emodel>  (80) 
-34.9637

>  <r_i_glide_energy>  (80) 
-29.747

>  <r_i_glide_einternal>  (80) 
0.0127258

>  <r_i_glide_intrahb_reward>  (80) 
-0

>  <i_i_glide_confnum>  (80) 
3

>  <i_i_glide_posenum>  (80) 
1

>  <r_i_glide_eff_state_penalty>  (80) 
0

>  <ligand_id>  (80) 
23

>  <original_smiles>  (80) 
CC12CCC(=O)CC1C1CC=C3CC4(CC(O)C3(C)C1CC2)OCCO4

>  <smiles>  (80) 
[H]OC1([H])C([H])([H])C2(OC([H])([H])C([H])([H])O2)C([H])([H])C2=C([H])C([H])([H])C3([H])C([H])(C([H])([H])C([H])([H])C4(C([H])([H])[H])C([H])([H])C([H])([H])C(=O)C([H])([H])C34[H])C21C([H])([H])[H]

$$$$
25:0:0
     RDKit          3D

 43 46  0  0  1  0  0  0  0  0999 V2000
    6.2967   -4.1839    1.0628 C   0  0  0  0  0  0  0  0  0  0  0  0
    5.7867   -2.9877    0.7174 C   0  0  0  0  0  0  0  0  0  0  0  0
    6.6432   -2.2449   -0.2641 C   0  0  0  0  0  0  0  0  0  0  0  0
    7.8234   -2.0071   -0.0348 O   0  0  0  0  0  0  0  0  0  0  0  0
    5.9996   -1.8526   -1.3577 O   0  0  0  0  0  0  0  0  0  0  0  0
    4.6127   -2.0953   -1.6307 C   0  0  1  0  0  0  0  0  0  0  0  0
    4.2396   -1.2594   -2.8548 C   0  0  0  0  0  0  0  0  0  0  0  0
    4.2643   -3.4955   -1.8015 O   0  0  0  0  0  0  0  0  0  0  0  0
    3.1198   -3.2900   -0.9425 C   0  0  1  0  0  0  0  0  0  0  0  0
    2.8888   -4.2650    0.2198 C   0  0  1  0  0  0  0  0  0  0  0  0
    3.6148   -5.4664    0.0810 O   0  0  0  0  0  0  0  0  0  0  0  0
    3.2801   -3.4204    1.4591 C   0  0  1  0  0  0  0  0  0  0  0  0
    3.1571   -3.8510    2.9678 C   0  0  0  0  0  0  0  0  0  0  0  0
    1.7716   -4.4997    3.2112 C   0  0  0  0  0  0  0  0  0  0  0  0
    4.2021   -4.8616    3.4853 C   0  0  0  0  0  0  0  0  0  0  0  0
    3.2472   -2.5683    3.8218 C   0  0  0  0  0  0  0  0  0  0  0  0
    4.4508   -1.6718    3.4619 C   0  0  0  0  0  0  0  0  0  0  0  0
    4.3812   -1.2103    1.9913 C   0  0  1  0  0  0  0  0  0  0  0  0
    5.4150   -0.2717    1.7461 O   0  0  0  0  0  0  0  0  0  0  0  0
    4.3627   -2.4009    0.9870 C   0  0  1  0  0  0  0  0  0  0  0  0
    3.7851   -2.0376   -0.3787 C   0  0  1  0  0  0  0  0  0  0  0  0
    5.7569   -4.9224    1.6084 H   0  0  0  0  0  0  0  0  0  0  0  0
    7.2799   -4.4883    0.7147 H   0  0  0  0  0  0  0  0  0  0  0  0
    4.8881   -1.4813   -3.7002 H   0  0  0  0  0  0  0  0  0  0  0  0
    4.3558   -0.1900   -2.6383 H   0  0  0  0  0  0  0  0  0  0  0  0
    3.2079   -1.4078   -3.1741 H   0  0  0  0  0  0  0  0  0  0  0  0
    2.2148   -3.0687   -1.5207 H   0  0  0  0  0  0  0  0  0  0  0  0
    1.8357   -4.5481    0.2863 H   0  0  0  0  0  0  0  0  0  0  0  0
    3.5106   -5.7438   -0.8233 H   0  0  0  0  0  0  0  0  0  0  0  0
    2.4056   -2.7574    1.4538 H   0  0  0  0  0  0  0  0  0  0  0  0
    1.6268   -4.7258    4.2695 H   0  0  0  0  0  0  0  0  0  0  0  0
    1.6574   -5.4324    2.6634 H   0  0  0  0  0  0  0  0  0  0  0  0
    0.9603   -3.8326    2.9201 H   0  0  0  0  0  0  0  0  0  0  0  0
    5.1974   -4.4174    3.5451 H   0  0  0  0  0  0  0  0  0  0  0  0
    4.2420   -5.7627    2.8777 H   0  0  0  0  0  0  0  0  0  0  0  0
    3.9704   -5.1715    4.5047 H   0  0  0  0  0  0  0  0  0  0  0  0
    2.3357   -1.9822    3.6977 H   0  0  0  0  0  0  0  0  0  0  0  0
    3.2824   -2.8246    4.8826 H   0  0  0  0  0  0  0  0  0  0  0  0
    4.4304   -0.7977    4.1142 H   0  0  0  0  0  0  0  0  0  0  0  0
    5.3877   -2.1807    3.6703 H   0  0  0  0  0  0  0  0  0  0  0  0
    3.4511   -0.6587    1.8788 H   0  0  0  0  0  0  0  0  0  0  0  0
    6.2444   -0.6755    1.8704 H   0  0  0  0  0  0  0  0  0  0  0  0
    3.0678   -1.1936   -0.3782 H   0  0  0  0  0  0  0  0  0  0  0  0
  1  2  2  0
  1 22  1  0
  1 23  1  0
 20  2  1  6
  2  3  1  0
  3  4  2  0
  3  5  1  0
  5  6  1  0
  6 21  1  0
  6  7  1  6
  6  8  1  0
  7 24  1  0
  7 25  1  0
  7 26  1  0
  8  9  1  0
  9 21  1  0
  9 10  1  0
  9 27  1  6
 10 11  1  0
 10 12  1  0
 10 28  1  1
 11 29  1  0
 12 20  1  0
 12 13  1  0
 12 30  1  1
 13 14  1  0
 13 15  1  0
 13 16  1  0
 14 31  1  0
 14 32  1  0
 14 33  1  0
 15 34  1  0
 15 35  1  0
 15 36  1  0
 16 17  1  0
 16 37  1  0
 16 38  1  0
 17 18  1  0
 17 39  1  0
 17 40  1  0
 18 19  1  0
 18 20  1  0
 18 41  1  1
 19 42  1  0
 20 21  1  0
 21 43  1  1
M  END
>  <i_m_ct_stereo_status>  (81) 
1

>  <s_m_source_file>  (81) 
/var/tmp/pbs.5076255.sched01/tmpi0kgw23q/0rwfjwt46.sdf

>  <i_m_source_file_index>  (81) 
43

>  <i_lp_mmshare_version>  (81) 
48012

>  <i_f3d_flags>  (81) 
0

>  <s_epik_input>  (81) 
W0NIMl09QzFDKD1PKU9bQ0BdKE8yKShbQ0gzXSlbQ0BIXTNbQ0BASF0yW0NAQEhdKFtPSF0pW0NASF0oW0NAQF0xMzQpQyhbQ0gzXSkoW0NIM10pW0NIMl1bQ0gyXVtDQEhdNFtPSF0=

>  <s_epik_cmdline>  (81) 
J2VwaWtfcHl0aG9uJywgJy1waHQnLCAnMi4wJywgJy1waCcsICc3LjAnLCAnLXRuJywgJzgnLCAnLW1hJywgJzIwMCcsICctaW1hZScsICc8aW5maWxlLm1hZT4nLCAnLW9tYWUnLCAnPG91dGZpbGUubWFlPic=

>  <r_lp_tautomer_probability>  (81) 
1

>  <r_epik_Ionization_Penalty>  (81) 
1.17152e-07

>  <r_epik_Ionization_Penalty_Charging>  (81) 
0

>  <r_epik_Ionization_Penalty_Neutral>  (81) 
1.17152e-07

>  <r_epik_State_Penalty>  (81) 
-0

>  <r_epik_Charging_Adjusted_Penalty>  (81) 
0

>  <i_epik_Tot_Q>  (81) 
0

>  <i_epik_Tot_abs_Q>  (81) 
0

>  <s_epik_Chemistry_Notes>  (81) 
This compound has an ester and may undergo hydrolysis at high or low pH.

>  <s_lp_Force_Field>  (81) 
OPLS3e

>  <r_lp_Energy>  (81) 
63.0228

>  <b_lp_Chiralities_Consistent>  (81) 
1

>  <s_lp_Variant>  (81) 
25:0-1

>  <s_i_glide_gridfile>  (81) 
pfpi4k_grid

>  <i_i_glide_lignum>  (81) 
43

>  <i_i_glide_rotatable_bonds>  (81) 
2

>  <r_i_docking_score>  (81) 
-3.77713

>  <r_i_glide_ligand_efficiency>  (81) 
-0.179863

>  <r_i_glide_ligand_efficiency_sa>  (81) 
-0.496229

>  <r_i_glide_ligand_efficiency_ln>  (81) 
-0.933888

>  <r_i_glide_gscore>  (81) 
-3.77713

>  <r_i_glide_lipo>  (81) 
-0.29371

>  <r_i_glide_hbond>  (81) 
-0.174396

>  <r_i_glide_metal>  (81) 
-0

>  <r_i_glide_rewards>  (81) 
-1.40221

>  <r_i_glide_evdw>  (81) 
-19.8326

>  <r_i_glide_ecoul>  (81) 
-5.76676

>  <r_i_glide_erotb>  (81) 
0

>  <r_i_glide_esite>  (81) 
-0.0501757

>  <r_i_glide_emodel>  (81) 
-31.1212

>  <r_i_glide_energy>  (81) 
-25.5993

>  <r_i_glide_einternal>  (81) 
0.416122

>  <r_i_glide_intrahb_reward>  (81) 
-0

>  <i_i_glide_confnum>  (81) 
1

>  <i_i_glide_posenum>  (81) 
23

>  <r_i_glide_eff_state_penalty>  (81) 
0

>  <ligand_id>  (81) 
25

>  <original_smiles>  (81) 
C=C1C(=O)OC2(C)OC3C(O)C4C(C)(C)CCC(O)C14C32

>  <smiles>  (81) 
[H]OC1([H])C2([H])OC3(C([H])([H])[H])OC(=O)C(=C([H])[H])C4(C([H])(O[H])C([H])([H])C([H])([H])C(C([H])([H])[H])(C([H])([H])[H])C14[H])C23[H]

$$$$
25:0:1
     RDKit          3D

 43 46  0  0  1  0  0  0  0  0999 V2000
    6.3161   -3.8569    1.1599 C   0  0  0  0  0  0  0  0  0  0  0  0
    5.1036   -3.6242    1.7027 C   0  0  0  0  0  0  0  0  0  0  0  0
    4.9848   -4.1008    3.1132 C   0  0  0  0  0  0  0  0  0  0  0  0
    5.2416   -5.2610    3.4327 O   0  0  0  0  0  0  0  0  0  0  0  0
    4.5664   -3.1682    3.9703 O   0  0  0  0  0  0  0  0  0  0  0  0
    4.2707   -1.8100    3.6166 C   0  0  1  0  0  0  0  0  0  0  0  0
    3.5984   -1.1736    4.8367 C   0  0  0  0  0  0  0  0  0  0  0  0
    5.4034   -1.0260    3.1405 O   0  0  0  0  0  0  0  0  0  0  0  0
    4.5684   -0.5372    2.0541 C   0  0  1  0  0  0  0  0  0  0  0  0
    5.1105   -0.6052    0.6177 C   0  0  1  0  0  0  0  0  0  0  0  0
    6.5152   -0.7824    0.5463 O   0  0  0  0  0  0  0  0  0  0  0  0
    4.2953   -1.7605   -0.0002 C   0  0  1  0  0  0  0  0  0  0  0  0
    4.3512   -2.2340   -1.5001 C   0  0  0  0  0  0  0  0  0  0  0  0
    4.2946   -1.0023   -2.4416 C   0  0  0  0  0  0  0  0  0  0  0  0
    5.5871   -3.0490   -1.9296 C   0  0  0  0  0  0  0  0  0  0  0  0
    3.0934   -3.0893   -1.7528 C   0  0  0  0  0  0  0  0  0  0  0  0
    2.8607   -4.1779   -0.6839 C   0  0  0  0  0  0  0  0  0  0  0  0
    2.6995   -3.5773    0.7224 C   0  0  1  0  0  0  0  0  0  0  0  0
    2.3475   -4.6143    1.6276 O   0  0  0  0  0  0  0  0  0  0  0  0
    3.9390   -2.7408    1.1621 C   0  0  1  0  0  0  0  0  0  0  0  0
    3.6273   -1.7188    2.2586 C   0  0  1  0  0  0  0  0  0  0  0  0
    6.6396   -3.4432    0.2355 H   0  0  0  0  0  0  0  0  0  0  0  0
    7.0674   -4.4230    1.7063 H   0  0  0  0  0  0  0  0  0  0  0  0
    4.2230   -1.2597    5.7242 H   0  0  0  0  0  0  0  0  0  0  0  0
    2.6584   -1.6900    5.0642 H   0  0  0  0  0  0  0  0  0  0  0  0
    3.3606   -0.1206    4.6899 H   0  0  0  0  0  0  0  0  0  0  0  0
    4.0992    0.4207    2.3066 H   0  0  0  0  0  0  0  0  0  0  0  0
    4.8674    0.3050    0.0786 H   0  0  0  0  0  0  0  0  0  0  0  0
    6.9231   -0.1396    1.1131 H   0  0  0  0  0  0  0  0  0  0  0  0
    3.3383   -1.2271   -0.0806 H   0  0  0  0  0  0  0  0  0  0  0  0
    4.2440   -1.3140   -3.4885 H   0  0  0  0  0  0  0  0  0  0  0  0
    5.1640   -0.3632   -2.3256 H   0  0  0  0  0  0  0  0  0  0  0  0
    3.4083   -0.3941   -2.2693 H   0  0  0  0  0  0  0  0  0  0  0  0
    5.5969   -4.0354   -1.4631 H   0  0  0  0  0  0  0  0  0  0  0  0
    6.5194   -2.5327   -1.7083 H   0  0  0  0  0  0  0  0  0  0  0  0
    5.5721   -3.2429   -3.0011 H   0  0  0  0  0  0  0  0  0  0  0  0
    2.2176   -2.4427   -1.7779 H   0  0  0  0  0  0  0  0  0  0  0  0
    3.1335   -3.5443   -2.7435 H   0  0  0  0  0  0  0  0  0  0  0  0
    1.9481   -4.7149   -0.9475 H   0  0  0  0  0  0  0  0  0  0  0  0
    3.6647   -4.9107   -0.6973 H   0  0  0  0  0  0  0  0  0  0  0  0
    1.8450   -2.9027    0.6797 H   0  0  0  0  0  0  0  0  0  0  0  0
    3.0708   -5.2056    1.7144 H   0  0  0  0  0  0  0  0  0  0  0  0
    2.5807   -1.3809    2.3017 H   0  0  0  0  0  0  0  0  0  0  0  0
  1  2  2  0
  1 22  1  0
  1 23  1  0
 20  2  1  1
  2  3  1  0
  3  4  2  0
  3  5  1  0
  5  6  1  0
  6 21  1  0
  6  7  1  1
  6  8  1  0
  7 24  1  0
  7 25  1  0
  7 26  1  0
  8  9  1  0
  9 21  1  0
  9 10  1  0
  9 27  1  1
 10 11  1  0
 10 12  1  0
 10 28  1  6
 11 29  1  0
 12 20  1  0
 12 13  1  0
 12 30  1  6
 13 14  1  0
 13 15  1  0
 13 16  1  0
 14 31  1  0
 14 32  1  0
 14 33  1  0
 15 34  1  0
 15 35  1  0
 15 36  1  0
 16 17  1  0
 16 37  1  0
 16 38  1  0
 17 18  1  0
 17 39  1  0
 17 40  1  0
 18 19  1  0
 18 20  1  0
 18 41  1  6
 19 42  1  0
 20 21  1  0
 21 43  1  1
M  END
>  <i_m_ct_stereo_status>  (82) 
1

>  <s_m_source_file>  (82) 
/var/tmp/pbs.5076255.sched01/tmpi0kgw23q/0rwfjwt46.sdf

>  <i_m_source_file_index>  (82) 
43

>  <i_lp_mmshare_version>  (82) 
48012

>  <i_f3d_flags>  (82) 
0

>  <s_epik_input>  (82) 
W0NIMl09QzFDKD1PKU9bQ0BdKE8yKShbQ0gzXSlbQ0BIXTNbQ0BASF0yW0NAQEhdKFtPSF0pW0NASF0oW0NAQF0xMzQpQyhbQ0gzXSkoW0NIM10pW0NIMl1bQ0gyXVtDQEhdNFtPSF0=

>  <s_epik_cmdline>  (82) 
J2VwaWtfcHl0aG9uJywgJy1waHQnLCAnMi4wJywgJy1waCcsICc3LjAnLCAnLXRuJywgJzgnLCAnLW1hJywgJzIwMCcsICctaW1hZScsICc8aW5maWxlLm1hZT4nLCAnLW9tYWUnLCAnPG91dGZpbGUubWFlPic=

>  <r_lp_tautomer_probability>  (82) 
1

>  <r_epik_Ionization_Penalty>  (82) 
1.17152e-07

>  <r_epik_Ionization_Penalty_Charging>  (82) 
0

>  <r_epik_Ionization_Penalty_Neutral>  (82) 
1.17152e-07

>  <r_epik_State_Penalty>  (82) 
-0

>  <r_epik_Charging_Adjusted_Penalty>  (82) 
0

>  <i_epik_Tot_Q>  (82) 
0

>  <i_epik_Tot_abs_Q>  (82) 
0

>  <s_epik_Chemistry_Notes>  (82) 
This compound has an ester and may undergo hydrolysis at high or low pH.

>  <s_lp_Force_Field>  (82) 
OPLS3e

>  <r_lp_Energy>  (82) 
63.0228

>  <b_lp_Chiralities_Consistent>  (82) 
1

>  <s_lp_Variant>  (82) 
25:0-1

>  <s_i_glide_gridfile>  (82) 
pfpi4k_grid

>  <i_i_glide_lignum>  (82) 
43

>  <i_i_glide_rotatable_bonds>  (82) 
2

>  <r_i_docking_score>  (82) 
-3.52116

>  <r_i_glide_ligand_efficiency>  (82) 
-0.167675

>  <r_i_glide_ligand_efficiency_sa>  (82) 
-0.462601

>  <r_i_glide_ligand_efficiency_ln>  (82) 
-0.870601

>  <r_i_glide_gscore>  (82) 
-3.52116

>  <r_i_glide_lipo>  (82) 
-0.499752

>  <r_i_glide_hbond>  (82) 
0

>  <r_i_glide_metal>  (82) 
-0

>  <r_i_glide_rewards>  (82) 
-1.4473

>  <r_i_glide_evdw>  (82) 
-16.9003

>  <r_i_glide_ecoul>  (82) 
-4.86066

>  <r_i_glide_erotb>  (82) 
0

>  <r_i_glide_esite>  (82) 
0

>  <r_i_glide_emodel>  (82) 
-26.9818

>  <r_i_glide_energy>  (82) 
-21.761

>  <r_i_glide_einternal>  (82) 
0.330162

>  <r_i_glide_intrahb_reward>  (82) 
-0

>  <i_i_glide_confnum>  (82) 
2

>  <i_i_glide_posenum>  (82) 
8

>  <r_i_glide_eff_state_penalty>  (82) 
0

>  <ligand_id>  (82) 
25

>  <original_smiles>  (82) 
C=C1C(=O)OC2(C)OC3C(O)C4C(C)(C)CCC(O)C14C32

>  <smiles>  (82) 
[H]OC1([H])C2([H])OC3(C([H])([H])[H])OC(=O)C(=C([H])[H])C4(C([H])(O[H])C([H])([H])C([H])([H])C(C([H])([H])[H])(C([H])([H])[H])C14[H])C23[H]

$$$$
25:0:2
     RDKit          3D

 43 46  0  0  1  0  0  0  0  0999 V2000
    6.5938   -4.2546    1.0953 C   0  0  0  0  0  0  0  0  0  0  0  0
    5.9408   -3.1319    0.7406 C   0  0  0  0  0  0  0  0  0  0  0  0
    6.7042   -2.2822   -0.2001 C   0  0  0  0  0  0  0  0  0  0  0  0
    7.8553   -1.8974    0.0064 O   0  0  0  0  0  0  0  0  0  0  0  0
    6.0363   -1.9469   -1.3244 O   0  0  0  0  0  0  0  0  0  0  0  0
    4.7164   -2.3998   -1.6302 C   0  0  1  0  0  0  0  0  0  0  0  0
    4.2492   -1.6178   -2.8589 C   0  0  0  0  0  0  0  0  0  0  0  0
    4.5656   -3.8378   -1.7933 O   0  0  0  0  0  0  0  0  0  0  0  0
    3.3644   -3.7807   -0.9579 C   0  0  1  0  0  0  0  0  0  0  0  0
    3.2360   -4.7777    0.2094 C   0  0  1  0  0  0  0  0  0  0  0  0
    4.1237   -5.8659    0.0778 O   0  0  0  0  0  0  0  0  0  0  0  0
    3.4945   -3.8811    1.4427 C   0  0  1  0  0  0  0  0  0  0  0  0
    3.4030   -4.3369    2.9480 C   0  0  0  0  0  0  0  0  0  0  0  0
    2.1051   -5.1476    3.1733 C   0  0  0  0  0  0  0  0  0  0  0  0
    4.5615   -5.1964    3.4886 C   0  0  0  0  0  0  0  0  0  0  0  0
    3.3148   -3.0461    3.8040 C   0  0  0  0  0  0  0  0  0  0  0  0
    4.3976   -2.0031    3.4613 C   0  0  0  0  0  0  0  0  0  0  0  0
    4.2924   -1.5529    1.9905 C   0  0  1  0  0  0  0  0  0  0  0  0
    5.1998   -0.4965    1.7541 O   0  0  0  0  0  0  0  0  0  0  0  0
    4.4521   -2.7374    0.9878 C   0  0  1  0  0  0  0  0  0  0  0  0
    3.8354   -2.4453   -0.3904 C   0  0  1  0  0  0  0  0  0  0  0  0
    6.1415   -5.0572    1.6341 H   0  0  0  0  0  0  0  0  0  0  0  0
    7.6129   -4.4318    0.7681 H   0  0  0  0  0  0  0  0  0  0  0  0
    4.9400   -1.7563   -3.6896 H   0  0  0  0  0  0  0  0  0  0  0  0
    4.2247   -0.5465   -2.6426 H   0  0  0  0  0  0  0  0  0  0  0  0
    3.2511   -1.9025   -3.1984 H   0  0  0  0  0  0  0  0  0  0  0  0
    2.4572   -3.6836   -1.5634 H   0  0  0  0  0  0  0  0  0  0  0  0
    2.2278   -5.1878    0.2497 H   0  0  0  0  0  0  0  0  0  0  0  0
    4.0368   -6.1774   -0.8188 H   0  0  0  0  0  0  0  0  0  0  0  0
    2.5439   -3.3406    1.4226 H   0  0  0  0  0  0  0  0  0  0  0  0
    1.9744   -5.3928    4.2273 H   0  0  0  0  0  0  0  0  0  0  0  0
    2.1203   -6.0886    2.6244 H   0  0  0  0  0  0  0  0  0  0  0  0
    1.2174   -4.5936    2.8687 H   0  0  0  0  0  0  0  0  0  0  0  0
    5.4889   -4.6311    3.5628 H   0  0  0  0  0  0  0  0  0  0  0  0
    4.7255   -6.0869    2.8830 H   0  0  0  0  0  0  0  0  0  0  0  0
    4.3530   -5.5353    4.5031 H   0  0  0  0  0  0  0  0  0  0  0  0
    2.3381   -2.5797    3.6624 H   0  0  0  0  0  0  0  0  0  0  0  0
    3.3643   -3.2951    4.8646 H   0  0  0  0  0  0  0  0  0  0  0  0
    4.2608   -1.1386    4.1102 H   0  0  0  0  0  0  0  0  0  0  0  0
    5.3929   -2.3853    3.6800 H   0  0  0  0  0  0  0  0  0  0  0  0
    3.2982   -1.1228    1.8626 H   0  0  0  0  0  0  0  0  0  0  0  0
    4.9973   -0.1083    0.9151 H   0  0  0  0  0  0  0  0  0  0  0  0
    3.0311   -1.7077   -0.4079 H   0  0  0  0  0  0  0  0  0  0  0  0
  1  2  2  0
  1 22  1  0
  1 23  1  0
 20  2  1  6
  2  3  1  0
  3  4  2  0
  3  5  1  0
  5  6  1  0
  6 21  1  0
  6  7  1  6
  6  8  1  0
  7 24  1  0
  7 25  1  0
  7 26  1  0
  8  9  1  0
  9 21  1  0
  9 10  1  0
  9 27  1  6
 10 11  1  0
 10 12  1  0
 10 28  1  1
 11 29  1  0
 12 20  1  0
 12 13  1  0
 12 30  1  1
 13 14  1  0
 13 15  1  0
 13 16  1  0
 14 31  1  0
 14 32  1  0
 14 33  1  0
 15 34  1  0
 15 35  1  0
 15 36  1  0
 16 17  1  0
 16 37  1  0
 16 38  1  0
 17 18  1  0
 17 39  1  0
 17 40  1  0
 18 19  1  0
 18 20  1  0
 18 41  1  1
 19 42  1  0
 20 21  1  0
 21 43  1  1
M  END
>  <i_m_ct_stereo_status>  (83) 
1

>  <s_m_source_file>  (83) 
/var/tmp/pbs.5076255.sched01/tmpi0kgw23q/0rwfjwt46.sdf

>  <i_m_source_file_index>  (83) 
43

>  <i_lp_mmshare_version>  (83) 
48012

>  <i_f3d_flags>  (83) 
0

>  <s_epik_input>  (83) 
W0NIMl09QzFDKD1PKU9bQ0BdKE8yKShbQ0gzXSlbQ0BIXTNbQ0BASF0yW0NAQEhdKFtPSF0pW0NASF0oW0NAQF0xMzQpQyhbQ0gzXSkoW0NIM10pW0NIMl1bQ0gyXVtDQEhdNFtPSF0=

>  <s_epik_cmdline>  (83) 
J2VwaWtfcHl0aG9uJywgJy1waHQnLCAnMi4wJywgJy1waCcsICc3LjAnLCAnLXRuJywgJzgnLCAnLW1hJywgJzIwMCcsICctaW1hZScsICc8aW5maWxlLm1hZT4nLCAnLW9tYWUnLCAnPG91dGZpbGUubWFlPic=

>  <r_lp_tautomer_probability>  (83) 
1

>  <r_epik_Ionization_Penalty>  (83) 
1.17152e-07

>  <r_epik_Ionization_Penalty_Charging>  (83) 
0

>  <r_epik_Ionization_Penalty_Neutral>  (83) 
1.17152e-07

>  <r_epik_State_Penalty>  (83) 
-0

>  <r_epik_Charging_Adjusted_Penalty>  (83) 
0

>  <i_epik_Tot_Q>  (83) 
0

>  <i_epik_Tot_abs_Q>  (83) 
0

>  <s_epik_Chemistry_Notes>  (83) 
This compound has an ester and may undergo hydrolysis at high or low pH.

>  <s_lp_Force_Field>  (83) 
OPLS3e

>  <r_lp_Energy>  (83) 
63.0228

>  <b_lp_Chiralities_Consistent>  (83) 
1

>  <s_lp_Variant>  (83) 
25:0-1

>  <s_i_glide_gridfile>  (83) 
pfpi4k_grid

>  <i_i_glide_lignum>  (83) 
43

>  <i_i_glide_rotatable_bonds>  (83) 
2

>  <r_i_docking_score>  (83) 
-3.50012

>  <r_i_glide_ligand_efficiency>  (83) 
-0.166673

>  <r_i_glide_ligand_efficiency_sa>  (83) 
-0.459837

>  <r_i_glide_ligand_efficiency_ln>  (83) 
-0.865398

>  <r_i_glide_gscore>  (83) 
-3.50012

>  <r_i_glide_lipo>  (83) 
-0.221793

>  <r_i_glide_hbond>  (83) 
-0.178305

>  <r_i_glide_metal>  (83) 
-0

>  <r_i_glide_rewards>  (83) 
-1.40221

>  <r_i_glide_evdw>  (83) 
-19.891

>  <r_i_glide_ecoul>  (83) 
-4.4492

>  <r_i_glide_erotb>  (83) 
0

>  <r_i_glide_esite>  (83) 
-0.0358895

>  <r_i_glide_emodel>  (83) 
-29.3374

>  <r_i_glide_energy>  (83) 
-24.3402

>  <r_i_glide_einternal>  (83) 
0.744647

>  <r_i_glide_intrahb_reward>  (83) 
-0

>  <i_i_glide_confnum>  (83) 
1

>  <i_i_glide_posenum>  (83) 
1

>  <r_i_glide_eff_state_penalty>  (83) 
0

>  <ligand_id>  (83) 
25

>  <original_smiles>  (83) 
C=C1C(=O)OC2(C)OC3C(O)C4C(C)(C)CCC(O)C14C32

>  <smiles>  (83) 
[H]OC1([H])C2([H])OC3(C([H])([H])[H])OC(=O)C(=C([H])[H])C4(C([H])(O[H])C([H])([H])C([H])([H])C(C([H])([H])[H])(C([H])([H])[H])C14[H])C23[H]

$$$$
26:0:0
     RDKit          3D

 56 60  0  0  1  0  0  0  0  0999 V2000
    0.3316  -10.6285    2.6723 C   0  0  0  0  0  0  0  0  0  0  0  0
    1.0873   -9.9901    3.7453 N   0  0  0  0  0  0  0  0  0  0  0  0
    1.0740   -8.5310    3.5723 C   0  0  0  0  0  0  0  0  0  0  0  0
    1.8443   -7.9355    4.7672 C   0  0  2  0  0  0  0  0  0  0  0  0
    1.6646   -6.4420    5.0761 C   0  0  0  0  0  0  0  0  0  0  0  0
    2.1606   -6.0190    6.4952 C   0  0  1  0  0  0  0  0  0  0  0  0
    1.3379   -4.8474    7.0140 C   0  0  0  0  0  0  0  0  0  0  0  0
    0.0013   -5.0232    7.4391 C   0  0  0  0  0  0  0  0  0  0  0  0
   -0.7036   -3.9053    7.9160 C   0  0  0  0  0  0  0  0  0  0  0  0
   -0.1783   -2.6611    7.9886 N   0  0  0  0  0  0  0  0  0  0  0  0
    1.0942   -2.4990    7.5799 C   0  0  0  0  0  0  0  0  0  0  0  0
    1.8909   -3.5520    7.0855 C   0  0  0  0  0  0  0  0  0  0  0  0
    2.2608   -7.1536    7.5737 C   0  0  0  0  0  0  0  0  0  0  0  0
    3.5257   -8.0827    7.5910 C   0  0  1  0  0  0  0  0  0  0  0  0
    3.3224   -9.6211    7.5638 C   0  0  0  0  0  0  0  0  0  0  0  0
    2.7288  -10.3272    6.3233 C   0  0  0  0  0  0  0  0  0  0  0  0
    3.2392   -9.9357    4.9780 N   0  0  1  0  0  0  0  0  0  0  0  0
    2.4305  -10.5963    3.8967 C   0  0  0  0  0  0  0  0  0  0  0  0
    3.2904   -8.4880    4.6810 C   0  0  2  0  0  0  0  0  0  0  0  0
    4.4476   -7.6375    5.2352 C   0  0  0  0  0  0  0  0  0  0  0  0
    5.2217   -6.8086    4.4989 C   0  0  0  0  0  0  0  0  0  0  0  0
    5.2120   -6.4154    3.0645 C   0  0  0  0  0  0  0  0  0  0  0  0
    4.2895   -6.7278    2.0714 C   0  0  0  0  0  0  0  0  0  0  0  0
    4.7455   -6.0459    0.5319 S   0  0  0  0  0  0  0  0  0  0  0  0
    6.1374   -5.3101    1.3047 C   0  0  0  0  0  0  0  0  0  0  0  0
    6.2435   -5.5893    2.6087 N   0  0  0  0  0  0  0  0  0  0  0  0
    4.7231   -7.6985    6.7230 C   0  0  0  0  0  0  0  0  0  0  0  0
   -0.6863  -10.2362    2.6437 H   0  0  0  0  0  0  0  0  0  0  0  0
    0.2587  -11.7050    2.8347 H   0  0  0  0  0  0  0  0  0  0  0  0
    0.7744  -10.4560    1.6893 H   0  0  0  0  0  0  0  0  0  0  0  0
    1.4960   -8.2488    2.6045 H   0  0  0  0  0  0  0  0  0  0  0  0
    0.0355   -8.1909    3.5872 H   0  0  0  0  0  0  0  0  0  0  0  0
    1.2999   -8.3721    5.5961 H   0  0  0  0  0  0  0  0  0  0  0  0
    2.0775   -5.7912    4.3022 H   0  0  0  0  0  0  0  0  0  0  0  0
    0.5884   -6.2783    5.0372 H   0  0  0  0  0  0  0  0  0  0  0  0
    3.1591   -5.6038    6.3672 H   0  0  0  0  0  0  0  0  0  0  0  0
   -0.4773   -5.9908    7.4042 H   0  0  0  0  0  0  0  0  0  0  0  0
   -1.7284   -3.9969    8.2420 H   0  0  0  0  0  0  0  0  0  0  0  0
    1.4885   -1.4929    7.6428 H   0  0  0  0  0  0  0  0  0  0  0  0
    2.9073   -3.3526    6.7746 H   0  0  0  0  0  0  0  0  0  0  0  0
    2.2815   -6.6422    8.5360 H   0  0  0  0  0  0  0  0  0  0  0  0
    1.3434   -7.7411    7.6363 H   0  0  0  0  0  0  0  0  0  0  0  0
    3.9189   -7.9313    8.6004 H   0  0  0  0  0  0  0  0  0  0  0  0
    4.2845  -10.0883    7.7925 H   0  0  0  0  0  0  0  0  0  0  0  0
    2.6815   -9.8883    8.4064 H   0  0  0  0  0  0  0  0  0  0  0  0
    2.9672  -11.3847    6.4280 H   0  0  0  0  0  0  0  0  0  0  0  0
    1.6430  -10.2715    6.3768 H   0  0  0  0  0  0  0  0  0  0  0  0
    2.3192  -11.6578    4.1207 H   0  0  0  0  0  0  0  0  0  0  0  0
    2.9640  -10.5459    2.9448 H   0  0  0  0  0  0  0  0  0  0  0  0
    3.6110   -8.5608    3.6523 H   0  0  0  0  0  0  0  0  0  0  0  0
    5.9843   -6.2832    5.0700 H   0  0  0  0  0  0  0  0  0  0  0  0
    3.3758   -7.2845    2.1045 H   0  0  0  0  0  0  0  0  0  0  0  0
    6.8603   -4.6812    0.8010 H   0  0  0  0  0  0  0  0  0  0  0  0
    5.1000   -6.7327    7.0632 H   0  0  0  0  0  0  0  0  0  0  0  0
    5.5431   -8.4009    6.8844 H   0  0  0  0  0  0  0  0  0  0  0  0
    4.1828  -10.2855    4.9028 H   0  0  0  0  0  0  0  0  0  0  0  0
  1  2  1  0
  1 28  1  0
  1 29  1  0
  1 30  1  0
  2 18  1  0
  2  3  1  0
  3  4  1  0
  3 31  1  0
  3 32  1  0
  4 19  1  0
  4  5  1  0
  4 33  1  1
  5  6  1  0
  5 34  1  0
  5 35  1  0
  6  7  1  0
  6 13  1  0
  6 36  1  6
  7 12  1  0
  7  8  2  0
  8  9  1  0
  8 37  1  0
  9 10  2  0
  9 38  1  0
 10 11  1  0
 11 12  2  0
 11 39  1  0
 12 40  1  0
 13 14  1  0
 13 41  1  0
 13 42  1  0
 14 27  1  0
 14 15  1  0
 14 43  1  1
 15 16  1  0
 15 44  1  0
 15 45  1  0
 16 17  1  0
 16 46  1  0
 16 47  1  0
 17 18  1  0
 17 19  1  0
 17 56  1  1
 18 48  1  0
 18 49  1  0
 19 20  1  0
 19 50  1  6
 20 21  2  3
 20 27  1  0
 21 22  1  0
 21 51  1  0
 22 26  1  0
 22 23  2  0
 23 24  1  0
 23 52  1  0
 24 25  1  0
 25 26  2  0
 25 53  1  0
 27 54  1  0
 27 55  1  0
M  CHG  1  17   1
M  END
>  <i_m_ct_stereo_status>  (84) 
1

>  <s_m_source_file>  (84) 
/var/tmp/pbs.5076255.sched01/tmpi0kgw23q/0rwfjwt46.sdf

>  <i_m_source_file_index>  (84) 
44

>  <i_lp_mmshare_version>  (84) 
48012

>  <i_f3d_flags>  (84) 
0

>  <s_epik_input>  (84) 
bjFbY0hdc1tjSF1jMS9bQ0hdPUNcMltDSDJdW0NASF0oW0NIMl1bQ0gyXU4oW0NASF0yW0NASF0zNClbQ0gyXU4oW0NIM10pW0NIMl0zKVtDSDJdW0NAQEhdKFtDSDJdNCljNVtjSF1bY0hdbltjSF1bY0hdNQ==

>  <s_epik_cmdline>  (84) 
J2VwaWtfcHl0aG9uJywgJy1waHQnLCAnMi4wJywgJy1waCcsICc3LjAnLCAnLXRuJywgJzgnLCAnLW1hJywgJzIwMCcsICctaW1hZScsICc8aW5maWxlLm1hZT4nLCAnLW9tYWUnLCAnPG91dGZpbGUubWFlPic=

>  <r_epik_Ionization_Penalty>  (84) 
0.0618548

>  <r_epik_Ionization_Penalty_Charging>  (84) 
0.00227182

>  <r_epik_Ionization_Penalty_Neutral>  (84) 
0.059583

>  <r_epik_State_Penalty>  (84) 
0.163598

>  <r_epik_Charging_Adjusted_Penalty>  (84) 
0.165869

>  <i_epik_Tot_Q>  (84) 
1

>  <i_epik_Tot_abs_Q>  (84) 
1

>  <s_epik_Chemistry_Notes>  (84) 
This compound contains an acetal/aminal-like group ( X-CH(R)-Y where X, Y are N, S, or O) that may be acid/base labile, releasing an aldehyde.

>  <s_lp_Force_Field>  (84) 
OPLS3e

>  <r_lp_Energy>  (84) 
73.137

>  <b_lp_Chiralities_Consistent>  (84) 
1

>  <s_lp_Variant>  (84) 
26:0-1

>  <s_i_glide_gridfile>  (84) 
pfpi4k_grid

>  <i_i_glide_lignum>  (84) 
44

>  <i_i_glide_rotatable_bonds>  (84) 
2

>  <r_i_docking_score>  (84) 
-2.77511

>  <r_i_glide_ligand_efficiency>  (84) 
-0.102782

>  <r_i_glide_ligand_efficiency_sa>  (84) 
-0.308346

>  <r_i_glide_ligand_efficiency_ln>  (84) 
-0.646001

>  <r_i_glide_gscore>  (84) 
-2.77511

>  <r_i_glide_lipo>  (84) 
-0.351912

>  <r_i_glide_hbond>  (84) 
-0.104663

>  <r_i_glide_metal>  (84) 
-0

>  <r_i_glide_rewards>  (84) 
-0.807556

>  <r_i_glide_evdw>  (84) 
-16.2044

>  <r_i_glide_ecoul>  (84) 
-5.39096

>  <r_i_glide_erotb>  (84) 
0.133339

>  <r_i_glide_esite>  (84) 
-0.0254577

>  <r_i_glide_emodel>  (84) 
-26.6955

>  <r_i_glide_energy>  (84) 
-21.5954

>  <r_i_glide_einternal>  (84) 
0.0294009

>  <r_i_glide_intrahb_reward>  (84) 
-0

>  <i_i_glide_confnum>  (84) 
2

>  <i_i_glide_posenum>  (84) 
40

>  <r_i_glide_eff_state_penalty>  (84) 
0

>  <ligand_id>  (84) 
26

>  <original_smiles>  (84) 
CN1CC2CC(c3ccncc3)CC3CCN(C1)C2C(=Cc1cscn1)C3

>  <smiles>  (84) 
[H]C(=C1C([H])([H])C2([H])C([H])([H])C([H])(c3c([H])c([H])nc([H])c3[H])C([H])([H])C3([H])C([H])([H])N(C([H])([H])[H])C([H])([H])[N+]([H])(C([H])([H])C2([H])[H])C13[H])c1nc([H])sc1[H]

$$$$
26:0:1
     RDKit          3D

 56 60  0  0  1  0  0  0  0  0999 V2000
   -0.1637   -9.8129    2.4707 C   0  0  0  0  0  0  0  0  0  0  0  0
    0.2228   -9.3143    3.7831 N   0  0  0  0  0  0  0  0  0  0  0  0
    1.0417   -8.1055    3.6395 C   0  0  0  0  0  0  0  0  0  0  0  0
    1.3638   -7.6267    5.0642 C   0  0  2  0  0  0  0  0  0  0  0  0
    1.8536   -6.1823    5.2472 C   0  0  0  0  0  0  0  0  0  0  0  0
    1.7884   -5.6666    6.7208 C   0  0  1  0  0  0  0  0  0  0  0  0
    1.5483   -4.1599    6.7485 C   0  0  0  0  0  0  0  0  0  0  0  0
    0.3212   -3.6072    6.3214 C   0  0  0  0  0  0  0  0  0  0  0  0
    0.1647   -2.2056    6.3608 C   0  0  0  0  0  0  0  0  0  0  0  0
    1.1160   -1.3646    6.8050 N   0  0  0  0  0  0  0  0  0  0  0  0
    2.2860   -1.8947    7.2128 C   0  0  0  0  0  0  0  0  0  0  0  0
    2.5521   -3.2803    7.2038 C   0  0  0  0  0  0  0  0  0  0  0  0
    0.7940   -6.4085    7.6813 C   0  0  0  0  0  0  0  0  0  0  0  0
    1.2316   -7.7644    8.3456 C   0  0  1  0  0  0  0  0  0  0  0  0
    0.3031   -9.0041    8.1984 C   0  0  0  0  0  0  0  0  0  0  0  0
    0.0700   -9.6712    6.8218 C   0  0  0  0  0  0  0  0  0  0  0  0
    1.2572   -9.9069    5.9526 N   0  0  1  0  0  0  0  0  0  0  0  0
    0.8258  -10.3982    4.6010 C   0  0  0  0  0  0  0  0  0  0  0  0
    2.1750   -8.7636    5.7401 C   0  0  2  0  0  0  0  0  0  0  0  0
    3.2002   -8.4011    6.8190 C   0  0  0  0  0  0  0  0  0  0  0  0
    4.5269   -8.2137    6.6015 C   0  0  0  0  0  0  0  0  0  0  0  0
    5.3670   -8.2593    5.3666 C   0  0  0  0  0  0  0  0  0  0  0  0
    5.0242   -8.4892    4.0596 C   0  0  0  0  0  0  0  0  0  0  0  0
    6.4047   -8.4488    2.9906 S   0  0  0  0  0  0  0  0  0  0  0  0
    7.4065   -8.0444    4.3748 C   0  0  0  0  0  0  0  0  0  0  0  0
    6.7383   -7.9828    5.5300 N   0  0  0  0  0  0  0  0  0  0  0  0
    2.6985   -8.1847    8.2346 C   0  0  0  0  0  0  0  0  0  0  0  0
   -0.6885   -9.0359    1.9082 H   0  0  0  0  0  0  0  0  0  0  0  0
   -0.8465  -10.6561    2.5509 H   0  0  0  0  0  0  0  0  0  0  0  0
    0.6942  -10.1344    1.8729 H   0  0  0  0  0  0  0  0  0  0  0  0
    1.9373   -8.2992    3.0407 H   0  0  0  0  0  0  0  0  0  0  0  0
    0.4566   -7.3501    3.1063 H   0  0  0  0  0  0  0  0  0  0  0  0
    0.3619   -7.5413    5.4794 H   0  0  0  0  0  0  0  0  0  0  0  0
    2.8400   -6.0087    4.8106 H   0  0  0  0  0  0  0  0  0  0  0  0
    1.1738   -5.5772    4.6469 H   0  0  0  0  0  0  0  0  0  0  0  0
    2.7884   -5.7861    7.1350 H   0  0  0  0  0  0  0  0  0  0  0  0
   -0.4804   -4.2324    5.9626 H   0  0  0  0  0  0  0  0  0  0  0  0
   -0.7565   -1.7452    6.0364 H   0  0  0  0  0  0  0  0  0  0  0  0
    3.0352   -1.1955    7.5525 H   0  0  0  0  0  0  0  0  0  0  0  0
    3.5111   -3.6426    7.5402 H   0  0  0  0  0  0  0  0  0  0  0  0
    0.6337   -5.7283    8.5187 H   0  0  0  0  0  0  0  0  0  0  0  0
   -0.2031   -6.4898    7.2461 H   0  0  0  0  0  0  0  0  0  0  0  0
    1.1408   -7.5449    9.4143 H   0  0  0  0  0  0  0  0  0  0  0  0
    0.6728   -9.7719    8.8857 H   0  0  0  0  0  0  0  0  0  0  0  0
   -0.6774   -8.7241    8.5856 H   0  0  0  0  0  0  0  0  0  0  0  0
   -0.3701  -10.6515    7.0053 H   0  0  0  0  0  0  0  0  0  0  0  0
   -0.7093   -9.1277    6.2927 H   0  0  0  0  0  0  0  0  0  0  0  0
    0.1129  -11.2056    4.7184 H   0  0  0  0  0  0  0  0  0  0  0  0
    1.6733  -10.8228    4.0689 H   0  0  0  0  0  0  0  0  0  0  0  0
    2.8351   -9.2228    5.0301 H   0  0  0  0  0  0  0  0  0  0  0  0
    5.0897   -7.9537    7.4886 H   0  0  0  0  0  0  0  0  0  0  0  0
    4.0677   -8.6930    3.5942 H   0  0  0  0  0  0  0  0  0  0  0  0
    8.4743   -7.8605    4.3198 H   0  0  0  0  0  0  0  0  0  0  0  0
    3.3137   -7.4328    8.7344 H   0  0  0  0  0  0  0  0  0  0  0  0
    2.8638   -9.1094    8.7920 H   0  0  0  0  0  0  0  0  0  0  0  0
    1.7750  -10.6690    6.3939 H   0  0  0  0  0  0  0  0  0  0  0  0
  1  2  1  0
  1 28  1  0
  1 29  1  0
  1 30  1  0
  2 18  1  0
  2  3  1  0
  3  4  1  0
  3 31  1  0
  3 32  1  0
  4 19  1  0
  4  5  1  0
  4 33  1  1
  5  6  1  0
  5 34  1  0
  5 35  1  0
  6  7  1  0
  6 13  1  0
  6 36  1  1
  7 12  1  0
  7  8  2  0
  8  9  1  0
  8 37  1  0
  9 10  2  0
  9 38  1  0
 10 11  1  0
 11 12  2  0
 11 39  1  0
 12 40  1  0
 13 14  1  0
 13 41  1  0
 13 42  1  0
 14 27  1  0
 14 15  1  0
 14 43  1  1
 15 16  1  0
 15 44  1  0
 15 45  1  0
 16 17  1  0
 16 46  1  0
 16 47  1  0
 17 18  1  0
 17 19  1  0
 17 56  1  1
 18 48  1  0
 18 49  1  0
 19 20  1  0
 19 50  1  6
 20 21  2  3
 20 27  1  0
 21 22  1  0
 21 51  1  0
 22 26  1  0
 22 23  2  0
 23 24  1  0
 23 52  1  0
 24 25  1  0
 25 26  2  0
 25 53  1  0
 27 54  1  0
 27 55  1  0
M  CHG  1  17   1
M  END
>  <i_m_ct_stereo_status>  (85) 
1

>  <s_m_source_file>  (85) 
/var/tmp/pbs.5076255.sched01/tmpi0kgw23q/0rwfjwt46.sdf

>  <i_m_source_file_index>  (85) 
44

>  <i_lp_mmshare_version>  (85) 
48012

>  <i_f3d_flags>  (85) 
0

>  <s_epik_input>  (85) 
bjFbY0hdc1tjSF1jMS9bQ0hdPUNcMltDSDJdW0NASF0oW0NIMl1bQ0gyXU4oW0NASF0yW0NASF0zNClbQ0gyXU4oW0NIM10pW0NIMl0zKVtDSDJdW0NAQEhdKFtDSDJdNCljNVtjSF1bY0hdbltjSF1bY0hdNQ==

>  <s_epik_cmdline>  (85) 
J2VwaWtfcHl0aG9uJywgJy1waHQnLCAnMi4wJywgJy1waCcsICc3LjAnLCAnLXRuJywgJzgnLCAnLW1hJywgJzIwMCcsICctaW1hZScsICc8aW5maWxlLm1hZT4nLCAnLW9tYWUnLCAnPG91dGZpbGUubWFlPic=

>  <r_epik_Ionization_Penalty>  (85) 
0.0618548

>  <r_epik_Ionization_Penalty_Charging>  (85) 
0.00227182

>  <r_epik_Ionization_Penalty_Neutral>  (85) 
0.059583

>  <r_epik_State_Penalty>  (85) 
0.163598

>  <r_epik_Charging_Adjusted_Penalty>  (85) 
0.165869

>  <i_epik_Tot_Q>  (85) 
1

>  <i_epik_Tot_abs_Q>  (85) 
1

>  <s_epik_Chemistry_Notes>  (85) 
This compound contains an acetal/aminal-like group ( X-CH(R)-Y where X, Y are N, S, or O) that may be acid/base labile, releasing an aldehyde.

>  <s_lp_Force_Field>  (85) 
OPLS3e

>  <r_lp_Energy>  (85) 
73.137

>  <b_lp_Chiralities_Consistent>  (85) 
1

>  <s_lp_Variant>  (85) 
26:0-1

>  <s_i_glide_gridfile>  (85) 
pfpi4k_grid

>  <i_i_glide_lignum>  (85) 
44

>  <i_i_glide_rotatable_bonds>  (85) 
2

>  <r_i_docking_score>  (85) 
-2.40317

>  <r_i_glide_ligand_efficiency>  (85) 
-0.0890062

>  <r_i_glide_ligand_efficiency_sa>  (85) 
-0.267019

>  <r_i_glide_ligand_efficiency_ln>  (85) 
-0.559418

>  <r_i_glide_gscore>  (85) 
-2.40317

>  <r_i_glide_lipo>  (85) 
-0.0808449

>  <r_i_glide_hbond>  (85) 
-0.106644

>  <r_i_glide_metal>  (85) 
-0

>  <r_i_glide_rewards>  (85) 
-0.807556

>  <r_i_glide_evdw>  (85) 
-16.1271

>  <r_i_glide_ecoul>  (85) 
-3.94481

>  <r_i_glide_erotb>  (85) 
0.133339

>  <r_i_glide_esite>  (85) 
-0.143383

>  <r_i_glide_emodel>  (85) 
-24.3946

>  <r_i_glide_energy>  (85) 
-20.0719

>  <r_i_glide_einternal>  (85) 
0.135369

>  <r_i_glide_intrahb_reward>  (85) 
-0

>  <i_i_glide_confnum>  (85) 
2

>  <i_i_glide_posenum>  (85) 
1

>  <r_i_glide_eff_state_penalty>  (85) 
0

>  <ligand_id>  (85) 
26

>  <original_smiles>  (85) 
CN1CC2CC(c3ccncc3)CC3CCN(C1)C2C(=Cc1cscn1)C3

>  <smiles>  (85) 
[H]C(=C1C([H])([H])C2([H])C([H])([H])C([H])(c3c([H])c([H])nc([H])c3[H])C([H])([H])C3([H])C([H])([H])N(C([H])([H])[H])C([H])([H])[N+]([H])(C([H])([H])C2([H])[H])C13[H])c1nc([H])sc1[H]

$$$$
26:0:2
     RDKit          3D

 56 60  0  0  1  0  0  0  0  0999 V2000
    3.7343   -9.4287    1.4760 C   0  0  0  0  0  0  0  0  0  0  0  0
    3.9731   -8.3939    2.4794 N   0  0  0  0  0  0  0  0  0  0  0  0
    3.0771   -7.2462    2.2557 C   0  0  0  0  0  0  0  0  0  0  0  0
    3.3615   -6.2302    3.3826 C   0  0  2  0  0  0  0  0  0  0  0  0
    2.3204   -5.1370    3.6563 C   0  0  0  0  0  0  0  0  0  0  0  0
    2.4943   -4.4143    5.0272 C   0  0  1  0  0  0  0  0  0  0  0  0
    1.1350   -3.9521    5.5396 C   0  0  0  0  0  0  0  0  0  0  0  0
    0.6452   -2.6787    5.1862 C   0  0  0  0  0  0  0  0  0  0  0  0
   -0.6124   -2.2825    5.6833 C   0  0  0  0  0  0  0  0  0  0  0  0
   -1.3779   -3.0523    6.4862 N   0  0  0  0  0  0  0  0  0  0  0  0
   -0.9014   -4.2737    6.8217 C   0  0  0  0  0  0  0  0  0  0  0  0
    0.3359   -4.7667    6.3686 C   0  0  0  0  0  0  0  0  0  0  0  0
    3.3013   -5.1889    6.1299 C   0  0  0  0  0  0  0  0  0  0  0  0
    4.8682   -5.1667    6.0963 C   0  0  1  0  0  0  0  0  0  0  0  0
    5.6333   -6.5108    6.1440 C   0  0  0  0  0  0  0  0  0  0  0  0
    5.5463   -7.5047    4.9608 C   0  0  0  0  0  0  0  0  0  0  0  0
    5.6857   -6.9642    3.5679 N   0  0  1  0  0  0  0  0  0  0  0  0
    5.4100   -8.0519    2.5636 C   0  0  0  0  0  0  0  0  0  0  0  0
    4.8346   -5.7968    3.2128 C   0  0  2  0  0  0  0  0  0  0  0  0
    5.2670   -4.3864    3.6799 C   0  0  0  0  0  0  0  0  0  0  0  0
    5.3678   -3.2799    2.8899 C   0  0  0  0  0  0  0  0  0  0  0  0
    5.0520   -3.0611    1.4605 C   0  0  0  0  0  0  0  0  0  0  0  0
    5.2365   -1.8549    0.8217 C   0  0  0  0  0  0  0  0  0  0  0  0
    4.7419   -1.9386   -0.8584 S   0  0  0  0  0  0  0  0  0  0  0  0
    4.2905   -3.6185   -0.6040 C   0  0  0  0  0  0  0  0  0  0  0  0
    4.4941   -4.0450    0.6407 N   0  0  0  0  0  0  0  0  0  0  0  0
    5.5674   -4.1922    5.1511 C   0  0  0  0  0  0  0  0  0  0  0  0
    2.6860   -9.7312    1.4868 H   0  0  0  0  0  0  0  0  0  0  0  0
    4.3269  -10.3162    1.6928 H   0  0  0  0  0  0  0  0  0  0  0  0
    3.9766   -9.1010    0.4619 H   0  0  0  0  0  0  0  0  0  0  0  0
    3.2254   -6.8209    1.2602 H   0  0  0  0  0  0  0  0  0  0  0  0
    2.0467   -7.6010    2.3160 H   0  0  0  0  0  0  0  0  0  0  0  0
    3.2245   -6.8557    4.2587 H   0  0  0  0  0  0  0  0  0  0  0  0
    2.2409   -4.4248    2.8322 H   0  0  0  0  0  0  0  0  0  0  0  0
    1.3651   -5.6597    3.6822 H   0  0  0  0  0  0  0  0  0  0  0  0
    3.0354   -3.4889    4.8301 H   0  0  0  0  0  0  0  0  0  0  0  0
    1.2054   -2.0110    4.5523 H   0  0  0  0  0  0  0  0  0  0  0  0
   -1.0237   -1.3135    5.4298 H   0  0  0  0  0  0  0  0  0  0  0  0
   -1.5392   -4.8709    7.4508 H   0  0  0  0  0  0  0  0  0  0  0  0
    0.6517   -5.7582    6.6621 H   0  0  0  0  0  0  0  0  0  0  0  0
    3.0448   -4.7101    7.0738 H   0  0  0  0  0  0  0  0  0  0  0  0
    2.9358   -6.2075    6.2683 H   0  0  0  0  0  0  0  0  0  0  0  0
    5.1162   -4.7476    7.0734 H   0  0  0  0  0  0  0  0  0  0  0  0
    6.6866   -6.2941    6.3307 H   0  0  0  0  0  0  0  0  0  0  0  0
    5.3030   -7.0528    7.0284 H   0  0  0  0  0  0  0  0  0  0  0  0
    6.3556   -8.2265    5.0931 H   0  0  0  0  0  0  0  0  0  0  0  0
    4.6468   -8.1082    5.0729 H   0  0  0  0  0  0  0  0  0  0  0  0
    5.9729   -8.9471    2.8406 H   0  0  0  0  0  0  0  0  0  0  0  0
    5.7831   -7.7523    1.5803 H   0  0  0  0  0  0  0  0  0  0  0  0
    5.0516   -5.7467    2.1528 H   0  0  0  0  0  0  0  0  0  0  0  0
    5.6886   -2.3806    3.3965 H   0  0  0  0  0  0  0  0  0  0  0  0
    5.6204   -0.9331    1.2364 H   0  0  0  0  0  0  0  0  0  0  0  0
    3.8837   -4.2861   -1.3515 H   0  0  0  0  0  0  0  0  0  0  0  0
    5.2911   -3.1756    5.4396 H   0  0  0  0  0  0  0  0  0  0  0  0
    6.6478   -4.2572    5.2915 H   0  0  0  0  0  0  0  0  0  0  0  0
    6.6467   -6.6772    3.4468 H   0  0  0  0  0  0  0  0  0  0  0  0
  1  2  1  0
  1 28  1  0
  1 29  1  0
  1 30  1  0
  2 18  1  0
  2  3  1  0
  3  4  1  0
  3 31  1  0
  3 32  1  0
  4 19  1  0
  4  5  1  0
  4 33  1  1
  5  6  1  0
  5 34  1  0
  5 35  1  0
  6  7  1  0
  6 13  1  0
  6 36  1  6
  7 12  1  0
  7  8  2  0
  8  9  1  0
  8 37  1  0
  9 10  2  0
  9 38  1  0
 10 11  1  0
 11 12  2  0
 11 39  1  0
 12 40  1  0
 13 14  1  0
 13 41  1  0
 13 42  1  0
 14 27  1  0
 14 15  1  0
 14 43  1  1
 15 16  1  0
 15 44  1  0
 15 45  1  0
 16 17  1  0
 16 46  1  0
 16 47  1  0
 17 18  1  0
 17 19  1  0
 17 56  1  1
 18 48  1  0
 18 49  1  0
 19 20  1  0
 19 50  1  6
 20 21  2  3
 20 27  1  0
 21 22  1  0
 21 51  1  0
 22 26  1  0
 22 23  2  0
 23 24  1  0
 23 52  1  0
 24 25  1  0
 25 26  2  0
 25 53  1  0
 27 54  1  0
 27 55  1  0
M  CHG  1  17   1
M  END
>  <i_m_ct_stereo_status>  (86) 
1

>  <s_m_source_file>  (86) 
/var/tmp/pbs.5076255.sched01/tmpi0kgw23q/0rwfjwt46.sdf

>  <i_m_source_file_index>  (86) 
44

>  <i_lp_mmshare_version>  (86) 
48012

>  <i_f3d_flags>  (86) 
0

>  <s_epik_input>  (86) 
bjFbY0hdc1tjSF1jMS9bQ0hdPUNcMltDSDJdW0NASF0oW0NIMl1bQ0gyXU4oW0NASF0yW0NASF0zNClbQ0gyXU4oW0NIM10pW0NIMl0zKVtDSDJdW0NAQEhdKFtDSDJdNCljNVtjSF1bY0hdbltjSF1bY0hdNQ==

>  <s_epik_cmdline>  (86) 
J2VwaWtfcHl0aG9uJywgJy1waHQnLCAnMi4wJywgJy1waCcsICc3LjAnLCAnLXRuJywgJzgnLCAnLW1hJywgJzIwMCcsICctaW1hZScsICc8aW5maWxlLm1hZT4nLCAnLW9tYWUnLCAnPG91dGZpbGUubWFlPic=

>  <r_epik_Ionization_Penalty>  (86) 
0.0618548

>  <r_epik_Ionization_Penalty_Charging>  (86) 
0.00227182

>  <r_epik_Ionization_Penalty_Neutral>  (86) 
0.059583

>  <r_epik_State_Penalty>  (86) 
0.163598

>  <r_epik_Charging_Adjusted_Penalty>  (86) 
0.165869

>  <i_epik_Tot_Q>  (86) 
1

>  <i_epik_Tot_abs_Q>  (86) 
1

>  <s_epik_Chemistry_Notes>  (86) 
This compound contains an acetal/aminal-like group ( X-CH(R)-Y where X, Y are N, S, or O) that may be acid/base labile, releasing an aldehyde.

>  <s_lp_Force_Field>  (86) 
OPLS3e

>  <r_lp_Energy>  (86) 
73.137

>  <b_lp_Chiralities_Consistent>  (86) 
1

>  <s_lp_Variant>  (86) 
26:0-1

>  <s_i_glide_gridfile>  (86) 
pfpi4k_grid

>  <i_i_glide_lignum>  (86) 
44

>  <i_i_glide_rotatable_bonds>  (86) 
2

>  <r_i_docking_score>  (86) 
-2.38145

>  <r_i_glide_ligand_efficiency>  (86) 
-0.0882018

>  <r_i_glide_ligand_efficiency_sa>  (86) 
-0.264605

>  <r_i_glide_ligand_efficiency_ln>  (86) 
-0.554362

>  <r_i_glide_gscore>  (86) 
-2.38145

>  <r_i_glide_lipo>  (86) 
-0.172158

>  <r_i_glide_hbond>  (86) 
0

>  <r_i_glide_metal>  (86) 
-0

>  <r_i_glide_rewards>  (86) 
-0.81722

>  <r_i_glide_evdw>  (86) 
-19.0113

>  <r_i_glide_ecoul>  (86) 
-3.83228

>  <r_i_glide_erotb>  (86) 
0.133339

>  <r_i_glide_esite>  (86) 
0

>  <r_i_glide_emodel>  (86) 
-27.2217

>  <r_i_glide_energy>  (86) 
-22.8436

>  <r_i_glide_einternal>  (86) 
0.204992

>  <r_i_glide_intrahb_reward>  (86) 
-0

>  <i_i_glide_confnum>  (86) 
3

>  <i_i_glide_posenum>  (86) 
7

>  <r_i_glide_eff_state_penalty>  (86) 
0

>  <ligand_id>  (86) 
26

>  <original_smiles>  (86) 
CN1CC2CC(c3ccncc3)CC3CCN(C1)C2C(=Cc1cscn1)C3

>  <smiles>  (86) 
[H]C(=C1C([H])([H])C2([H])C([H])([H])C([H])(c3c([H])c([H])nc([H])c3[H])C([H])([H])C3([H])C([H])([H])N(C([H])([H])[H])C([H])([H])[N+]([H])(C([H])([H])C2([H])[H])C13[H])c1nc([H])sc1[H]

$$$$
26:1:0
     RDKit          3D

 56 60  0  0  1  0  0  0  0  0999 V2000
    3.7670   -2.7774   -1.4762 C   0  0  0  0  0  0  0  0  0  0  0  0
    3.4923   -2.5325   -0.0628 N   0  0  0  0  0  0  0  0  0  0  0  0
    3.4131   -1.0812    0.1929 C   0  0  0  0  0  0  0  0  0  0  0  0
    3.0556   -0.9071    1.6828 C   0  0  2  0  0  0  0  0  0  0  0  0
    2.5127    0.4553    2.1370 C   0  0  0  0  0  0  0  0  0  0  0  0
    1.7815    0.4243    3.5140 C   0  0  1  0  0  0  0  0  0  0  0  0
    0.6823    1.4822    3.5510 C   0  0  0  0  0  0  0  0  0  0  0  0
    0.8485    2.6713    4.2910 C   0  0  0  0  0  0  0  0  0  0  0  0
   -0.1895    3.6250    4.2862 C   0  0  0  0  0  0  0  0  0  0  0  0
   -1.3553    3.4554    3.6310 N   0  0  0  0  0  0  0  0  0  0  0  0
   -1.5008    2.3262    2.9053 C   0  0  0  0  0  0  0  0  0  0  0  0
   -0.5249    1.3100    2.8431 C   0  0  0  0  0  0  0  0  0  0  0  0
    1.2531   -0.9750    4.0045 C   0  0  0  0  0  0  0  0  0  0  0  0
    2.2642   -1.9770    4.6633 C   0  0  1  0  0  0  0  0  0  0  0  0
    2.3850   -3.4242    4.1378 C   0  0  0  0  0  0  0  0  0  0  0  0
    2.9261   -3.6968    2.7129 C   0  0  0  0  0  0  0  0  0  0  0  0
    4.1744   -2.9944    2.2687 N   0  0  1  0  0  0  0  0  0  0  0  0
    4.4314   -3.2638    0.8151 C   0  0  0  0  0  0  0  0  0  0  0  0
    4.2273   -1.5252    2.4741 C   0  0  2  0  0  0  0  0  0  0  0  0
    4.5464   -1.0156    3.8977 C   0  0  0  0  0  0  0  0  0  0  0  0
    5.6367   -0.2407    4.1111 C   0  0  0  0  0  0  0  0  0  0  0  0
    6.1731    0.3616    5.3648 C   0  0  0  0  0  0  0  0  0  0  0  0
    5.6428    0.3971    6.6367 C   0  0  0  0  0  0  0  0  0  0  0  0
    6.6893    1.2304    7.7573 S   0  0  0  0  0  0  0  0  0  0  0  0
    7.8362    1.4649    6.4536 C   0  0  0  0  0  0  0  0  0  0  0  0
    7.4461    0.9494    5.2827 N   0  0  0  0  0  0  0  0  0  0  0  0
    3.6289   -1.4281    5.0327 C   0  0  0  0  0  0  0  0  0  0  0  0
    3.0054   -2.2987   -2.0926 H   0  0  0  0  0  0  0  0  0  0  0  0
    3.7408   -3.8443   -1.7069 H   0  0  0  0  0  0  0  0  0  0  0  0
    4.7384   -2.3844   -1.7831 H   0  0  0  0  0  0  0  0  0  0  0  0
    4.3405   -0.5746   -0.0791 H   0  0  0  0  0  0  0  0  0  0  0  0
    2.6202   -0.6565   -0.4176 H   0  0  0  0  0  0  0  0  0  0  0  0
    2.1617   -1.5124    1.7556 H   0  0  0  0  0  0  0  0  0  0  0  0
    3.2677    1.2445    2.1050 H   0  0  0  0  0  0  0  0  0  0  0  0
    1.7813    0.7328    1.3777 H   0  0  0  0  0  0  0  0  0  0  0  0
    2.5046    0.7849    4.2403 H   0  0  0  0  0  0  0  0  0  0  0  0
    1.7519    2.8673    4.8471 H   0  0  0  0  0  0  0  0  0  0  0  0
   -0.0857    4.5489    4.8355 H   0  0  0  0  0  0  0  0  0  0  0  0
   -2.4276    2.2263    2.3599 H   0  0  0  0  0  0  0  0  0  0  0  0
   -0.7000    0.4322    2.2429 H   0  0  0  0  0  0  0  0  0  0  0  0
    0.5257   -0.7513    4.7864 H   0  0  0  0  0  0  0  0  0  0  0  0
    0.6471   -1.4738    3.2474 H   0  0  0  0  0  0  0  0  0  0  0  0
    1.8219   -2.1387    5.6504 H   0  0  0  0  0  0  0  0  0  0  0  0
    2.9897   -3.9904    4.8526 H   0  0  0  0  0  0  0  0  0  0  0  0
    1.3933   -3.8760    4.2039 H   0  0  0  0  0  0  0  0  0  0  0  0
    3.1325   -4.7652    2.6621 H   0  0  0  0  0  0  0  0  0  0  0  0
    2.1105   -3.5584    2.0057 H   0  0  0  0  0  0  0  0  0  0  0  0
    4.3367   -4.3357    0.6194 H   0  0  0  0  0  0  0  0  0  0  0  0
    5.4613   -2.9975    0.5620 H   0  0  0  0  0  0  0  0  0  0  0  0
    5.1288   -1.2226    1.9418 H   0  0  0  0  0  0  0  0  0  0  0  0
    6.2355    0.0069    3.2403 H   0  0  0  0  0  0  0  0  0  0  0  0
    4.7177    0.0113    7.0387 H   0  0  0  0  0  0  0  0  0  0  0  0
    8.7882    1.9690    6.5565 H   0  0  0  0  0  0  0  0  0  0  0  0
    3.3901   -0.5608    5.6291 H   0  0  0  0  0  0  0  0  0  0  0  0
    4.1661   -2.1280    5.6800 H   0  0  0  0  0  0  0  0  0  0  0  0
    4.9435   -3.3968    2.7872 H   0  0  0  0  0  0  0  0  0  0  0  0
  1  2  1  0
  1 28  1  0
  1 29  1  0
  1 30  1  0
  2 18  1  0
  2  3  1  0
  3  4  1  0
  3 31  1  0
  3 32  1  0
  4 19  1  0
  4  5  1  0
  4 33  1  6
  5  6  1  0
  5 34  1  0
  5 35  1  0
  6  7  1  0
  6 13  1  0
  6 36  1  1
  7 12  1  0
  7  8  2  0
  8  9  1  0
  8 37  1  0
  9 10  2  0
  9 38  1  0
 10 11  1  0
 11 12  2  0
 11 39  1  0
 12 40  1  0
 13 14  1  0
 13 41  1  0
 13 42  1  0
 14 27  1  0
 14 15  1  0
 14 43  1  1
 15 16  1  0
 15 44  1  0
 15 45  1  0
 16 17  1  0
 16 46  1  0
 16 47  1  0
 17 18  1  0
 17 19  1  0
 17 56  1  1
 18 48  1  0
 18 49  1  0
 19 20  1  0
 19 50  1  6
 20 21  2  3
 20 27  1  0
 21 22  1  0
 21 51  1  0
 22 26  1  0
 22 23  2  0
 23 24  1  0
 23 52  1  0
 24 25  1  0
 25 26  2  0
 25 53  1  0
 27 54  1  0
 27 55  1  0
M  CHG  1  17   1
M  END
>  <i_m_ct_stereo_status>  (87) 
1

>  <s_m_source_file>  (87) 
/var/tmp/pbs.5076255.sched01/tmpi0kgw23q/0rwfjwt46.sdf

>  <i_m_source_file_index>  (87) 
45

>  <i_lp_mmshare_version>  (87) 
48012

>  <i_f3d_flags>  (87) 
0

>  <s_epik_input>  (87) 
bjFbY0hdc1tjSF1jMS9bQ0hdPUNcMltDSDJdW0NASF0oW0NIMl1bQ0gyXU4oW0NASF0yW0NASF0zNClbQ0gyXU4oW0NIM10pW0NIMl0zKVtDSDJdW0NAQEhdKFtDSDJdNCljNVtjSF1bY0hdbltjSF1bY0hdNQ==

>  <s_epik_cmdline>  (87) 
J2VwaWtfcHl0aG9uJywgJy1waHQnLCAnMi4wJywgJy1waCcsICc3LjAnLCAnLXRuJywgJzgnLCAnLW1hJywgJzIwMCcsICctaW1hZScsICc8aW5maWxlLm1hZT4nLCAnLW9tYWUnLCAnPG91dGZpbGUubWFlPic=

>  <r_epik_Ionization_Penalty>  (87) 
0.0618548

>  <r_epik_Ionization_Penalty_Charging>  (87) 
0.00227182

>  <r_epik_Ionization_Penalty_Neutral>  (87) 
0.059583

>  <r_epik_State_Penalty>  (87) 
0.163598

>  <r_epik_Charging_Adjusted_Penalty>  (87) 
0.165869

>  <i_epik_Tot_Q>  (87) 
1

>  <i_epik_Tot_abs_Q>  (87) 
1

>  <s_epik_Chemistry_Notes>  (87) 
This compound contains an acetal/aminal-like group ( X-CH(R)-Y where X, Y are N, S, or O) that may be acid/base labile, releasing an aldehyde.

>  <s_lp_Force_Field>  (87) 
OPLS3e

>  <r_lp_Energy>  (87) 
74.1771

>  <b_lp_Chiralities_Consistent>  (87) 
1

>  <s_lp_Variant>  (87) 
26:0-2

>  <s_i_glide_gridfile>  (87) 
pfpi4k_grid

>  <i_i_glide_lignum>  (87) 
45

>  <i_i_glide_rotatable_bonds>  (87) 
2

>  <r_i_docking_score>  (87) 
-2.87584

>  <r_i_glide_ligand_efficiency>  (87) 
-0.106513

>  <r_i_glide_ligand_efficiency_sa>  (87) 
-0.319538

>  <r_i_glide_ligand_efficiency_ln>  (87) 
-0.669449

>  <r_i_glide_gscore>  (87) 
-2.87584

>  <r_i_glide_lipo>  (87) 
-0.404194

>  <r_i_glide_hbond>  (87) 
0

>  <r_i_glide_metal>  (87) 
-0

>  <r_i_glide_rewards>  (87) 
-0.834033

>  <r_i_glide_evdw>  (87) 
-23.1498

>  <r_i_glide_ecoul>  (87) 
-4.08977

>  <r_i_glide_erotb>  (87) 
0.133339

>  <r_i_glide_esite>  (87) 
0

>  <r_i_glide_emodel>  (87) 
-31.374

>  <r_i_glide_energy>  (87) 
-27.2396

>  <r_i_glide_einternal>  (87) 
0.289538

>  <r_i_glide_intrahb_reward>  (87) 
-0

>  <i_i_glide_confnum>  (87) 
3

>  <i_i_glide_posenum>  (87) 
17

>  <r_i_glide_eff_state_penalty>  (87) 
0

>  <ligand_id>  (87) 
26

>  <original_smiles>  (87) 
CN1CC2CC(c3ccncc3)CC3CCN(C1)C2C(=Cc1cscn1)C3

>  <smiles>  (87) 
[H]C(=C1C([H])([H])C2([H])C([H])([H])C([H])(c3c([H])c([H])nc([H])c3[H])C([H])([H])C3([H])C([H])([H])N(C([H])([H])[H])C([H])([H])[N+]([H])(C([H])([H])C2([H])[H])C13[H])c1nc([H])sc1[H]

$$$$
26:1:1
     RDKit          3D

 56 60  0  0  1  0  0  0  0  0999 V2000
    3.0118   -4.4877   -0.2334 C   0  0  0  0  0  0  0  0  0  0  0  0
    2.8613   -3.9699    1.1229 N   0  0  0  0  0  0  0  0  0  0  0  0
    2.7050   -2.5095    1.0810 C   0  0  0  0  0  0  0  0  0  0  0  0
    2.5111   -2.0509    2.5399 C   0  0  2  0  0  0  0  0  0  0  0  0
    1.9304   -0.6654    2.7598 C   0  0  0  0  0  0  0  0  0  0  0  0
    1.3095   -0.3997    4.1804 C   0  0  1  0  0  0  0  0  0  0  0  0
    0.1377    0.6067    4.1298 C   0  0  0  0  0  0  0  0  0  0  0  0
   -0.6782    0.8579    5.2676 C   0  0  0  0  0  0  0  0  0  0  0  0
   -1.7406    1.7762    5.1658 C   0  0  0  0  0  0  0  0  0  0  0  0
   -2.0313    2.4725    4.0540 N   0  0  0  0  0  0  0  0  0  0  0  0
   -1.2416    2.2737    2.9787 C   0  0  0  0  0  0  0  0  0  0  0  0
   -0.1546    1.3791    2.9715 C   0  0  0  0  0  0  0  0  0  0  0  0
    0.9698   -1.7202    4.9899 C   0  0  0  0  0  0  0  0  0  0  0  0
    2.1297   -2.4765    5.7217 C   0  0  1  0  0  0  0  0  0  0  0  0
    2.2914   -3.9958    5.5096 C   0  0  0  0  0  0  0  0  0  0  0  0
    2.6884   -4.5376    4.1192 C   0  0  0  0  0  0  0  0  0  0  0  0
    3.8221   -3.8849    3.3962 N   0  0  1  0  0  0  0  0  0  0  0  0
    3.9452   -4.4429    2.0160 C   0  0  0  0  0  0  0  0  0  0  0  0
    3.8004   -2.4115    3.2913 C   0  0  2  0  0  0  0  0  0  0  0  0
    4.2362   -1.5791    4.5122 C   0  0  0  0  0  0  0  0  0  0  0  0
    5.2931   -0.7250    4.4105 C   0  0  0  0  0  0  0  0  0  0  0  0
    5.9210    0.1438    5.4433 C   0  0  0  0  0  0  0  0  0  0  0  0
    7.0933    0.8178    5.2286 C   0  0  0  0  0  0  0  0  0  0  0  0
    7.6080    1.7204    6.6353 S   0  0  0  0  0  0  0  0  0  0  0  0
    6.1874    1.1169    7.4855 C   0  0  0  0  0  0  0  0  0  0  0  0
    5.4231    0.3031    6.7511 N   0  0  0  0  0  0  0  0  0  0  0  0
    3.4809   -1.7778    5.8167 C   0  0  0  0  0  0  0  0  0  0  0  0
    2.1607   -4.1918   -0.8552 H   0  0  0  0  0  0  0  0  0  0  0  0
    3.0432   -5.5799   -0.2380 H   0  0  0  0  0  0  0  0  0  0  0  0
    3.9168   -4.1202   -0.7272 H   0  0  0  0  0  0  0  0  0  0  0  0
    3.5605   -2.0236    0.6013 H   0  0  0  0  0  0  0  0  0  0  0  0
    1.8195   -2.2657    0.4869 H   0  0  0  0  0  0  0  0  0  0  0  0
    1.6699   -2.6671    2.8262 H   0  0  0  0  0  0  0  0  0  0  0  0
    2.6018    0.1400    2.4477 H   0  0  0  0  0  0  0  0  0  0  0  0
    1.1249   -0.7051    2.0285 H   0  0  0  0  0  0  0  0  0  0  0  0
    2.0602    0.1601    4.7375 H   0  0  0  0  0  0  0  0  0  0  0  0
   -0.5171    0.4044    6.2280 H   0  0  0  0  0  0  0  0  0  0  0  0
   -2.3754    1.9514    6.0215 H   0  0  0  0  0  0  0  0  0  0  0  0
   -1.4653    2.8389    2.0817 H   0  0  0  0  0  0  0  0  0  0  0  0
    0.4177    1.3564    2.0542 H   0  0  0  0  0  0  0  0  0  0  0  0
    0.3180   -1.4861    5.8225 H   0  0  0  0  0  0  0  0  0  0  0  0
    0.3355   -2.3978    4.4154 H   0  0  0  0  0  0  0  0  0  0  0  0
    1.8050   -2.4448    6.7688 H   0  0  0  0  0  0  0  0  0  0  0  0
    3.0017   -4.3632    6.2539 H   0  0  0  0  0  0  0  0  0  0  0  0
    1.3433   -4.4600    5.7814 H   0  0  0  0  0  0  0  0  0  0  0  0
    2.9570   -5.5804    4.2674 H   0  0  0  0  0  0  0  0  0  0  0  0
    1.7883   -4.5962    3.5087 H   0  0  0  0  0  0  0  0  0  0  0  0
    3.9083   -5.5285    2.0523 H   0  0  0  0  0  0  0  0  0  0  0  0
    4.9075   -4.1772    1.5867 H   0  0  0  0  0  0  0  0  0  0  0  0
    4.6008   -2.1799    2.5944 H   0  0  0  0  0  0  0  0  0  0  0  0
    5.7672   -0.6418    3.4380 H   0  0  0  0  0  0  0  0  0  0  0  0
    7.6968    0.8405    4.3274 H   0  0  0  0  0  0  0  0  0  0  0  0
    5.9131    1.3421    8.5098 H   0  0  0  0  0  0  0  0  0  0  0  0
    3.2756   -0.8204    6.2929 H   0  0  0  0  0  0  0  0  0  0  0  0
    4.1257   -2.3177    6.5165 H   0  0  0  0  0  0  0  0  0  0  0  0
    4.6712   -4.1286    3.8997 H   0  0  0  0  0  0  0  0  0  0  0  0
  1  2  1  0
  1 28  1  0
  1 29  1  0
  1 30  1  0
  2 18  1  0
  2  3  1  0
  3  4  1  0
  3 31  1  0
  3 32  1  0
  4 19  1  0
  4  5  1  0
  4 33  1  1
  5  6  1  0
  5 34  1  0
  5 35  1  0
  6  7  1  0
  6 13  1  0
  6 36  1  1
  7 12  1  0
  7  8  2  0
  8  9  1  0
  8 37  1  0
  9 10  2  0
  9 38  1  0
 10 11  1  0
 11 12  2  0
 11 39  1  0
 12 40  1  0
 13 14  1  0
 13 41  1  0
 13 42  1  0
 14 27  1  0
 14 15  1  0
 14 43  1  1
 15 16  1  0
 15 44  1  0
 15 45  1  0
 16 17  1  0
 16 46  1  0
 16 47  1  0
 17 18  1  0
 17 19  1  0
 17 56  1  1
 18 48  1  0
 18 49  1  0
 19 20  1  0
 19 50  1  6
 20 21  2  3
 20 27  1  0
 21 22  1  0
 21 51  1  0
 22 26  1  0
 22 23  2  0
 23 24  1  0
 23 52  1  0
 24 25  1  0
 25 26  2  0
 25 53  1  0
 27 54  1  0
 27 55  1  0
M  CHG  1  17   1
M  END
>  <i_m_ct_stereo_status>  (88) 
1

>  <s_m_source_file>  (88) 
/var/tmp/pbs.5076255.sched01/tmpi0kgw23q/0rwfjwt46.sdf

>  <i_m_source_file_index>  (88) 
45

>  <i_lp_mmshare_version>  (88) 
48012

>  <i_f3d_flags>  (88) 
0

>  <s_epik_input>  (88) 
bjFbY0hdc1tjSF1jMS9bQ0hdPUNcMltDSDJdW0NASF0oW0NIMl1bQ0gyXU4oW0NASF0yW0NASF0zNClbQ0gyXU4oW0NIM10pW0NIMl0zKVtDSDJdW0NAQEhdKFtDSDJdNCljNVtjSF1bY0hdbltjSF1bY0hdNQ==

>  <s_epik_cmdline>  (88) 
J2VwaWtfcHl0aG9uJywgJy1waHQnLCAnMi4wJywgJy1waCcsICc3LjAnLCAnLXRuJywgJzgnLCAnLW1hJywgJzIwMCcsICctaW1hZScsICc8aW5maWxlLm1hZT4nLCAnLW9tYWUnLCAnPG91dGZpbGUubWFlPic=

>  <r_epik_Ionization_Penalty>  (88) 
0.0618548

>  <r_epik_Ionization_Penalty_Charging>  (88) 
0.00227182

>  <r_epik_Ionization_Penalty_Neutral>  (88) 
0.059583

>  <r_epik_State_Penalty>  (88) 
0.163598

>  <r_epik_Charging_Adjusted_Penalty>  (88) 
0.165869

>  <i_epik_Tot_Q>  (88) 
1

>  <i_epik_Tot_abs_Q>  (88) 
1

>  <s_epik_Chemistry_Notes>  (88) 
This compound contains an acetal/aminal-like group ( X-CH(R)-Y where X, Y are N, S, or O) that may be acid/base labile, releasing an aldehyde.

>  <s_lp_Force_Field>  (88) 
OPLS3e

>  <r_lp_Energy>  (88) 
74.1771

>  <b_lp_Chiralities_Consistent>  (88) 
1

>  <s_lp_Variant>  (88) 
26:0-2

>  <s_i_glide_gridfile>  (88) 
pfpi4k_grid

>  <i_i_glide_lignum>  (88) 
45

>  <i_i_glide_rotatable_bonds>  (88) 
2

>  <r_i_docking_score>  (88) 
-2.61157

>  <r_i_glide_ligand_efficiency>  (88) 
-0.0967249

>  <r_i_glide_ligand_efficiency_sa>  (88) 
-0.290175

>  <r_i_glide_ligand_efficiency_ln>  (88) 
-0.607931

>  <r_i_glide_gscore>  (88) 
-2.61157

>  <r_i_glide_lipo>  (88) 
-0.473478

>  <r_i_glide_hbond>  (88) 
0

>  <r_i_glide_metal>  (88) 
-0

>  <r_i_glide_rewards>  (88) 
-0.814871

>  <r_i_glide_evdw>  (88) 
-20.6382

>  <r_i_glide_ecoul>  (88) 
-2.83102

>  <r_i_glide_erotb>  (88) 
0.133339

>  <r_i_glide_esite>  (88) 
0

>  <r_i_glide_emodel>  (88) 
-23.7012

>  <r_i_glide_energy>  (88) 
-23.4692

>  <r_i_glide_einternal>  (88) 
7.1787

>  <r_i_glide_intrahb_reward>  (88) 
-0

>  <i_i_glide_confnum>  (88) 
3

>  <i_i_glide_posenum>  (88) 
1

>  <r_i_glide_eff_state_penalty>  (88) 
0

>  <ligand_id>  (88) 
26

>  <original_smiles>  (88) 
CN1CC2CC(c3ccncc3)CC3CCN(C1)C2C(=Cc1cscn1)C3

>  <smiles>  (88) 
[H]C(=C1C([H])([H])C2([H])C([H])([H])C([H])(c3c([H])c([H])nc([H])c3[H])C([H])([H])C3([H])C([H])([H])N(C([H])([H])[H])C([H])([H])[N+]([H])(C([H])([H])C2([H])[H])C13[H])c1nc([H])sc1[H]

$$$$
26:1:2
     RDKit          3D

 56 60  0  0  1  0  0  0  0  0999 V2000
    1.4346   -5.8720   -0.0400 C   0  0  0  0  0  0  0  0  0  0  0  0
    1.7794   -5.5773    1.3441 N   0  0  0  0  0  0  0  0  0  0  0  0
    2.7732   -4.4960    1.3910 C   0  0  0  0  0  0  0  0  0  0  0  0
    3.0389   -4.2031    2.8796 C   0  0  2  0  0  0  0  0  0  0  0  0
    3.7198   -2.8779    3.2322 C   0  0  0  0  0  0  0  0  0  0  0  0
    3.5538   -2.4550    4.7251 C   0  0  1  0  0  0  0  0  0  0  0  0
    3.5224   -0.9359    4.8486 C   0  0  0  0  0  0  0  0  0  0  0  0
    4.5312   -0.2512    5.5589 C   0  0  0  0  0  0  0  0  0  0  0  0
    4.4740    1.1512    5.6333 C   0  0  0  0  0  0  0  0  0  0  0  0
    3.5015    1.8859    5.0573 N   0  0  0  0  0  0  0  0  0  0  0  0
    2.5372    1.2310    4.3782 C   0  0  0  0  0  0  0  0  0  0  0  0
    2.4963   -0.1696    4.2528 C   0  0  0  0  0  0  0  0  0  0  0  0
    2.3716   -3.1167    5.5188 C   0  0  0  0  0  0  0  0  0  0  0  0
    2.5676   -4.5714    6.0777 C   0  0  1  0  0  0  0  0  0  0  0  0
    1.5200   -5.6671    5.7575 C   0  0  0  0  0  0  0  0  0  0  0  0
    1.3244   -6.1701    4.3069 C   0  0  0  0  0  0  0  0  0  0  0  0
    2.5429   -6.5127    3.4989 N   0  0  1  0  0  0  0  0  0  0  0  0
    2.1607   -6.8074    2.0779 C   0  0  0  0  0  0  0  0  0  0  0  0
    3.6314   -5.4988    3.4734 C   0  0  2  0  0  0  0  0  0  0  0  0
    4.5789   -5.4332    4.6877 C   0  0  0  0  0  0  0  0  0  0  0  0
    5.9036   -5.6889    4.5192 C   0  0  0  0  0  0  0  0  0  0  0  0
    7.0059   -5.6801    5.5077 C   0  0  0  0  0  0  0  0  0  0  0  0
    8.0825   -6.5268    5.4220 C   0  0  0  0  0  0  0  0  0  0  0  0
    9.1949   -6.2884    6.7520 S   0  0  0  0  0  0  0  0  0  0  0  0
    8.1158   -5.0535    7.3809 C   0  0  0  0  0  0  0  0  0  0  0  0
    7.0244   -4.8524    6.6370 N   0  0  0  0  0  0  0  0  0  0  0  0
    3.9833   -5.1490    6.0603 C   0  0  0  0  0  0  0  0  0  0  0  0
    1.0858   -4.9855   -0.5777 H   0  0  0  0  0  0  0  0  0  0  0  0
    0.6461   -6.6251   -0.0895 H   0  0  0  0  0  0  0  0  0  0  0  0
    2.3012   -6.2484   -0.5772 H   0  0  0  0  0  0  0  0  0  0  0  0
    3.6841   -4.7678    0.8483 H   0  0  0  0  0  0  0  0  0  0  0  0
    2.3518   -3.6129    0.9023 H   0  0  0  0  0  0  0  0  0  0  0  0
    2.0317   -4.0183    3.2310 H   0  0  0  0  0  0  0  0  0  0  0  0
    4.7664   -2.8447    2.9232 H   0  0  0  0  0  0  0  0  0  0  0  0
    3.2157   -2.1414    2.6059 H   0  0  0  0  0  0  0  0  0  0  0  0
    4.4791   -2.7441    5.2191 H   0  0  0  0  0  0  0  0  0  0  0  0
    5.3404   -0.7816    6.0393 H   0  0  0  0  0  0  0  0  0  0  0  0
    5.2323    1.7070    6.1655 H   0  0  0  0  0  0  0  0  0  0  0  0
    1.7778    1.8496    3.9214 H   0  0  0  0  0  0  0  0  0  0  0  0
    1.6973   -0.6358    3.6943 H   0  0  0  0  0  0  0  0  0  0  0  0
    2.2238   -2.4906    6.3986 H   0  0  0  0  0  0  0  0  0  0  0  0
    1.4182   -3.0173    4.9992 H   0  0  0  0  0  0  0  0  0  0  0  0
    2.3992   -4.4270    7.1493 H   0  0  0  0  0  0  0  0  0  0  0  0
    1.7301   -6.5300    6.3939 H   0  0  0  0  0  0  0  0  0  0  0  0
    0.5496   -5.3067    6.1005 H   0  0  0  0  0  0  0  0  0  0  0  0
    0.7260   -7.0789    4.3690 H   0  0  0  0  0  0  0  0  0  0  0  0
    0.6736   -5.4716    3.7858 H   0  0  0  0  0  0  0  0  0  0  0  0
    1.3206   -7.5017    2.0711 H   0  0  0  0  0  0  0  0  0  0  0  0
    2.9845   -7.3150    1.5721 H   0  0  0  0  0  0  0  0  0  0  0  0
    4.3077   -5.8765    2.7065 H   0  0  0  0  0  0  0  0  0  0  0  0
    6.2517   -5.8921    3.5157 H   0  0  0  0  0  0  0  0  0  0  0  0
    8.2897   -7.2653    4.6604 H   0  0  0  0  0  0  0  0  0  0  0  0
    8.2902   -4.4873    8.2875 H   0  0  0  0  0  0  0  0  0  0  0  0
    4.6024   -4.4504    6.6141 H   0  0  0  0  0  0  0  0  0  0  0  0
    4.0126   -6.0733    6.6418 H   0  0  0  0  0  0  0  0  0  0  0  0
    2.9330   -7.3576    3.8937 H   0  0  0  0  0  0  0  0  0  0  0  0
  1  2  1  0
  1 28  1  0
  1 29  1  0
  1 30  1  0
  2 18  1  0
  2  3  1  0
  3  4  1  0
  3 31  1  0
  3 32  1  0
  4 19  1  0
  4  5  1  0
  4 33  1  1
  5  6  1  0
  5 34  1  0
  5 35  1  0
  6  7  1  0
  6 13  1  0
  6 36  1  1
  7 12  1  0
  7  8  2  0
  8  9  1  0
  8 37  1  0
  9 10  2  0
  9 38  1  0
 10 11  1  0
 11 12  2  0
 11 39  1  0
 12 40  1  0
 13 14  1  0
 13 41  1  0
 13 42  1  0
 14 27  1  0
 14 15  1  0
 14 43  1  1
 15 16  1  0
 15 44  1  0
 15 45  1  0
 16 17  1  0
 16 46  1  0
 16 47  1  0
 17 18  1  0
 17 19  1  0
 17 56  1  1
 18 48  1  0
 18 49  1  0
 19 20  1  0
 19 50  1  6
 20 21  2  3
 20 27  1  0
 21 22  1  0
 21 51  1  0
 22 26  1  0
 22 23  2  0
 23 24  1  0
 23 52  1  0
 24 25  1  0
 25 26  2  0
 25 53  1  0
 27 54  1  0
 27 55  1  0
M  CHG  1  17   1
M  END
>  <i_m_ct_stereo_status>  (89) 
1

>  <s_m_source_file>  (89) 
/var/tmp/pbs.5076255.sched01/tmpi0kgw23q/0rwfjwt46.sdf

>  <i_m_source_file_index>  (89) 
45

>  <i_lp_mmshare_version>  (89) 
48012

>  <i_f3d_flags>  (89) 
0

>  <s_epik_input>  (89) 
bjFbY0hdc1tjSF1jMS9bQ0hdPUNcMltDSDJdW0NASF0oW0NIMl1bQ0gyXU4oW0NASF0yW0NASF0zNClbQ0gyXU4oW0NIM10pW0NIMl0zKVtDSDJdW0NAQEhdKFtDSDJdNCljNVtjSF1bY0hdbltjSF1bY0hdNQ==

>  <s_epik_cmdline>  (89) 
J2VwaWtfcHl0aG9uJywgJy1waHQnLCAnMi4wJywgJy1waCcsICc3LjAnLCAnLXRuJywgJzgnLCAnLW1hJywgJzIwMCcsICctaW1hZScsICc8aW5maWxlLm1hZT4nLCAnLW9tYWUnLCAnPG91dGZpbGUubWFlPic=

>  <r_epik_Ionization_Penalty>  (89) 
0.0618548

>  <r_epik_Ionization_Penalty_Charging>  (89) 
0.00227182

>  <r_epik_Ionization_Penalty_Neutral>  (89) 
0.059583

>  <r_epik_State_Penalty>  (89) 
0.163598

>  <r_epik_Charging_Adjusted_Penalty>  (89) 
0.165869

>  <i_epik_Tot_Q>  (89) 
1

>  <i_epik_Tot_abs_Q>  (89) 
1

>  <s_epik_Chemistry_Notes>  (89) 
This compound contains an acetal/aminal-like group ( X-CH(R)-Y where X, Y are N, S, or O) that may be acid/base labile, releasing an aldehyde.

>  <s_lp_Force_Field>  (89) 
OPLS3e

>  <r_lp_Energy>  (89) 
74.1771

>  <b_lp_Chiralities_Consistent>  (89) 
1

>  <s_lp_Variant>  (89) 
26:0-2

>  <s_i_glide_gridfile>  (89) 
pfpi4k_grid

>  <i_i_glide_lignum>  (89) 
45

>  <i_i_glide_rotatable_bonds>  (89) 
2

>  <r_i_docking_score>  (89) 
-1.78007

>  <r_i_glide_ligand_efficiency>  (89) 
-0.0659286

>  <r_i_glide_ligand_efficiency_sa>  (89) 
-0.197786

>  <r_i_glide_ligand_efficiency_ln>  (89) 
-0.414372

>  <r_i_glide_gscore>  (89) 
-1.78007

>  <r_i_glide_lipo>  (89) 
-0.0638274

>  <r_i_glide_hbond>  (89) 
-0.0742664

>  <r_i_glide_metal>  (89) 
-0

>  <r_i_glide_rewards>  (89) 
-0.807556

>  <r_i_glide_evdw>  (89) 
-12.1985

>  <r_i_glide_ecoul>  (89) 
-2.28884

>  <r_i_glide_erotb>  (89) 
0.133339

>  <r_i_glide_esite>  (89) 
-0.0145115

>  <r_i_glide_emodel>  (89) 
-16.145

>  <r_i_glide_energy>  (89) 
-14.4873

>  <r_i_glide_einternal>  (89) 
2.03052

>  <r_i_glide_intrahb_reward>  (89) 
-0

>  <i_i_glide_confnum>  (89) 
3

>  <i_i_glide_posenum>  (89) 
39

>  <r_i_glide_eff_state_penalty>  (89) 
0

>  <ligand_id>  (89) 
26

>  <original_smiles>  (89) 
CN1CC2CC(c3ccncc3)CC3CCN(C1)C2C(=Cc1cscn1)C3

>  <smiles>  (89) 
[H]C(=C1C([H])([H])C2([H])C([H])([H])C([H])(c3c([H])c([H])nc([H])c3[H])C([H])([H])C3([H])C([H])([H])N(C([H])([H])[H])C([H])([H])[N+]([H])(C([H])([H])C2([H])[H])C13[H])c1nc([H])sc1[H]

$$$$
26:2:0
     RDKit          3D

 56 60  0  0  1  0  0  0  0  0999 V2000
   -2.6556    2.6215    2.4674 C   0  0  0  0  0  0  0  0  0  0  0  0
   -1.3667    3.1158    2.9839 N   0  0  2  0  0  0  0  0  0  0  0  0
   -0.7798    2.1782    3.9804 C   0  0  0  0  0  0  0  0  0  0  0  0
    0.5024    2.7973    4.5505 C   0  0  2  0  0  0  0  0  0  0  0  0
    1.3938    1.8448    5.3503 C   0  0  0  0  0  0  0  0  0  0  0  0
    2.8748    2.3031    5.5924 C   0  0  1  0  0  0  0  0  0  0  0  0
    3.8108    1.1039    5.8353 C   0  0  0  0  0  0  0  0  0  0  0  0
    3.3109   -0.2063    6.0659 C   0  0  0  0  0  0  0  0  0  0  0  0
    4.2121   -1.2647    6.2574 C   0  0  0  0  0  0  0  0  0  0  0  0
    5.5499   -1.1111    6.2587 N   0  0  0  0  0  0  0  0  0  0  0  0
    6.0331    0.1348    6.0846 C   0  0  0  0  0  0  0  0  0  0  0  0
    5.2209    1.2603    5.8872 C   0  0  0  0  0  0  0  0  0  0  0  0
    3.4196    3.3063    4.5110 C   0  0  0  0  0  0  0  0  0  0  0  0
    2.8967    4.7840    4.4749 C   0  0  1  0  0  0  0  0  0  0  0  0
    2.0656    5.1899    3.2231 C   0  0  0  0  0  0  0  0  0  0  0  0
    0.6651    5.8182    3.4748 C   0  0  0  0  0  0  0  0  0  0  0  0
   -0.3321    5.0262    4.2138 N   0  0  0  0  0  0  0  0  0  0  0  0
   -1.4931    4.5159    3.4718 C   0  0  0  0  0  0  0  0  0  0  0  0
    0.0988    4.1119    5.2651 C   0  0  2  0  0  0  0  0  0  0  0  0
    1.0726    4.6966    6.3135 C   0  0  0  0  0  0  0  0  0  0  0  0
    0.9003    4.6152    7.6577 C   0  0  0  0  0  0  0  0  0  0  0  0
   -0.1693    4.0008    8.4688 C   0  0  0  0  0  0  0  0  0  0  0  0
   -0.0730    3.8232    9.8256 C   0  0  0  0  0  0  0  0  0  0  0  0
   -1.4855    3.0060   10.4701 S   0  0  0  0  0  0  0  0  0  0  0  0
   -2.1397    2.9425    8.8496 C   0  0  0  0  0  0  0  0  0  0  0  0
   -1.3485    3.4800    7.9251 N   0  0  0  0  0  0  0  0  0  0  0  0
    2.3521    5.3528    5.7997 C   0  0  0  0  0  0  0  0  0  0  0  0
   -3.4051    2.5239    3.2616 H   0  0  0  0  0  0  0  0  0  0  0  0
   -2.5068    1.6548    1.9795 H   0  0  0  0  0  0  0  0  0  0  0  0
   -3.0755    3.2866    1.7123 H   0  0  0  0  0  0  0  0  0  0  0  0
   -1.4898    1.9495    4.7760 H   0  0  0  0  0  0  0  0  0  0  0  0
   -0.5581    1.2322    3.4783 H   0  0  0  0  0  0  0  0  0  0  0  0
    1.0633    2.9702    3.6417 H   0  0  0  0  0  0  0  0  0  0  0  0
    0.9109    1.5622    6.2894 H   0  0  0  0  0  0  0  0  0  0  0  0
    1.4104    0.9557    4.7223 H   0  0  0  0  0  0  0  0  0  0  0  0
    2.8999    2.8172    6.5527 H   0  0  0  0  0  0  0  0  0  0  0  0
    2.2558   -0.4353    6.1030 H   0  0  0  0  0  0  0  0  0  0  0  0
    3.8388   -2.2676    6.4139 H   0  0  0  0  0  0  0  0  0  0  0  0
    7.1088    0.2351    6.1079 H   0  0  0  0  0  0  0  0  0  0  0  0
    5.7007    2.2190    5.7827 H   0  0  0  0  0  0  0  0  0  0  0  0
    4.4736    3.4518    4.6993 H   0  0  0  0  0  0  0  0  0  0  0  0
    3.3822    2.8521    3.5179 H   0  0  0  0  0  0  0  0  0  0  0  0
    3.8089    5.3642    4.3303 H   0  0  0  0  0  0  0  0  0  0  0  0
    2.6365    5.9672    2.7112 H   0  0  0  0  0  0  0  0  0  0  0  0
    2.0222    4.3924    2.4807 H   0  0  0  0  0  0  0  0  0  0  0  0
    0.7942    6.7471    4.0346 H   0  0  0  0  0  0  0  0  0  0  0  0
    0.2399    6.1240    2.5152 H   0  0  0  0  0  0  0  0  0  0  0  0
   -1.7438    5.1680    2.6284 H   0  0  0  0  0  0  0  0  0  0  0  0
   -2.3344    4.5331    4.1678 H   0  0  0  0  0  0  0  0  0  0  0  0
   -0.8283    3.9058    5.7705 H   0  0  0  0  0  0  0  0  0  0  0  0
    1.6737    5.0721    8.2473 H   0  0  0  0  0  0  0  0  0  0  0  0
    0.7380    4.1119   10.4781 H   0  0  0  0  0  0  0  0  0  0  0  0
   -3.0853    2.5055    8.5828 H   0  0  0  0  0  0  0  0  0  0  0  0
    3.1363    5.2469    6.5530 H   0  0  0  0  0  0  0  0  0  0  0  0
    2.1846    6.4282    5.7114 H   0  0  0  0  0  0  0  0  0  0  0  0
   -0.7196    3.1732    2.1970 H   0  0  0  0  0  0  0  0  0  0  0  0
  1  2  1  0
  1 28  1  0
  1 29  1  0
  1 30  1  0
  2 18  1  0
  2  3  1  0
  2 56  1  6
  3  4  1  0
  3 31  1  0
  3 32  1  0
  4 19  1  0
  4  5  1  0
  4 33  1  6
  5  6  1  0
  5 34  1  0
  5 35  1  0
  6  7  1  0
  6 13  1  0
  6 36  1  1
  7 12  1  0
  7  8  2  0
  8  9  1  0
  8 37  1  0
  9 10  2  0
  9 38  1  0
 10 11  1  0
 11 12  2  0
 11 39  1  0
 12 40  1  0
 13 14  1  0
 13 41  1  0
 13 42  1  0
 14 27  1  0
 14 15  1  0
 14 43  1  6
 15 16  1  0
 15 44  1  0
 15 45  1  0
 16 17  1  0
 16 46  1  0
 16 47  1  0
 17 18  1  0
 17 19  1  0
 18 48  1  0
 18 49  1  0
 19 20  1  0
 19 50  1  1
 20 21  2  3
 20 27  1  0
 21 22  1  0
 21 51  1  0
 22 26  1  0
 22 23  2  0
 23 24  1  0
 23 52  1  0
 24 25  1  0
 25 26  2  0
 25 53  1  0
 27 54  1  0
 27 55  1  0
M  CHG  1   2   1
M  END
>  <i_m_ct_stereo_status>  (90) 
1

>  <s_m_source_file>  (90) 
/var/tmp/pbs.5076255.sched01/tmpi0kgw23q/0rwfjwt46.sdf

>  <i_m_source_file_index>  (90) 
46

>  <i_lp_mmshare_version>  (90) 
48012

>  <i_f3d_flags>  (90) 
0

>  <s_epik_input>  (90) 
bjFbY0hdc1tjSF1jMS9bQ0hdPUNcMltDSDJdW0NASF0oW0NIMl1bQ0gyXU4oW0NASF0yW0NASF0zNClbQ0gyXU4oW0NIM10pW0NIMl0zKVtDSDJdW0NAQEhdKFtDSDJdNCljNVtjSF1bY0hdbltjSF1bY0hdNQ==

>  <s_epik_cmdline>  (90) 
J2VwaWtfcHl0aG9uJywgJy1waHQnLCAnMi4wJywgJy1waCcsICc3LjAnLCAnLXRuJywgJzgnLCAnLW1hJywgJzIwMCcsICctaW1hZScsICc8aW5maWxlLm1hZT4nLCAnLW9tYWUnLCAnPG91dGZpbGUubWFlPic=

>  <r_epik_Ionization_Penalty>  (90) 
0.0938317

>  <r_epik_Ionization_Penalty_Charging>  (90) 
0.0101286

>  <r_epik_Ionization_Penalty_Neutral>  (90) 
0.0837032

>  <r_epik_State_Penalty>  (90) 
1.11284

>  <r_epik_Charging_Adjusted_Penalty>  (90) 
1.12297

>  <i_epik_Tot_Q>  (90) 
1

>  <i_epik_Tot_abs_Q>  (90) 
1

>  <s_epik_Chemistry_Notes>  (90) 
This compound contains an acetal/aminal-like group ( X-CH(R)-Y where X, Y are N, S, or O) that may be acid/base labile, releasing an aldehyde.

>  <s_lp_Force_Field>  (90) 
OPLS3e

>  <r_lp_Energy>  (90) 
63.4791

>  <b_lp_Chiralities_Consistent>  (90) 
1

>  <s_lp_Variant>  (90) 
26:0-3

>  <s_i_glide_gridfile>  (90) 
pfpi4k_grid

>  <i_i_glide_lignum>  (90) 
46

>  <i_i_glide_rotatable_bonds>  (90) 
2

>  <r_i_docking_score>  (90) 
-2.68619

>  <r_i_glide_ligand_efficiency>  (90) 
-0.0994885

>  <r_i_glide_ligand_efficiency_sa>  (90) 
-0.298465

>  <r_i_glide_ligand_efficiency_ln>  (90) 
-0.6253

>  <r_i_glide_gscore>  (90) 
-2.68619

>  <r_i_glide_lipo>  (90) 
-0.137452

>  <r_i_glide_hbond>  (90) 
-0.186229

>  <r_i_glide_metal>  (90) 
-0

>  <r_i_glide_rewards>  (90) 
-0.807556

>  <r_i_glide_evdw>  (90) 
-19.221

>  <r_i_glide_ecoul>  (90) 
-3.63879

>  <r_i_glide_erotb>  (90) 
0.133339

>  <r_i_glide_esite>  (90) 
-0.181423

>  <r_i_glide_emodel>  (90) 
-24.2936

>  <r_i_glide_energy>  (90) 
-22.8598

>  <r_i_glide_einternal>  (90) 
6.14354

>  <r_i_glide_intrahb_reward>  (90) 
-0

>  <i_i_glide_confnum>  (90) 
2

>  <i_i_glide_posenum>  (90) 
12

>  <r_i_glide_eff_state_penalty>  (90) 
0

>  <ligand_id>  (90) 
26

>  <original_smiles>  (90) 
CN1CC2CC(c3ccncc3)CC3CCN(C1)C2C(=Cc1cscn1)C3

>  <smiles>  (90) 
[H]C(=C1C([H])([H])C2([H])C([H])([H])C([H])([H])N3C1([H])C([H])(C([H])([H])C([H])(c1c([H])c([H])nc([H])c1[H])C2([H])[H])C([H])([H])[N+]([H])(C([H])([H])[H])C3([H])[H])c1nc([H])sc1[H]

$$$$
26:2:1
     RDKit          3D

 56 60  0  0  1  0  0  0  0  0999 V2000
   -2.6371    2.6962    2.4567 C   0  0  0  0  0  0  0  0  0  0  0  0
   -1.3223    3.1391    2.9748 N   0  0  2  0  0  0  0  0  0  0  0  0
   -0.7575    2.1476    3.9313 C   0  0  0  0  0  0  0  0  0  0  0  0
    0.5496    2.6968    4.5184 C   0  0  2  0  0  0  0  0  0  0  0  0
    1.4142    1.6865    5.2947 C   0  0  0  0  0  0  0  0  0  0  0  0
    2.8878    2.1360    5.5370 C   0  0  1  0  0  0  0  0  0  0  0  0
    3.7980    0.9279    5.7143 C   0  0  0  0  0  0  0  0  0  0  0  0
    3.9825   -0.0102    4.6737 C   0  0  0  0  0  0  0  0  0  0  0  0
    4.8148   -1.1189    4.9020 C   0  0  0  0  0  0  0  0  0  0  0  0
    5.4590   -1.3380    6.0667 N   0  0  0  0  0  0  0  0  0  0  0  0
    5.2952   -0.4326    7.0530 C   0  0  0  0  0  0  0  0  0  0  0  0
    4.4803    0.7056    6.9312 C   0  0  0  0  0  0  0  0  0  0  0  0
    3.4796    3.1375    4.4988 C   0  0  0  0  0  0  0  0  0  0  0  0
    3.0078    4.6342    4.5033 C   0  0  1  0  0  0  0  0  0  0  0  0
    2.1740    5.1041    3.2713 C   0  0  0  0  0  0  0  0  0  0  0  0
    0.7931    5.7660    3.5510 C   0  0  0  0  0  0  0  0  0  0  0  0
   -0.2209    4.9712    4.2610 N   0  0  0  0  0  0  0  0  0  0  0  0
   -1.4035    4.5236    3.5109 C   0  0  0  0  0  0  0  0  0  0  0  0
    0.1918    4.0072    5.2741 C   0  0  2  0  0  0  0  0  0  0  0  0
    1.1795    4.5337    6.3398 C   0  0  0  0  0  0  0  0  0  0  0  0
    1.0072    4.4165    7.6811 C   0  0  0  0  0  0  0  0  0  0  0  0
   -0.0814    3.8070    8.4745 C   0  0  0  0  0  0  0  0  0  0  0  0
    0.0214    3.5691    9.8205 C   0  0  0  0  0  0  0  0  0  0  0  0
   -1.4100    2.7731   10.4477 S   0  0  0  0  0  0  0  0  0  0  0  0
   -2.0855    2.7995    8.8312 C   0  0  0  0  0  0  0  0  0  0  0  0
   -1.2847    3.3491    7.9227 N   0  0  0  0  0  0  0  0  0  0  0  0
    2.4745    5.1736    5.8444 C   0  0  0  0  0  0  0  0  0  0  0  0
   -3.3867    2.5761    3.2460 H   0  0  0  0  0  0  0  0  0  0  0  0
   -2.5302    1.7461    1.9339 H   0  0  0  0  0  0  0  0  0  0  0  0
   -3.0475    3.3879    1.7237 H   0  0  0  0  0  0  0  0  0  0  0  0
   -1.4721    1.9166    4.7213 H   0  0  0  0  0  0  0  0  0  0  0  0
   -0.5707    1.2174    3.3915 H   0  0  0  0  0  0  0  0  0  0  0  0
    1.1172    2.8872    3.6167 H   0  0  0  0  0  0  0  0  0  0  0  0
    0.9458    1.4044    6.2395 H   0  0  0  0  0  0  0  0  0  0  0  0
    1.4173    0.7791    4.6928 H   0  0  0  0  0  0  0  0  0  0  0  0
    2.9152    2.6291    6.5063 H   0  0  0  0  0  0  0  0  0  0  0  0
    3.4882    0.1090    3.7199 H   0  0  0  0  0  0  0  0  0  0  0  0
    4.9666   -1.8636    4.1333 H   0  0  0  0  0  0  0  0  0  0  0  0
    5.8285   -0.6350    7.9714 H   0  0  0  0  0  0  0  0  0  0  0  0
    4.3838    1.3884    7.7635 H   0  0  0  0  0  0  0  0  0  0  0  0
    4.5427    3.1764    4.7253 H   0  0  0  0  0  0  0  0  0  0  0  0
    3.4262    2.7205    3.4926 H   0  0  0  0  0  0  0  0  0  0  0  0
    3.9421    5.1843    4.3754 H   0  0  0  0  0  0  0  0  0  0  0  0
    2.7582    5.8855    2.7850 H   0  0  0  0  0  0  0  0  0  0  0  0
    2.1036    4.3380    2.4991 H   0  0  0  0  0  0  0  0  0  0  0  0
    0.9446    6.6735    4.1401 H   0  0  0  0  0  0  0  0  0  0  0  0
    0.3716    6.1175    2.6064 H   0  0  0  0  0  0  0  0  0  0  0  0
   -1.6410    5.2145    2.6980 H   0  0  0  0  0  0  0  0  0  0  0  0
   -2.2417    4.5359    4.2075 H   0  0  0  0  0  0  0  0  0  0  0  0
   -0.7446    3.8169    5.7680 H   0  0  0  0  0  0  0  0  0  0  0  0
    1.7960    4.8360    8.2840 H   0  0  0  0  0  0  0  0  0  0  0  0
    0.8472    3.8007   10.4813 H   0  0  0  0  0  0  0  0  0  0  0  0
   -3.0485    2.4058    8.5451 H   0  0  0  0  0  0  0  0  0  0  0  0
    3.2515    5.0246    6.5950 H   0  0  0  0  0  0  0  0  0  0  0  0
    2.3335    6.2540    5.7902 H   0  0  0  0  0  0  0  0  0  0  0  0
   -0.6893    3.2142    2.1815 H   0  0  0  0  0  0  0  0  0  0  0  0
  1  2  1  0
  1 28  1  0
  1 29  1  0
  1 30  1  0
  2 18  1  0
  2  3  1  0
  2 56  1  6
  3  4  1  0
  3 31  1  0
  3 32  1  0
  4 19  1  0
  4  5  1  0
  4 33  1  6
  5  6  1  0
  5 34  1  0
  5 35  1  0
  6  7  1  0
  6 13  1  0
  6 36  1  1
  7 12  1  0
  7  8  2  0
  8  9  1  0
  8 37  1  0
  9 10  2  0
  9 38  1  0
 10 11  1  0
 11 12  2  0
 11 39  1  0
 12 40  1  0
 13 14  1  0
 13 41  1  0
 13 42  1  0
 14 27  1  0
 14 15  1  0
 14 43  1  6
 15 16  1  0
 15 44  1  0
 15 45  1  0
 16 17  1  0
 16 46  1  0
 16 47  1  0
 17 18  1  0
 17 19  1  0
 18 48  1  0
 18 49  1  0
 19 20  1  0
 19 50  1  1
 20 21  2  3
 20 27  1  0
 21 22  1  0
 21 51  1  0
 22 26  1  0
 22 23  2  0
 23 24  1  0
 23 52  1  0
 24 25  1  0
 25 26  2  0
 25 53  1  0
 27 54  1  0
 27 55  1  0
M  CHG  1   2   1
M  END
>  <i_m_ct_stereo_status>  (91) 
1

>  <s_m_source_file>  (91) 
/var/tmp/pbs.5076255.sched01/tmpi0kgw23q/0rwfjwt46.sdf

>  <i_m_source_file_index>  (91) 
46

>  <i_lp_mmshare_version>  (91) 
48012

>  <i_f3d_flags>  (91) 
0

>  <s_epik_input>  (91) 
bjFbY0hdc1tjSF1jMS9bQ0hdPUNcMltDSDJdW0NASF0oW0NIMl1bQ0gyXU4oW0NASF0yW0NASF0zNClbQ0gyXU4oW0NIM10pW0NIMl0zKVtDSDJdW0NAQEhdKFtDSDJdNCljNVtjSF1bY0hdbltjSF1bY0hdNQ==

>  <s_epik_cmdline>  (91) 
J2VwaWtfcHl0aG9uJywgJy1waHQnLCAnMi4wJywgJy1waCcsICc3LjAnLCAnLXRuJywgJzgnLCAnLW1hJywgJzIwMCcsICctaW1hZScsICc8aW5maWxlLm1hZT4nLCAnLW9tYWUnLCAnPG91dGZpbGUubWFlPic=

>  <r_epik_Ionization_Penalty>  (91) 
0.0938317

>  <r_epik_Ionization_Penalty_Charging>  (91) 
0.0101286

>  <r_epik_Ionization_Penalty_Neutral>  (91) 
0.0837032

>  <r_epik_State_Penalty>  (91) 
1.11284

>  <r_epik_Charging_Adjusted_Penalty>  (91) 
1.12297

>  <i_epik_Tot_Q>  (91) 
1

>  <i_epik_Tot_abs_Q>  (91) 
1

>  <s_epik_Chemistry_Notes>  (91) 
This compound contains an acetal/aminal-like group ( X-CH(R)-Y where X, Y are N, S, or O) that may be acid/base labile, releasing an aldehyde.

>  <s_lp_Force_Field>  (91) 
OPLS3e

>  <r_lp_Energy>  (91) 
63.4791

>  <b_lp_Chiralities_Consistent>  (91) 
1

>  <s_lp_Variant>  (91) 
26:0-3

>  <s_i_glide_gridfile>  (91) 
pfpi4k_grid

>  <i_i_glide_lignum>  (91) 
46

>  <i_i_glide_rotatable_bonds>  (91) 
2

>  <r_i_docking_score>  (91) 
-2.61572

>  <r_i_glide_ligand_efficiency>  (91) 
-0.0968785

>  <r_i_glide_ligand_efficiency_sa>  (91) 
-0.290636

>  <r_i_glide_ligand_efficiency_ln>  (91) 
-0.608897

>  <r_i_glide_gscore>  (91) 
-2.61572

>  <r_i_glide_lipo>  (91) 
-0.0764749

>  <r_i_glide_hbond>  (91) 
-0.192155

>  <r_i_glide_metal>  (91) 
-0

>  <r_i_glide_rewards>  (91) 
-0.807556

>  <r_i_glide_evdw>  (91) 
-19.1958

>  <r_i_glide_ecoul>  (91) 
-3.5262

>  <r_i_glide_erotb>  (91) 
0.133339

>  <r_i_glide_esite>  (91) 
-0.184153

>  <r_i_glide_emodel>  (91) 
-27.0121

>  <r_i_glide_energy>  (91) 
-22.722

>  <r_i_glide_einternal>  (91) 
0.274408

>  <r_i_glide_intrahb_reward>  (91) 
-0

>  <i_i_glide_confnum>  (91) 
4

>  <i_i_glide_posenum>  (91) 
10

>  <r_i_glide_eff_state_penalty>  (91) 
0

>  <ligand_id>  (91) 
26

>  <original_smiles>  (91) 
CN1CC2CC(c3ccncc3)CC3CCN(C1)C2C(=Cc1cscn1)C3

>  <smiles>  (91) 
[H]C(=C1C([H])([H])C2([H])C([H])([H])C([H])([H])N3C1([H])C([H])(C([H])([H])C([H])(c1c([H])c([H])nc([H])c1[H])C2([H])[H])C([H])([H])[N+]([H])(C([H])([H])[H])C3([H])[H])c1nc([H])sc1[H]

$$$$
26:2:2
     RDKit          3D

 56 60  0  0  1  0  0  0  0  0999 V2000
   -2.2557    3.5181    2.7841 C   0  0  0  0  0  0  0  0  0  0  0  0
   -1.0835    2.8434    3.3832 N   0  0  2  0  0  0  0  0  0  0  0  0
   -1.4950    1.7270    4.2831 C   0  0  0  0  0  0  0  0  0  0  0  0
   -0.2520    1.1069    4.9307 C   0  0  2  0  0  0  0  0  0  0  0  0
   -0.4569   -0.2440    5.6473 C   0  0  0  0  0  0  0  0  0  0  0  0
    0.8495   -1.0365    5.9544 C   0  0  1  0  0  0  0  0  0  0  0  0
    0.5353   -2.5238    6.0782 C   0  0  0  0  0  0  0  0  0  0  0  0
    0.2242   -3.0887    7.3349 C   0  0  0  0  0  0  0  0  0  0  0  0
   -0.0610   -4.4692    7.4041 C   0  0  0  0  0  0  0  0  0  0  0  0
   -0.0673   -5.2790    6.3286 N   0  0  0  0  0  0  0  0  0  0  0  0
    0.2399   -4.7397    5.1339 C   0  0  0  0  0  0  0  0  0  0  0  0
    0.5314   -3.3728    4.9502 C   0  0  0  0  0  0  0  0  0  0  0  0
    2.0626   -0.7697    5.0025 C   0  0  0  0  0  0  0  0  0  0  0  0
    2.8498    0.5846    5.1039 C   0  0  1  0  0  0  0  0  0  0  0  0
    2.7143    1.5578    3.8878 C   0  0  0  0  0  0  0  0  0  0  0  0
    2.2580    3.0172    4.1767 C   0  0  0  0  0  0  0  0  0  0  0  0
    0.9402    3.1972    4.7894 N   0  0  0  0  0  0  0  0  0  0  0  0
   -0.1405    3.8226    4.0042 C   0  0  0  0  0  0  0  0  0  0  0  0
    0.4428    2.2311    5.7538 C   0  0  2  0  0  0  0  0  0  0  0  0
    1.4133    1.8175    6.8696 C   0  0  0  0  0  0  0  0  0  0  0  0
    1.0997    1.8517    8.1874 C   0  0  0  0  0  0  0  0  0  0  0  0
   -0.1467    2.2235    8.9086 C   0  0  0  0  0  0  0  0  0  0  0  0
   -1.3963    2.5437    8.4303 C   0  0  0  0  0  0  0  0  0  0  0  0
   -2.5155    2.9459    9.7085 S   0  0  0  0  0  0  0  0  0  0  0  0
   -1.2388    2.5910   10.8692 C   0  0  0  0  0  0  0  0  0  0  0  0
   -0.0761    2.2396   10.3080 N   0  0  0  0  0  0  0  0  0  0  0  0
    2.7890    1.2961    6.4667 C   0  0  0  0  0  0  0  0  0  0  0  0
   -2.8785    3.9872    3.5457 H   0  0  0  0  0  0  0  0  0  0  0  0
   -2.8793    2.8104    2.2359 H   0  0  0  0  0  0  0  0  0  0  0  0
   -1.9361    4.2922    2.0869 H   0  0  0  0  0  0  0  0  0  0  0  0
   -2.1955    2.0766    5.0439 H   0  0  0  0  0  0  0  0  0  0  0  0
   -2.0183    0.9824    3.6882 H   0  0  0  0  0  0  0  0  0  0  0  0
    0.3239    0.8301    4.0523 H   0  0  0  0  0  0  0  0  0  0  0  0
   -1.0416   -0.1164    6.5599 H   0  0  0  0  0  0  0  0  0  0  0  0
   -1.0725   -0.8579    4.9895 H   0  0  0  0  0  0  0  0  0  0  0  0
    1.1730   -0.7660    6.9578 H   0  0  0  0  0  0  0  0  0  0  0  0
    0.2265   -2.4944    8.2348 H   0  0  0  0  0  0  0  0  0  0  0  0
   -0.2943   -4.9366    8.3494 H   0  0  0  0  0  0  0  0  0  0  0  0
    0.2319   -5.4139    4.2902 H   0  0  0  0  0  0  0  0  0  0  0  0
    0.7536   -3.0045    3.9610 H   0  0  0  0  0  0  0  0  0  0  0  0
    2.7945   -1.5412    5.2414 H   0  0  0  0  0  0  0  0  0  0  0  0
    1.7926   -0.9708    3.9646 H   0  0  0  0  0  0  0  0  0  0  0  0
    3.8928    0.2654    5.0340 H   0  0  0  0  0  0  0  0  0  0  0  0
    3.7156    1.6647    3.4682 H   0  0  0  0  0  0  0  0  0  0  0  0
    2.1443    1.1162    3.0677 H   0  0  0  0  0  0  0  0  0  0  0  0
    2.9787    3.4952    4.8453 H   0  0  0  0  0  0  0  0  0  0  0  0
    2.2964    3.5961    3.2515 H   0  0  0  0  0  0  0  0  0  0  0  0
    0.2601    4.5000    3.2537 H   0  0  0  0  0  0  0  0  0  0  0  0
   -0.7142    4.4355    4.6986 H   0  0  0  0  0  0  0  0  0  0  0  0
   -0.2962    2.8388    6.2433 H   0  0  0  0  0  0  0  0  0  0  0  0
    1.8969    1.5266    8.8394 H   0  0  0  0  0  0  0  0  0  0  0  0
   -1.7867    2.5862    7.4262 H   0  0  0  0  0  0  0  0  0  0  0  0
   -1.3656    2.6392   11.9471 H   0  0  0  0  0  0  0  0  0  0  0  0
    3.1484    0.6003    7.2247 H   0  0  0  0  0  0  0  0  0  0  0  0
    3.4963    2.1247    6.4885 H   0  0  0  0  0  0  0  0  0  0  0  0
   -0.5694    2.4403    2.6105 H   0  0  0  0  0  0  0  0  0  0  0  0
  1  2  1  0
  1 28  1  0
  1 29  1  0
  1 30  1  0
  2 18  1  0
  2  3  1  0
  2 56  1  6
  3  4  1  0
  3 31  1  0
  3 32  1  0
  4 19  1  0
  4  5  1  0
  4 33  1  6
  5  6  1  0
  5 34  1  0
  5 35  1  0
  6  7  1  0
  6 13  1  0
  6 36  1  1
  7 12  1  0
  7  8  2  0
  8  9  1  0
  8 37  1  0
  9 10  2  0
  9 38  1  0
 10 11  1  0
 11 12  2  0
 11 39  1  0
 12 40  1  0
 13 14  1  0
 13 41  1  0
 13 42  1  0
 14 27  1  0
 14 15  1  0
 14 43  1  6
 15 16  1  0
 15 44  1  0
 15 45  1  0
 16 17  1  0
 16 46  1  0
 16 47  1  0
 17 18  1  0
 17 19  1  0
 18 48  1  0
 18 49  1  0
 19 20  1  0
 19 50  1  1
 20 21  2  3
 20 27  1  0
 21 22  1  0
 21 51  1  0
 22 26  1  0
 22 23  2  0
 23 24  1  0
 23 52  1  0
 24 25  1  0
 25 26  2  0
 25 53  1  0
 27 54  1  0
 27 55  1  0
M  CHG  1   2   1
M  END
>  <i_m_ct_stereo_status>  (92) 
1

>  <s_m_source_file>  (92) 
/var/tmp/pbs.5076255.sched01/tmpi0kgw23q/0rwfjwt46.sdf

>  <i_m_source_file_index>  (92) 
46

>  <i_lp_mmshare_version>  (92) 
48012

>  <i_f3d_flags>  (92) 
0

>  <s_epik_input>  (92) 
bjFbY0hdc1tjSF1jMS9bQ0hdPUNcMltDSDJdW0NASF0oW0NIMl1bQ0gyXU4oW0NASF0yW0NASF0zNClbQ0gyXU4oW0NIM10pW0NIMl0zKVtDSDJdW0NAQEhdKFtDSDJdNCljNVtjSF1bY0hdbltjSF1bY0hdNQ==

>  <s_epik_cmdline>  (92) 
J2VwaWtfcHl0aG9uJywgJy1waHQnLCAnMi4wJywgJy1waCcsICc3LjAnLCAnLXRuJywgJzgnLCAnLW1hJywgJzIwMCcsICctaW1hZScsICc8aW5maWxlLm1hZT4nLCAnLW9tYWUnLCAnPG91dGZpbGUubWFlPic=

>  <r_epik_Ionization_Penalty>  (92) 
0.0938317

>  <r_epik_Ionization_Penalty_Charging>  (92) 
0.0101286

>  <r_epik_Ionization_Penalty_Neutral>  (92) 
0.0837032

>  <r_epik_State_Penalty>  (92) 
1.11284

>  <r_epik_Charging_Adjusted_Penalty>  (92) 
1.12297

>  <i_epik_Tot_Q>  (92) 
1

>  <i_epik_Tot_abs_Q>  (92) 
1

>  <s_epik_Chemistry_Notes>  (92) 
This compound contains an acetal/aminal-like group ( X-CH(R)-Y where X, Y are N, S, or O) that may be acid/base labile, releasing an aldehyde.

>  <s_lp_Force_Field>  (92) 
OPLS3e

>  <r_lp_Energy>  (92) 
63.4791

>  <b_lp_Chiralities_Consistent>  (92) 
1

>  <s_lp_Variant>  (92) 
26:0-3

>  <s_i_glide_gridfile>  (92) 
pfpi4k_grid

>  <i_i_glide_lignum>  (92) 
46

>  <i_i_glide_rotatable_bonds>  (92) 
2

>  <r_i_docking_score>  (92) 
-2.3333

>  <r_i_glide_ligand_efficiency>  (92) 
-0.0864187

>  <r_i_glide_ligand_efficiency_sa>  (92) 
-0.259256

>  <r_i_glide_ligand_efficiency_ln>  (92) 
-0.543155

>  <r_i_glide_gscore>  (92) 
-2.3333

>  <r_i_glide_lipo>  (92) 
-0.00210822

>  <r_i_glide_hbond>  (92) 
0

>  <r_i_glide_metal>  (92) 
-0

>  <r_i_glide_rewards>  (92) 
-0.807556

>  <r_i_glide_evdw>  (92) 
-19.3359

>  <r_i_glide_ecoul>  (92) 
-3.70731

>  <r_i_glide_erotb>  (92) 
0.133339

>  <r_i_glide_esite>  (92) 
-0.134087

>  <r_i_glide_emodel>  (92) 
-26.7059

>  <r_i_glide_energy>  (92) 
-23.0432

>  <r_i_glide_einternal>  (92) 
0.164701

>  <r_i_glide_intrahb_reward>  (92) 
-0

>  <i_i_glide_confnum>  (92) 
4

>  <i_i_glide_posenum>  (92) 
36

>  <r_i_glide_eff_state_penalty>  (92) 
0

>  <ligand_id>  (92) 
26

>  <original_smiles>  (92) 
CN1CC2CC(c3ccncc3)CC3CCN(C1)C2C(=Cc1cscn1)C3

>  <smiles>  (92) 
[H]C(=C1C([H])([H])C2([H])C([H])([H])C([H])([H])N3C1([H])C([H])(C([H])([H])C([H])(c1c([H])c([H])nc([H])c1[H])C2([H])[H])C([H])([H])[N+]([H])(C([H])([H])[H])C3([H])[H])c1nc([H])sc1[H]

$$$$
26:3:0
     RDKit          3D

 56 60  0  0  1  0  0  0  0  0999 V2000
    0.4646  -10.7311    2.7721 C   0  0  0  0  0  0  0  0  0  0  0  0
    1.3666   -9.5958    3.0777 N   0  0  2  0  0  0  0  0  0  0  0  0
    0.6930   -8.2852    2.8444 C   0  0  0  0  0  0  0  0  0  0  0  0
    1.6815   -7.1507    3.1462 C   0  0  2  0  0  0  0  0  0  0  0  0
    1.0869   -5.7337    3.2547 C   0  0  0  0  0  0  0  0  0  0  0  0
    1.9952   -4.6908    3.9735 C   0  0  1  0  0  0  0  0  0  0  0  0
    1.1400   -3.5805    4.5707 C   0  0  0  0  0  0  0  0  0  0  0  0
    1.0244   -2.3277    3.9280 C   0  0  0  0  0  0  0  0  0  0  0  0
    0.2129   -1.3370    4.5108 C   0  0  0  0  0  0  0  0  0  0  0  0
   -0.4783   -1.5231    5.6564 N   0  0  0  0  0  0  0  0  0  0  0  0
   -0.3540   -2.7172    6.2708 C   0  0  0  0  0  0  0  0  0  0  0  0
    0.4261   -3.7731    5.7718 C   0  0  0  0  0  0  0  0  0  0  0  0
    3.0115   -5.2618    5.0171 C   0  0  0  0  0  0  0  0  0  0  0  0
    4.2698   -6.0441    4.5001 C   0  0  1  0  0  0  0  0  0  0  0  0
    4.3395   -7.5694    4.8127 C   0  0  0  0  0  0  0  0  0  0  0  0
    4.5565   -8.5308    3.6067 C   0  0  0  0  0  0  0  0  0  0  0  0
    3.5467   -8.5491    2.5366 N   0  0  0  0  0  0  0  0  0  0  0  0
    2.6875   -9.7351    2.3945 C   0  0  0  0  0  0  0  0  0  0  0  0
    2.8697   -7.3118    2.1611 C   0  0  2  0  0  0  0  0  0  0  0  0
    3.7975   -6.1047    1.9334 C   0  0  0  0  0  0  0  0  0  0  0  0
    3.7565   -5.4831    0.7256 C   0  0  0  0  0  0  0  0  0  0  0  0
    4.5366   -4.3351    0.2117 C   0  0  0  0  0  0  0  0  0  0  0  0
    4.4298   -3.8650   -1.0726 C   0  0  0  0  0  0  0  0  0  0  0  0
    5.4993   -2.5071   -1.3605 S   0  0  0  0  0  0  0  0  0  0  0  0
    6.0493   -2.6499    0.3019 C   0  0  0  0  0  0  0  0  0  0  0  0
    5.4792   -3.6454    0.9798 N   0  0  0  0  0  0  0  0  0  0  0  0
    4.7231   -5.6814    3.0800 C   0  0  0  0  0  0  0  0  0  0  0  0
    0.1949  -10.7465    1.7160 H   0  0  0  0  0  0  0  0  0  0  0  0
   -0.4563  -10.6502    3.3536 H   0  0  0  0  0  0  0  0  0  0  0  0
    0.9350  -11.6855    3.0163 H   0  0  0  0  0  0  0  0  0  0  0  0
    0.3142   -8.2242    1.8219 H   0  0  0  0  0  0  0  0  0  0  0  0
   -0.1681   -8.2195    3.5141 H   0  0  0  0  0  0  0  0  0  0  0  0
    1.9619   -7.3861    4.1628 H   0  0  0  0  0  0  0  0  0  0  0  0
    0.8010   -5.3634    2.2719 H   0  0  0  0  0  0  0  0  0  0  0  0
    0.1609   -5.8247    3.8222 H   0  0  0  0  0  0  0  0  0  0  0  0
    2.5771   -4.1840    3.2053 H   0  0  0  0  0  0  0  0  0  0  0  0
    1.5449   -2.1184    3.0032 H   0  0  0  0  0  0  0  0  0  0  0  0
    0.1060   -0.3681    4.0423 H   0  0  0  0  0  0  0  0  0  0  0  0
   -0.9084   -2.8320    7.1903 H   0  0  0  0  0  0  0  0  0  0  0  0
    0.4758   -4.7088    6.3093 H   0  0  0  0  0  0  0  0  0  0  0  0
    3.4053   -4.3948    5.5475 H   0  0  0  0  0  0  0  0  0  0  0  0
    2.4982   -5.8327    5.7904 H   0  0  0  0  0  0  0  0  0  0  0  0
    5.0716   -5.6402    5.1235 H   0  0  0  0  0  0  0  0  0  0  0  0
    5.2161   -7.7147    5.4484 H   0  0  0  0  0  0  0  0  0  0  0  0
    3.5212   -7.8932    5.4546 H   0  0  0  0  0  0  0  0  0  0  0  0
    5.5084   -8.2868    3.1315 H   0  0  0  0  0  0  0  0  0  0  0  0
    4.6886   -9.5452    3.9871 H   0  0  0  0  0  0  0  0  0  0  0  0
    3.1977  -10.6357    2.7418 H   0  0  0  0  0  0  0  0  0  0  0  0
    2.5006   -9.8774    1.3306 H   0  0  0  0  0  0  0  0  0  0  0  0
    2.4304   -7.5173    1.1856 H   0  0  0  0  0  0  0  0  0  0  0  0
    3.0521   -5.8786    0.0034 H   0  0  0  0  0  0  0  0  0  0  0  0
    3.7974   -4.2413   -1.8665 H   0  0  0  0  0  0  0  0  0  0  0  0
    6.7878   -2.0190    0.7789 H   0  0  0  0  0  0  0  0  0  0  0  0
    4.8283   -4.6029    3.1042 H   0  0  0  0  0  0  0  0  0  0  0  0
    5.7230   -6.0703    2.8869 H   0  0  0  0  0  0  0  0  0  0  0  0
    1.5598   -9.6536    4.0709 H   0  0  0  0  0  0  0  0  0  0  0  0
  1  2  1  0
  1 28  1  0
  1 29  1  0
  1 30  1  0
  2 18  1  0
  2  3  1  0
  2 56  1  1
  3  4  1  0
  3 31  1  0
  3 32  1  0
  4 19  1  0
  4  5  1  0
  4 33  1  1
  5  6  1  0
  5 34  1  0
  5 35  1  0
  6  7  1  0
  6 13  1  0
  6 36  1  6
  7 12  1  0
  7  8  2  0
  8  9  1  0
  8 37  1  0
  9 10  2  0
  9 38  1  0
 10 11  1  0
 11 12  2  0
 11 39  1  0
 12 40  1  0
 13 14  1  0
 13 41  1  0
 13 42  1  0
 14 27  1  0
 14 15  1  0
 14 43  1  1
 15 16  1  0
 15 44  1  0
 15 45  1  0
 16 17  1  0
 16 46  1  0
 16 47  1  0
 17 18  1  0
 17 19  1  0
 18 48  1  0
 18 49  1  0
 19 20  1  0
 19 50  1  6
 20 21  2  3
 20 27  1  0
 21 22  1  0
 21 51  1  0
 22 26  1  0
 22 23  2  0
 23 24  1  0
 23 52  1  0
 24 25  1  0
 25 26  2  0
 25 53  1  0
 27 54  1  0
 27 55  1  0
M  CHG  1   2   1
M  END
>  <i_m_ct_stereo_status>  (93) 
1

>  <s_m_source_file>  (93) 
/var/tmp/pbs.5076255.sched01/tmpi0kgw23q/0rwfjwt46.sdf

>  <i_m_source_file_index>  (93) 
47

>  <i_lp_mmshare_version>  (93) 
48012

>  <i_f3d_flags>  (93) 
0

>  <s_epik_input>  (93) 
bjFbY0hdc1tjSF1jMS9bQ0hdPUNcMltDSDJdW0NASF0oW0NIMl1bQ0gyXU4oW0NASF0yW0NASF0zNClbQ0gyXU4oW0NIM10pW0NIMl0zKVtDSDJdW0NAQEhdKFtDSDJdNCljNVtjSF1bY0hdbltjSF1bY0hdNQ==

>  <s_epik_cmdline>  (93) 
J2VwaWtfcHl0aG9uJywgJy1waHQnLCAnMi4wJywgJy1waCcsICc3LjAnLCAnLXRuJywgJzgnLCAnLW1hJywgJzIwMCcsICctaW1hZScsICc8aW5maWxlLm1hZT4nLCAnLW9tYWUnLCAnPG91dGZpbGUubWFlPic=

>  <r_epik_Ionization_Penalty>  (93) 
0.0938317

>  <r_epik_Ionization_Penalty_Charging>  (93) 
0.0101286

>  <r_epik_Ionization_Penalty_Neutral>  (93) 
0.0837032

>  <r_epik_State_Penalty>  (93) 
1.11284

>  <r_epik_Charging_Adjusted_Penalty>  (93) 
1.12297

>  <i_epik_Tot_Q>  (93) 
1

>  <i_epik_Tot_abs_Q>  (93) 
1

>  <s_epik_Chemistry_Notes>  (93) 
This compound contains an acetal/aminal-like group ( X-CH(R)-Y where X, Y are N, S, or O) that may be acid/base labile, releasing an aldehyde.

>  <s_lp_Force_Field>  (93) 
OPLS3e

>  <r_lp_Energy>  (93) 
64.253

>  <b_lp_Chiralities_Consistent>  (93) 
1

>  <s_lp_Variant>  (93) 
26:0-4

>  <s_i_glide_gridfile>  (93) 
pfpi4k_grid

>  <i_i_glide_lignum>  (93) 
47

>  <i_i_glide_rotatable_bonds>  (93) 
2

>  <r_i_docking_score>  (93) 
-2.79132

>  <r_i_glide_ligand_efficiency>  (93) 
-0.103382

>  <r_i_glide_ligand_efficiency_sa>  (93) 
-0.310147

>  <r_i_glide_ligand_efficiency_ln>  (93) 
-0.649774

>  <r_i_glide_gscore>  (93) 
-2.79132

>  <r_i_glide_lipo>  (93) 
-0.264258

>  <r_i_glide_hbond>  (93) 
0

>  <r_i_glide_metal>  (93) 
-0

>  <r_i_glide_rewards>  (93) 
-0.807556

>  <r_i_glide_evdw>  (93) 
-23.0646

>  <r_i_glide_ecoul>  (93) 
-4.5737

>  <r_i_glide_erotb>  (93) 
0.133339

>  <r_i_glide_esite>  (93) 
-0.0135677

>  <r_i_glide_emodel>  (93) 
-34.9846

>  <r_i_glide_energy>  (93) 
-27.6383

>  <r_i_glide_einternal>  (93) 
0.0166999

>  <r_i_glide_intrahb_reward>  (93) 
-0

>  <i_i_glide_confnum>  (93) 
3

>  <i_i_glide_posenum>  (93) 
36

>  <r_i_glide_eff_state_penalty>  (93) 
0

>  <ligand_id>  (93) 
26

>  <original_smiles>  (93) 
CN1CC2CC(c3ccncc3)CC3CCN(C1)C2C(=Cc1cscn1)C3

>  <smiles>  (93) 
[H]C(=C1C([H])([H])C2([H])C([H])([H])C([H])([H])N3C1([H])C([H])(C([H])([H])C([H])(c1c([H])c([H])nc([H])c1[H])C2([H])[H])C([H])([H])[N+]([H])(C([H])([H])[H])C3([H])[H])c1nc([H])sc1[H]

$$$$
26:3:1
     RDKit          3D

 56 60  0  0  1  0  0  0  0  0999 V2000
    0.6420  -11.0311    2.8108 C   0  0  0  0  0  0  0  0  0  0  0  0
    1.4466   -9.8046    3.0301 N   0  0  2  0  0  0  0  0  0  0  0  0
    0.5943   -8.5791    3.0034 C   0  0  0  0  0  0  0  0  0  0  0  0
    1.4817   -7.3418    3.2086 C   0  0  2  0  0  0  0  0  0  0  0  0
    0.7516   -6.0210    3.5097 C   0  0  0  0  0  0  0  0  0  0  0  0
    1.6461   -4.9066    4.1354 C   0  0  1  0  0  0  0  0  0  0  0  0
    0.7970   -3.9423    4.9521 C   0  0  0  0  0  0  0  0  0  0  0  0
    0.1974   -4.3497    6.1631 C   0  0  0  0  0  0  0  0  0  0  0  0
   -0.5820   -3.4253    6.8750 C   0  0  0  0  0  0  0  0  0  0  0  0
   -0.7999   -2.1594    6.4606 N   0  0  0  0  0  0  0  0  0  0  0  0
   -0.2161   -1.7679    5.3068 C   0  0  0  0  0  0  0  0  0  0  0  0
    0.5797   -2.6160    4.5181 C   0  0  0  0  0  0  0  0  0  0  0  0
    2.8905   -5.3897    4.9498 C   0  0  0  0  0  0  0  0  0  0  0  0
    4.1204   -5.9765    4.1729 C   0  0  1  0  0  0  0  0  0  0  0  0
    4.4241   -7.4935    4.3630 C   0  0  0  0  0  0  0  0  0  0  0  0
    4.5356   -8.3622    3.0756 C   0  0  0  0  0  0  0  0  0  0  0  0
    3.3604   -8.4594    2.1951 N   0  0  0  0  0  0  0  0  0  0  0  0
    2.6345   -9.7380    2.1214 C   0  0  0  0  0  0  0  0  0  0  0  0
    2.4847   -7.3049    2.0271 C   0  0  2  0  0  0  0  0  0  0  0  0
    3.2070   -5.9800    1.7260 C   0  0  0  0  0  0  0  0  0  0  0  0
    2.8706   -5.3071    0.5931 C   0  0  0  0  0  0  0  0  0  0  0  0
    3.4162   -4.0491    0.0285 C   0  0  0  0  0  0  0  0  0  0  0  0
    2.9236   -3.4540   -1.1068 C   0  0  0  0  0  0  0  0  0  0  0  0
    3.8179   -2.0044   -1.5172 S   0  0  0  0  0  0  0  0  0  0  0  0
    4.7995   -2.2589   -0.0847 C   0  0  0  0  0  0  0  0  0  0  0  0
    4.4940   -3.3629    0.5969 N   0  0  0  0  0  0  0  0  0  0  0  0
    4.2663   -5.4918    2.7239 C   0  0  0  0  0  0  0  0  0  0  0  0
    0.1911  -11.0308    1.8203 H   0  0  0  0  0  0  0  0  0  0  0  0
   -0.1585  -11.0876    3.5501 H   0  0  0  0  0  0  0  0  0  0  0  0
    1.2604  -11.9247    2.8985 H   0  0  0  0  0  0  0  0  0  0  0  0
    0.0359   -8.5192    2.0689 H   0  0  0  0  0  0  0  0  0  0  0  0
   -0.1354   -8.6571    3.8150 H   0  0  0  0  0  0  0  0  0  0  0  0
    1.9634   -7.5883    4.1427 H   0  0  0  0  0  0  0  0  0  0  0  0
    0.2540   -5.6433    2.6188 H   0  0  0  0  0  0  0  0  0  0  0  0
   -0.0446   -6.2617    4.2139 H   0  0  0  0  0  0  0  0  0  0  0  0
    2.0160   -4.2933    3.3147 H   0  0  0  0  0  0  0  0  0  0  0  0
    0.3331   -5.3521    6.5447 H   0  0  0  0  0  0  0  0  0  0  0  0
   -1.0536   -3.7025    7.8069 H   0  0  0  0  0  0  0  0  0  0  0  0
   -0.4017   -0.7471    5.0042 H   0  0  0  0  0  0  0  0  0  0  0  0
    1.0119   -2.2447    3.5991 H   0  0  0  0  0  0  0  0  0  0  0  0
    3.2653   -4.5051    5.4647 H   0  0  0  0  0  0  0  0  0  0  0  0
    2.5908   -6.0544    5.7600 H   0  0  0  0  0  0  0  0  0  0  0  0
    4.9672   -5.5020    4.6772 H   0  0  0  0  0  0  0  0  0  0  0  0
    5.4105   -7.5545    4.8289 H   0  0  0  0  0  0  0  0  0  0  0  0
    3.7776   -7.9492    5.1120 H   0  0  0  0  0  0  0  0  0  0  0  0
    5.3519   -7.9775    2.4633 H   0  0  0  0  0  0  0  0  0  0  0  0
    4.8516   -9.3679    3.3581 H   0  0  0  0  0  0  0  0  0  0  0  0
    3.3010  -10.5843    2.3113 H   0  0  0  0  0  0  0  0  0  0  0  0
    2.2805   -9.8475    1.0969 H   0  0  0  0  0  0  0  0  0  0  0  0
    1.9072   -7.5196    1.1281 H   0  0  0  0  0  0  0  0  0  0  0  0
    2.1090   -5.7602   -0.0273 H   0  0  0  0  0  0  0  0  0  0  0  0
    2.1170   -3.7927   -1.7395 H   0  0  0  0  0  0  0  0  0  0  0  0
    5.5997   -1.6131    0.2453 H   0  0  0  0  0  0  0  0  0  0  0  0
    4.2450   -4.4084    2.7902 H   0  0  0  0  0  0  0  0  0  0  0  0
    5.2536   -5.7414    2.3377 H   0  0  0  0  0  0  0  0  0  0  0  0
    1.8191   -9.8820    3.9685 H   0  0  0  0  0  0  0  0  0  0  0  0
  1  2  1  0
  1 28  1  0
  1 29  1  0
  1 30  1  0
  2 18  1  0
  2  3  1  0
  2 56  1  1
  3  4  1  0
  3 31  1  0
  3 32  1  0
  4 19  1  0
  4  5  1  0
  4 33  1  1
  5  6  1  0
  5 34  1  0
  5 35  1  0
  6  7  1  0
  6 13  1  0
  6 36  1  6
  7 12  1  0
  7  8  2  0
  8  9  1  0
  8 37  1  0
  9 10  2  0
  9 38  1  0
 10 11  1  0
 11 12  2  0
 11 39  1  0
 12 40  1  0
 13 14  1  0
 13 41  1  0
 13 42  1  0
 14 27  1  0
 14 15  1  0
 14 43  1  1
 15 16  1  0
 15 44  1  0
 15 45  1  0
 16 17  1  0
 16 46  1  0
 16 47  1  0
 17 18  1  0
 17 19  1  0
 18 48  1  0
 18 49  1  0
 19 20  1  0
 19 50  1  6
 20 21  2  3
 20 27  1  0
 21 22  1  0
 21 51  1  0
 22 26  1  0
 22 23  2  0
 23 24  1  0
 23 52  1  0
 24 25  1  0
 25 26  2  0
 25 53  1  0
 27 54  1  0
 27 55  1  0
M  CHG  1   2   1
M  END
>  <i_m_ct_stereo_status>  (94) 
1

>  <s_m_source_file>  (94) 
/var/tmp/pbs.5076255.sched01/tmpi0kgw23q/0rwfjwt46.sdf

>  <i_m_source_file_index>  (94) 
47

>  <i_lp_mmshare_version>  (94) 
48012

>  <i_f3d_flags>  (94) 
0

>  <s_epik_input>  (94) 
bjFbY0hdc1tjSF1jMS9bQ0hdPUNcMltDSDJdW0NASF0oW0NIMl1bQ0gyXU4oW0NASF0yW0NASF0zNClbQ0gyXU4oW0NIM10pW0NIMl0zKVtDSDJdW0NAQEhdKFtDSDJdNCljNVtjSF1bY0hdbltjSF1bY0hdNQ==

>  <s_epik_cmdline>  (94) 
J2VwaWtfcHl0aG9uJywgJy1waHQnLCAnMi4wJywgJy1waCcsICc3LjAnLCAnLXRuJywgJzgnLCAnLW1hJywgJzIwMCcsICctaW1hZScsICc8aW5maWxlLm1hZT4nLCAnLW9tYWUnLCAnPG91dGZpbGUubWFlPic=

>  <r_epik_Ionization_Penalty>  (94) 
0.0938317

>  <r_epik_Ionization_Penalty_Charging>  (94) 
0.0101286

>  <r_epik_Ionization_Penalty_Neutral>  (94) 
0.0837032

>  <r_epik_State_Penalty>  (94) 
1.11284

>  <r_epik_Charging_Adjusted_Penalty>  (94) 
1.12297

>  <i_epik_Tot_Q>  (94) 
1

>  <i_epik_Tot_abs_Q>  (94) 
1

>  <s_epik_Chemistry_Notes>  (94) 
This compound contains an acetal/aminal-like group ( X-CH(R)-Y where X, Y are N, S, or O) that may be acid/base labile, releasing an aldehyde.

>  <s_lp_Force_Field>  (94) 
OPLS3e

>  <r_lp_Energy>  (94) 
64.253

>  <b_lp_Chiralities_Consistent>  (94) 
1

>  <s_lp_Variant>  (94) 
26:0-4

>  <s_i_glide_gridfile>  (94) 
pfpi4k_grid

>  <i_i_glide_lignum>  (94) 
47

>  <i_i_glide_rotatable_bonds>  (94) 
2

>  <r_i_docking_score>  (94) 
-2.78628

>  <r_i_glide_ligand_efficiency>  (94) 
-0.103196

>  <r_i_glide_ligand_efficiency_sa>  (94) 
-0.309587

>  <r_i_glide_ligand_efficiency_ln>  (94) 
-0.6486

>  <r_i_glide_gscore>  (94) 
-2.78628

>  <r_i_glide_lipo>  (94) 
-0.198402

>  <r_i_glide_hbond>  (94) 
0

>  <r_i_glide_metal>  (94) 
-0

>  <r_i_glide_rewards>  (94) 
-0.807556

>  <r_i_glide_evdw>  (94) 
-24.1658

>  <r_i_glide_ecoul>  (94) 
-4.60038

>  <r_i_glide_erotb>  (94) 
0.133339

>  <r_i_glide_esite>  (94) 
-0.0153107

>  <r_i_glide_emodel>  (94) 
-36.0972

>  <r_i_glide_energy>  (94) 
-28.7662

>  <r_i_glide_einternal>  (94) 
0.0444103

>  <r_i_glide_intrahb_reward>  (94) 
-0

>  <i_i_glide_confnum>  (94) 
2

>  <i_i_glide_posenum>  (94) 
27

>  <r_i_glide_eff_state_penalty>  (94) 
0

>  <ligand_id>  (94) 
26

>  <original_smiles>  (94) 
CN1CC2CC(c3ccncc3)CC3CCN(C1)C2C(=Cc1cscn1)C3

>  <smiles>  (94) 
[H]C(=C1C([H])([H])C2([H])C([H])([H])C([H])([H])N3C1([H])C([H])(C([H])([H])C([H])(c1c([H])c([H])nc([H])c1[H])C2([H])[H])C([H])([H])[N+]([H])(C([H])([H])[H])C3([H])[H])c1nc([H])sc1[H]

$$$$
26:3:2
     RDKit          3D

 56 60  0  0  1  0  0  0  0  0999 V2000
    0.7072  -11.3866    3.0846 C   0  0  0  0  0  0  0  0  0  0  0  0
    1.5155  -10.1622    3.2690 N   0  0  2  0  0  0  0  0  0  0  0  0
    0.6563   -8.9430    3.3004 C   0  0  0  0  0  0  0  0  0  0  0  0
    1.5509   -7.7051    3.4541 C   0  0  2  0  0  0  0  0  0  0  0  0
    0.8355   -6.3868    3.8035 C   0  0  0  0  0  0  0  0  0  0  0  0
    1.7600   -5.2725    4.3790 C   0  0  1  0  0  0  0  0  0  0  0  0
    0.9469   -4.3144    5.2429 C   0  0  0  0  0  0  0  0  0  0  0  0
    0.6270   -3.0189    4.7837 C   0  0  0  0  0  0  0  0  0  0  0  0
   -0.1322   -2.1738    5.6119 C   0  0  0  0  0  0  0  0  0  0  0  0
   -0.5842   -2.5419    6.8308 N   0  0  0  0  0  0  0  0  0  0  0  0
   -0.2707   -3.7792    7.2679 C   0  0  0  0  0  0  0  0  0  0  0  0
    0.4817   -4.6989    6.5175 C   0  0  0  0  0  0  0  0  0  0  0  0
    3.0544   -5.7524    5.1169 C   0  0  0  0  0  0  0  0  0  0  0  0
    4.2428   -6.3319    4.2707 C   0  0  1  0  0  0  0  0  0  0  0  0
    4.5606   -7.8499    4.4316 C   0  0  0  0  0  0  0  0  0  0  0  0
    4.5964   -8.7159    3.1363 C   0  0  0  0  0  0  0  0  0  0  0  0
    3.3730   -8.8156    2.3281 N   0  0  0  0  0  0  0  0  0  0  0  0
    2.6477  -10.0943    2.2940 C   0  0  0  0  0  0  0  0  0  0  0  0
    2.4877   -7.6634    2.2181 C   0  0  2  0  0  0  0  0  0  0  0  0
    3.1951   -6.3402    1.8917 C   0  0  0  0  0  0  0  0  0  0  0  0
    2.7880   -5.6558    0.7981 C   0  0  0  0  0  0  0  0  0  0  0  0
    3.2840   -4.3951    0.2206 C   0  0  0  0  0  0  0  0  0  0  0  0
    4.4434   -3.7083    0.5097 C   0  0  0  0  0  0  0  0  0  0  0  0
    4.5640   -2.2362   -0.4198 S   0  0  0  0  0  0  0  0  0  0  0  0
    3.0418   -2.6508   -1.1890 C   0  0  0  0  0  0  0  0  0  0  0  0
    2.4772   -3.7719   -0.7292 N   0  0  0  0  0  0  0  0  0  0  0  0
    4.3001   -5.8434    2.8204 C   0  0  0  0  0  0  0  0  0  0  0  0
    0.2092  -11.3837    2.1131 H   0  0  0  0  0  0  0  0  0  0  0  0
   -0.0429  -11.4714    3.8718 H   0  0  0  0  0  0  0  0  0  0  0  0
    1.3510  -12.2578    3.1301 H   0  0  0  0  0  0  0  0  0  0  0  0
    0.0417   -8.8845    2.3996 H   0  0  0  0  0  0  0  0  0  0  0  0
   -0.0228   -9.0280    4.1519 H   0  0  0  0  0  0  0  0  0  0  0  0
    2.0891   -7.9514    4.3575 H   0  0  0  0  0  0  0  0  0  0  0  0
    0.2772   -6.0069    2.9476 H   0  0  0  0  0  0  0  0  0  0  0  0
    0.0850   -6.6321    4.5556 H   0  0  0  0  0  0  0  0  0  0  0  0
    2.0780   -4.6561    3.5407 H   0  0  0  0  0  0  0  0  0  0  0  0
    0.9533   -2.6668    3.8143 H   0  0  0  0  0  0  0  0  0  0  0  0
   -0.3948   -1.1776    5.2886 H   0  0  0  0  0  0  0  0  0  0  0  0
   -0.6447   -4.0421    8.2463 H   0  0  0  0  0  0  0  0  0  0  0  0
    0.6960   -5.6782    6.9194 H   0  0  0  0  0  0  0  0  0  0  0  0
    3.4564   -4.8667    5.6112 H   0  0  0  0  0  0  0  0  0  0  0  0
    2.8072   -6.4231    5.9402 H   0  0  0  0  0  0  0  0  0  0  0  0
    5.1157   -5.8548    4.7228 H   0  0  0  0  0  0  0  0  0  0  0  0
    5.5739   -7.9098    4.8342 H   0  0  0  0  0  0  0  0  0  0  0  0
    3.9609   -8.3107    5.2162 H   0  0  0  0  0  0  0  0  0  0  0  0
    5.3701   -8.3231    2.4735 H   0  0  0  0  0  0  0  0  0  0  0  0
    4.9346   -9.7214    3.3922 H   0  0  0  0  0  0  0  0  0  0  0  0
    3.3251  -10.9378    2.4418 H   0  0  0  0  0  0  0  0  0  0  0  0
    2.2339  -10.2056    1.2918 H   0  0  0  0  0  0  0  0  0  0  0  0
    1.8596   -7.8709    1.3513 H   0  0  0  0  0  0  0  0  0  0  0  0
    1.9954   -6.1056    0.2155 H   0  0  0  0  0  0  0  0  0  0  0  0
    5.2446   -3.9541    1.1878 H   0  0  0  0  0  0  0  0  0  0  0  0
    2.5395   -2.0393   -1.9273 H   0  0  0  0  0  0  0  0  0  0  0  0
    4.2495   -4.7623    2.8857 H   0  0  0  0  0  0  0  0  0  0  0  0
    5.2668   -6.0825    2.3770 H   0  0  0  0  0  0  0  0  0  0  0  0
    1.9410  -10.2465    4.1854 H   0  0  0  0  0  0  0  0  0  0  0  0
  1  2  1  0
  1 28  1  0
  1 29  1  0
  1 30  1  0
  2 18  1  0
  2  3  1  0
  2 56  1  1
  3  4  1  0
  3 31  1  0
  3 32  1  0
  4 19  1  0
  4  5  1  0
  4 33  1  1
  5  6  1  0
  5 34  1  0
  5 35  1  0
  6  7  1  0
  6 13  1  0
  6 36  1  6
  7 12  1  0
  7  8  2  0
  8  9  1  0
  8 37  1  0
  9 10  2  0
  9 38  1  0
 10 11  1  0
 11 12  2  0
 11 39  1  0
 12 40  1  0
 13 14  1  0
 13 41  1  0
 13 42  1  0
 14 27  1  0
 14 15  1  0
 14 43  1  1
 15 16  1  0
 15 44  1  0
 15 45  1  0
 16 17  1  0
 16 46  1  0
 16 47  1  0
 17 18  1  0
 17 19  1  0
 18 48  1  0
 18 49  1  0
 19 20  1  0
 19 50  1  6
 20 21  2  3
 20 27  1  0
 21 22  1  0
 21 51  1  0
 22 26  1  0
 22 23  2  0
 23 24  1  0
 23 52  1  0
 24 25  1  0
 25 26  2  0
 25 53  1  0
 27 54  1  0
 27 55  1  0
M  CHG  1   2   1
M  END
>  <i_m_ct_stereo_status>  (95) 
1

>  <s_m_source_file>  (95) 
/var/tmp/pbs.5076255.sched01/tmpi0kgw23q/0rwfjwt46.sdf

>  <i_m_source_file_index>  (95) 
47

>  <i_lp_mmshare_version>  (95) 
48012

>  <i_f3d_flags>  (95) 
0

>  <s_epik_input>  (95) 
bjFbY0hdc1tjSF1jMS9bQ0hdPUNcMltDSDJdW0NASF0oW0NIMl1bQ0gyXU4oW0NASF0yW0NASF0zNClbQ0gyXU4oW0NIM10pW0NIMl0zKVtDSDJdW0NAQEhdKFtDSDJdNCljNVtjSF1bY0hdbltjSF1bY0hdNQ==

>  <s_epik_cmdline>  (95) 
J2VwaWtfcHl0aG9uJywgJy1waHQnLCAnMi4wJywgJy1waCcsICc3LjAnLCAnLXRuJywgJzgnLCAnLW1hJywgJzIwMCcsICctaW1hZScsICc8aW5maWxlLm1hZT4nLCAnLW9tYWUnLCAnPG91dGZpbGUubWFlPic=

>  <r_epik_Ionization_Penalty>  (95) 
0.0938317

>  <r_epik_Ionization_Penalty_Charging>  (95) 
0.0101286

>  <r_epik_Ionization_Penalty_Neutral>  (95) 
0.0837032

>  <r_epik_State_Penalty>  (95) 
1.11284

>  <r_epik_Charging_Adjusted_Penalty>  (95) 
1.12297

>  <i_epik_Tot_Q>  (95) 
1

>  <i_epik_Tot_abs_Q>  (95) 
1

>  <s_epik_Chemistry_Notes>  (95) 
This compound contains an acetal/aminal-like group ( X-CH(R)-Y where X, Y are N, S, or O) that may be acid/base labile, releasing an aldehyde.

>  <s_lp_Force_Field>  (95) 
OPLS3e

>  <r_lp_Energy>  (95) 
64.253

>  <b_lp_Chiralities_Consistent>  (95) 
1

>  <s_lp_Variant>  (95) 
26:0-4

>  <s_i_glide_gridfile>  (95) 
pfpi4k_grid

>  <i_i_glide_lignum>  (95) 
47

>  <i_i_glide_rotatable_bonds>  (95) 
2

>  <r_i_docking_score>  (95) 
-2.62367

>  <r_i_glide_ligand_efficiency>  (95) 
-0.0971731

>  <r_i_glide_ligand_efficiency_sa>  (95) 
-0.291519

>  <r_i_glide_ligand_efficiency_ln>  (95) 
-0.610748

>  <r_i_glide_gscore>  (95) 
-2.62367

>  <r_i_glide_lipo>  (95) 
-0.167412

>  <r_i_glide_hbond>  (95) 
0

>  <r_i_glide_metal>  (95) 
-0

>  <r_i_glide_rewards>  (95) 
-0.807556

>  <r_i_glide_evdw>  (95) 
-22.1589

>  <r_i_glide_ecoul>  (95) 
-4.3588

>  <r_i_glide_erotb>  (95) 
0.133339

>  <r_i_glide_esite>  (95) 
-0.0202756

>  <r_i_glide_emodel>  (95) 
-33.3456

>  <r_i_glide_energy>  (95) 
-26.5177

>  <r_i_glide_einternal>  (95) 
0.165094

>  <r_i_glide_intrahb_reward>  (95) 
-0

>  <i_i_glide_confnum>  (95) 
3

>  <i_i_glide_posenum>  (95) 
39

>  <r_i_glide_eff_state_penalty>  (95) 
0

>  <ligand_id>  (95) 
26

>  <original_smiles>  (95) 
CN1CC2CC(c3ccncc3)CC3CCN(C1)C2C(=Cc1cscn1)C3

>  <smiles>  (95) 
[H]C(=C1C([H])([H])C2([H])C([H])([H])C([H])([H])N3C1([H])C([H])(C([H])([H])C([H])(c1c([H])c([H])nc([H])c1[H])C2([H])[H])C([H])([H])[N+]([H])(C([H])([H])[H])C3([H])[H])c1nc([H])sc1[H]

$$$$
26:4:0
     RDKit          3D

 57 61  0  0  1  0  0  0  0  0999 V2000
   -1.2222   -9.4299    2.4999 C   0  0  0  0  0  0  0  0  0  0  0  0
   -0.4248   -8.3246    3.0195 N   0  0  0  0  0  0  0  0  0  0  0  0
    0.6695   -8.0214    2.0871 C   0  0  0  0  0  0  0  0  0  0  0  0
    1.4434   -6.8332    2.6978 C   0  0  2  0  0  0  0  0  0  0  0  0
    2.3545   -6.0296    1.7829 C   0  0  0  0  0  0  0  0  0  0  0  0
    2.7787   -4.6114    2.3161 C   0  0  1  0  0  0  0  0  0  0  0  0
    3.0257   -3.6052    1.1712 C   0  0  0  0  0  0  0  0  0  0  0  0
    3.0696   -4.0113   -0.2006 C   0  0  0  0  0  0  0  0  0  0  0  0
    3.2652   -3.0615   -1.2122 C   0  0  0  0  0  0  0  0  0  0  0  0
    3.4526   -1.7632   -0.9038 N   0  0  0  0  0  0  0  0  0  0  0  0
    3.4652   -1.3269    0.3808 C   0  0  0  0  0  0  0  0  0  0  0  0
    3.2749   -2.2307    1.4351 C   0  0  0  0  0  0  0  0  0  0  0  0
    1.8366   -4.0403    3.4565 C   0  0  0  0  0  0  0  0  0  0  0  0
    2.0331   -4.5243    4.9344 C   0  0  1  0  0  0  0  0  0  0  0  0
    0.7902   -5.0067    5.7066 C   0  0  0  0  0  0  0  0  0  0  0  0
    0.0629   -6.2957    5.2720 C   0  0  0  0  0  0  0  0  0  0  0  0
    0.8936   -7.5104    4.9671 N   0  0  1  0  0  0  0  0  0  0  0  0
    0.0168   -8.6057    4.4055 C   0  0  0  0  0  0  0  0  0  0  0  0
    2.0309   -7.3219    4.0295 C   0  0  2  0  0  0  0  0  0  0  0  0
    3.3519   -6.6955    4.5535 C   0  0  0  0  0  0  0  0  0  0  0  0
    4.5977   -7.1904    4.3743 C   0  0  0  0  0  0  0  0  0  0  0  0
    5.0935   -8.3871    3.6544 C   0  0  0  0  0  0  0  0  0  0  0  0
    6.4132   -8.6330    3.3966 C   0  0  0  0  0  0  0  0  0  0  0  0
    6.6207  -10.1120    2.4814 S   0  0  0  0  0  0  0  0  0  0  0  0
    4.8818  -10.3084    2.4974 C   0  0  0  0  0  0  0  0  0  0  0  0
    4.2304   -9.3320    3.1139 N   0  0  0  0  0  0  0  0  0  0  0  0
    3.2526   -5.3743    5.2836 C   0  0  0  0  0  0  0  0  0  0  0  0
   -1.6060   -9.1850    1.5091 H   0  0  0  0  0  0  0  0  0  0  0  0
   -2.0857   -9.6231    3.1399 H   0  0  0  0  0  0  0  0  0  0  0  0
   -0.6441  -10.3534    2.4098 H   0  0  0  0  0  0  0  0  0  0  0  0
    1.3069   -8.8928    1.9099 H   0  0  0  0  0  0  0  0  0  0  0  0
    0.2354   -7.7433    1.1224 H   0  0  0  0  0  0  0  0  0  0  0  0
    0.6339   -6.1257    2.8401 H   0  0  0  0  0  0  0  0  0  0  0  0
    3.2064   -6.6108    1.4183 H   0  0  0  0  0  0  0  0  0  0  0  0
    1.6787   -5.9063    0.9418 H   0  0  0  0  0  0  0  0  0  0  0  0
    3.7782   -4.7283    2.7373 H   0  0  0  0  0  0  0  0  0  0  0  0
    2.9641   -5.0364   -0.5330 H   0  0  0  0  0  0  0  0  0  0  0  0
    3.2634   -3.3163   -2.2662 H   0  0  0  0  0  0  0  0  0  0  0  0
    3.6036   -0.2632    0.5151 H   0  0  0  0  0  0  0  0  0  0  0  0
    3.3213   -1.8207    2.4386 H   0  0  0  0  0  0  0  0  0  0  0  0
    1.9967   -2.9722    3.5675 H   0  0  0  0  0  0  0  0  0  0  0  0
    0.7862   -4.0578    3.1595 H   0  0  0  0  0  0  0  0  0  0  0  0
    2.2675   -3.5968    5.4621 H   0  0  0  0  0  0  0  0  0  0  0  0
    1.0591   -5.0943    6.7595 H   0  0  0  0  0  0  0  0  0  0  0  0
    0.0541   -4.2051    5.6728 H   0  0  0  0  0  0  0  0  0  0  0  0
   -0.5956   -6.5783    6.0897 H   0  0  0  0  0  0  0  0  0  0  0  0
   -0.6206   -6.0584    4.4595 H   0  0  0  0  0  0  0  0  0  0  0  0
   -0.8594   -8.7258    5.0400 H   0  0  0  0  0  0  0  0  0  0  0  0
    0.5483   -9.5578    4.4454 H   0  0  0  0  0  0  0  0  0  0  0  0
    2.3023   -8.3549    3.8971 H   0  0  0  0  0  0  0  0  0  0  0  0
    5.4043   -6.6087    4.8149 H   0  0  0  0  0  0  0  0  0  0  0  0
    7.2825   -8.0438    3.6754 H   0  0  0  0  0  0  0  0  0  0  0  0
    4.3195  -11.1411    2.0895 H   0  0  0  0  0  0  0  0  0  0  0  0
    4.1525   -4.7882    5.0821 H   0  0  0  0  0  0  0  0  0  0  0  0
    3.2714   -5.5783    6.3571 H   0  0  0  0  0  0  0  0  0  0  0  0
    1.2854   -7.8515    5.8300 H   0  0  0  0  0  0  0  0  0  0  0  0
    3.5594   -1.0829   -1.6510 H   0  0  0  0  0  0  0  0  0  0  0  0
  1  2  1  0
  1 28  1  0
  1 29  1  0
  1 30  1  0
  2 18  1  0
  2  3  1  0
  3  4  1  0
  3 31  1  0
  3 32  1  0
  4 19  1  0
  4  5  1  0
  4 33  1  1
  5  6  1  0
  5 34  1  0
  5 35  1  0
  6  7  1  0
  6 13  1  0
  6 36  1  1
  7 12  1  0
  7  8  2  0
  8  9  1  0
  8 37  1  0
  9 10  2  0
  9 38  1  0
 10 11  1  0
 10 57  1  0
 11 12  2  0
 11 39  1  0
 12 40  1  0
 13 14  1  0
 13 41  1  0
 13 42  1  0
 14 27  1  0
 14 15  1  0
 14 43  1  1
 15 16  1  0
 15 44  1  0
 15 45  1  0
 16 17  1  0
 16 46  1  0
 16 47  1  0
 17 18  1  0
 17 19  1  0
 17 56  1  1
 18 48  1  0
 18 49  1  0
 19 20  1  0
 19 50  1  6
 20 21  2  3
 20 27  1  0
 21 22  1  0
 21 51  1  0
 22 26  1  0
 22 23  2  0
 23 24  1  0
 23 52  1  0
 24 25  1  0
 25 26  2  0
 25 53  1  0
 27 54  1  0
 27 55  1  0
M  CHG  2  10   1  17   1
M  END
>  <i_m_ct_stereo_status>  (96) 
1

>  <s_m_source_file>  (96) 
/var/tmp/pbs.5076255.sched01/tmpi0kgw23q/0rwfjwt46.sdf

>  <i_m_source_file_index>  (96) 
48

>  <i_lp_mmshare_version>  (96) 
48012

>  <i_f3d_flags>  (96) 
0

>  <s_epik_input>  (96) 
bjFbY0hdc1tjSF1jMS9bQ0hdPUNcMltDSDJdW0NASF0oW0NIMl1bQ0gyXU4oW0NASF0yW0NASF0zNClbQ0gyXU4oW0NIM10pW0NIMl0zKVtDSDJdW0NAQEhdKFtDSDJdNCljNVtjSF1bY0hdbltjSF1bY0hdNQ==

>  <s_epik_cmdline>  (96) 
J2VwaWtfcHl0aG9uJywgJy1waHQnLCAnMi4wJywgJy1waCcsICc3LjAnLCAnLXRuJywgJzgnLCAnLW1hJywgJzIwMCcsICctaW1hZScsICc8aW5maWxlLm1hZT4nLCAnLW9tYWUnLCAnPG91dGZpbGUubWFlPic=

>  <r_epik_Ionization_Penalty>  (96) 
1.39458

>  <r_epik_Ionization_Penalty_Charging>  (96) 
1.39453

>  <r_epik_Ionization_Penalty_Neutral>  (96) 
4.86258e-05

>  <r_epik_State_Penalty>  (96) 
1.5844

>  <r_epik_Charging_Adjusted_Penalty>  (96) 
2.97892

>  <i_epik_Tot_Q>  (96) 
2

>  <i_epik_Tot_abs_Q>  (96) 
2

>  <s_epik_Chemistry_Notes>  (96) 
This compound contains an acetal/aminal-like group ( X-CH(R)-Y where X, Y are N, S, or O) that may be acid/base labile, releasing an aldehyde.

>  <s_lp_Force_Field>  (96) 
OPLS3e

>  <r_lp_Energy>  (96) 
80.148

>  <b_lp_Chiralities_Consistent>  (96) 
1

>  <s_lp_Variant>  (96) 
26:0-5

>  <s_i_glide_gridfile>  (96) 
pfpi4k_grid

>  <i_i_glide_lignum>  (96) 
48

>  <i_i_glide_rotatable_bonds>  (96) 
2

>  <r_i_docking_score>  (96) 
-3.06538

>  <r_i_glide_ligand_efficiency>  (96) 
-0.113533

>  <r_i_glide_ligand_efficiency_sa>  (96) 
-0.340598

>  <r_i_glide_ligand_efficiency_ln>  (96) 
-0.71357

>  <r_i_glide_gscore>  (96) 
-3.06538

>  <r_i_glide_lipo>  (96) 
-0.216031

>  <r_i_glide_hbond>  (96) 
0

>  <r_i_glide_metal>  (96) 
-0

>  <r_i_glide_rewards>  (96) 
-0.800684

>  <r_i_glide_evdw>  (96) 
-21.2517

>  <r_i_glide_ecoul>  (96) 
-6.43381

>  <r_i_glide_erotb>  (96) 
0.13271

>  <r_i_glide_esite>  (96) 
-0.153718

>  <r_i_glide_emodel>  (96) 
-30.3449

>  <r_i_glide_energy>  (96) 
-27.6855

>  <r_i_glide_einternal>  (96) 
7.55761

>  <r_i_glide_intrahb_reward>  (96) 
-0

>  <i_i_glide_confnum>  (96) 
4

>  <i_i_glide_posenum>  (96) 
11

>  <r_i_glide_eff_state_penalty>  (96) 
0

>  <ligand_id>  (96) 
26

>  <original_smiles>  (96) 
CN1CC2CC(c3ccncc3)CC3CCN(C1)C2C(=Cc1cscn1)C3

>  <smiles>  (96) 
[H]C(=C1C([H])([H])C2([H])C([H])([H])C([H])(c3c([H])c([H])[n+]([H])c([H])c3[H])C([H])([H])C3([H])C([H])([H])N(C([H])([H])[H])C([H])([H])[N+]([H])(C([H])([H])C2([H])[H])C13[H])c1nc([H])sc1[H]

$$$$
26:4:1
     RDKit          3D

 57 61  0  0  1  0  0  0  0  0999 V2000
   -0.7586   -9.6504    2.5139 C   0  0  0  0  0  0  0  0  0  0  0  0
   -0.0457   -8.6831    3.3456 N   0  0  0  0  0  0  0  0  0  0  0  0
    0.7904   -7.8155    2.5034 C   0  0  0  0  0  0  0  0  0  0  0  0
    1.4592   -6.7990    3.4516 C   0  0  2  0  0  0  0  0  0  0  0  0
    2.0709   -5.5259    2.8437 C   0  0  0  0  0  0  0  0  0  0  0  0
    2.3869   -4.4042    3.8877 C   0  0  1  0  0  0  0  0  0  0  0  0
    2.2405   -3.0238    3.2430 C   0  0  0  0  0  0  0  0  0  0  0  0
    1.1012   -2.2114    3.4689 C   0  0  0  0  0  0  0  0  0  0  0  0
    1.0206   -0.9374    2.8767 C   0  0  0  0  0  0  0  0  0  0  0  0
    2.0156   -0.5080    2.0761 N   0  0  0  0  0  0  0  0  0  0  0  0
    3.1154   -1.2460    1.8153 C   0  0  0  0  0  0  0  0  0  0  0  0
    3.2584   -2.5251    2.3956 C   0  0  0  0  0  0  0  0  0  0  0  0
    1.6210   -4.4977    5.2587 C   0  0  0  0  0  0  0  0  0  0  0  0
    2.1313   -5.4593    6.3832 C   0  0  1  0  0  0  0  0  0  0  0  0
    1.1249   -6.4608    7.0131 C   0  0  0  0  0  0  0  0  0  0  0  0
    0.5237   -7.6181    6.1742 C   0  0  0  0  0  0  0  0  0  0  0  0
    1.4460   -8.4044    5.3042 N   0  0  1  0  0  0  0  0  0  0  0  0
    0.6660   -9.3676    4.4499 C   0  0  0  0  0  0  0  0  0  0  0  0
    2.3399   -7.6269    4.4125 C   0  0  2  0  0  0  0  0  0  0  0  0
    3.6252   -7.0108    4.9919 C   0  0  0  0  0  0  0  0  0  0  0  0
    4.8653   -7.1603    4.4722 C   0  0  0  0  0  0  0  0  0  0  0  0
    5.3968   -7.9061    3.3034 C   0  0  0  0  0  0  0  0  0  0  0  0
    4.7982   -8.8599    2.4964 C   0  0  0  0  0  0  0  0  0  0  0  0
    5.8895   -9.4430    1.2803 S   0  0  0  0  0  0  0  0  0  0  0  0
    7.0909   -8.2968    1.8338 C   0  0  0  0  0  0  0  0  0  0  0  0
    6.6963   -7.5806    2.8941 N   0  0  0  0  0  0  0  0  0  0  0  0
    3.4998   -6.1101    6.2044 C   0  0  0  0  0  0  0  0  0  0  0  0
   -1.3537   -9.1374    1.7542 H   0  0  0  0  0  0  0  0  0  0  0  0
   -1.4488  -10.2395    3.1167 H   0  0  0  0  0  0  0  0  0  0  0  0
   -0.0860  -10.3463    2.0058 H   0  0  0  0  0  0  0  0  0  0  0  0
    1.5129   -8.4011    1.9240 H   0  0  0  0  0  0  0  0  0  0  0  0
    0.1441   -7.3027    1.7878 H   0  0  0  0  0  0  0  0  0  0  0  0
    0.5882   -6.3805    3.9522 H   0  0  0  0  0  0  0  0  0  0  0  0
    2.9358   -5.7380    2.2092 H   0  0  0  0  0  0  0  0  0  0  0  0
    1.3123   -5.1371    2.1658 H   0  0  0  0  0  0  0  0  0  0  0  0
    3.4521   -4.4701    4.1119 H   0  0  0  0  0  0  0  0  0  0  0  0
    0.2840   -2.5440    4.0899 H   0  0  0  0  0  0  0  0  0  0  0  0
    0.1841   -0.2640    3.0016 H   0  0  0  0  0  0  0  0  0  0  0  0
    3.8382   -0.7990    1.1479 H   0  0  0  0  0  0  0  0  0  0  0  0
    4.1396   -3.1156    2.1883 H   0  0  0  0  0  0  0  0  0  0  0  0
    1.7112   -3.5147    5.7185 H   0  0  0  0  0  0  0  0  0  0  0  0
    0.5437   -4.6107    5.1169 H   0  0  0  0  0  0  0  0  0  0  0  0
    2.3125   -4.7732    7.2177 H   0  0  0  0  0  0  0  0  0  0  0  0
    1.6031   -6.8896    7.8979 H   0  0  0  0  0  0  0  0  0  0  0  0
    0.2860   -5.8796    7.3999 H   0  0  0  0  0  0  0  0  0  0  0  0
    0.0767   -8.3224    6.8789 H   0  0  0  0  0  0  0  0  0  0  0  0
   -0.3240   -7.2338    5.6111 H   0  0  0  0  0  0  0  0  0  0  0  0
   -0.0527   -9.9013    5.0678 H   0  0  0  0  0  0  0  0  0  0  0  0
    1.3373  -10.1222    4.0450 H   0  0  0  0  0  0  0  0  0  0  0  0
    2.7715   -8.4326    3.8610 H   0  0  0  0  0  0  0  0  0  0  0  0
    5.6441   -6.6312    5.0129 H   0  0  0  0  0  0  0  0  0  0  0  0
    3.8256   -9.3187    2.5027 H   0  0  0  0  0  0  0  0  0  0  0  0
    8.0795   -8.1970    1.3982 H   0  0  0  0  0  0  0  0  0  0  0  0
    4.2565   -5.3214    6.1611 H   0  0  0  0  0  0  0  0  0  0  0  0
    3.7482   -6.6973    7.0917 H   0  0  0  0  0  0  0  0  0  0  0  0
    2.0375   -8.9571    5.9131 H   0  0  0  0  0  0  0  0  0  0  0  0
    1.9157    0.4039    1.6218 H   0  0  0  0  0  0  0  0  0  0  0  0
  1  2  1  0
  1 28  1  0
  1 29  1  0
  1 30  1  0
  2 18  1  0
  2  3  1  0
  3  4  1  0
  3 31  1  0
  3 32  1  0
  4 19  1  0
  4  5  1  0
  4 33  1  1
  5  6  1  0
  5 34  1  0
  5 35  1  0
  6  7  1  0
  6 13  1  0
  6 36  1  1
  7 12  1  0
  7  8  2  0
  8  9  1  0
  8 37  1  0
  9 10  2  0
  9 38  1  0
 10 11  1  0
 10 57  1  0
 11 12  2  0
 11 39  1  0
 12 40  1  0
 13 14  1  0
 13 41  1  0
 13 42  1  0
 14 27  1  0
 14 15  1  0
 14 43  1  1
 15 16  1  0
 15 44  1  0
 15 45  1  0
 16 17  1  0
 16 46  1  0
 16 47  1  0
 17 18  1  0
 17 19  1  0
 17 56  1  1
 18 48  1  0
 18 49  1  0
 19 20  1  0
 19 50  1  6
 20 21  2  3
 20 27  1  0
 21 22  1  0
 21 51  1  0
 22 26  1  0
 22 23  2  0
 23 24  1  0
 23 52  1  0
 24 25  1  0
 25 26  2  0
 25 53  1  0
 27 54  1  0
 27 55  1  0
M  CHG  2  10   1  17   1
M  END
>  <i_m_ct_stereo_status>  (97) 
1

>  <s_m_source_file>  (97) 
/var/tmp/pbs.5076255.sched01/tmpi0kgw23q/0rwfjwt46.sdf

>  <i_m_source_file_index>  (97) 
48

>  <i_lp_mmshare_version>  (97) 
48012

>  <i_f3d_flags>  (97) 
0

>  <s_epik_input>  (97) 
bjFbY0hdc1tjSF1jMS9bQ0hdPUNcMltDSDJdW0NASF0oW0NIMl1bQ0gyXU4oW0NASF0yW0NASF0zNClbQ0gyXU4oW0NIM10pW0NIMl0zKVtDSDJdW0NAQEhdKFtDSDJdNCljNVtjSF1bY0hdbltjSF1bY0hdNQ==

>  <s_epik_cmdline>  (97) 
J2VwaWtfcHl0aG9uJywgJy1waHQnLCAnMi4wJywgJy1waCcsICc3LjAnLCAnLXRuJywgJzgnLCAnLW1hJywgJzIwMCcsICctaW1hZScsICc8aW5maWxlLm1hZT4nLCAnLW9tYWUnLCAnPG91dGZpbGUubWFlPic=

>  <r_epik_Ionization_Penalty>  (97) 
1.39458

>  <r_epik_Ionization_Penalty_Charging>  (97) 
1.39453

>  <r_epik_Ionization_Penalty_Neutral>  (97) 
4.86258e-05

>  <r_epik_State_Penalty>  (97) 
1.5844

>  <r_epik_Charging_Adjusted_Penalty>  (97) 
2.97892

>  <i_epik_Tot_Q>  (97) 
2

>  <i_epik_Tot_abs_Q>  (97) 
2

>  <s_epik_Chemistry_Notes>  (97) 
This compound contains an acetal/aminal-like group ( X-CH(R)-Y where X, Y are N, S, or O) that may be acid/base labile, releasing an aldehyde.

>  <s_lp_Force_Field>  (97) 
OPLS3e

>  <r_lp_Energy>  (97) 
80.148

>  <b_lp_Chiralities_Consistent>  (97) 
1

>  <s_lp_Variant>  (97) 
26:0-5

>  <s_i_glide_gridfile>  (97) 
pfpi4k_grid

>  <i_i_glide_lignum>  (97) 
48

>  <i_i_glide_rotatable_bonds>  (97) 
2

>  <r_i_docking_score>  (97) 
-2.80081

>  <r_i_glide_ligand_efficiency>  (97) 
-0.103734

>  <r_i_glide_ligand_efficiency_sa>  (97) 
-0.311201

>  <r_i_glide_ligand_efficiency_ln>  (97) 
-0.651981

>  <r_i_glide_gscore>  (97) 
-2.80081

>  <r_i_glide_lipo>  (97) 
-0.297335

>  <r_i_glide_hbond>  (97) 
0

>  <r_i_glide_metal>  (97) 
-0

>  <r_i_glide_rewards>  (97) 
-0.800684

>  <r_i_glide_evdw>  (97) 
-20.3921

>  <r_i_glide_ecoul>  (97) 
-4.7093

>  <r_i_glide_erotb>  (97) 
0.13271

>  <r_i_glide_esite>  (97) 
-0.109497

>  <r_i_glide_emodel>  (97) 
-30.487

>  <r_i_glide_energy>  (97) 
-25.1014

>  <r_i_glide_einternal>  (97) 
1.28613

>  <r_i_glide_intrahb_reward>  (97) 
-0

>  <i_i_glide_confnum>  (97) 
2

>  <i_i_glide_posenum>  (97) 
35

>  <r_i_glide_eff_state_penalty>  (97) 
0

>  <ligand_id>  (97) 
26

>  <original_smiles>  (97) 
CN1CC2CC(c3ccncc3)CC3CCN(C1)C2C(=Cc1cscn1)C3

>  <smiles>  (97) 
[H]C(=C1C([H])([H])C2([H])C([H])([H])C([H])(c3c([H])c([H])[n+]([H])c([H])c3[H])C([H])([H])C3([H])C([H])([H])N(C([H])([H])[H])C([H])([H])[N+]([H])(C([H])([H])C2([H])[H])C13[H])c1nc([H])sc1[H]

$$$$
26:4:2
     RDKit          3D

 57 61  0  0  1  0  0  0  0  0999 V2000
   -1.3825   -9.1975    2.6115 C   0  0  0  0  0  0  0  0  0  0  0  0
   -0.5090   -8.3079    3.3741 N   0  0  0  0  0  0  0  0  0  0  0  0
    0.4197   -7.6126    2.4667 C   0  0  0  0  0  0  0  0  0  0  0  0
    1.2779   -6.6747    3.3443 C   0  0  2  0  0  0  0  0  0  0  0  0
    2.0357   -5.5234    2.6646 C   0  0  0  0  0  0  0  0  0  0  0  0
    2.5407   -4.4159    3.6444 C   0  0  1  0  0  0  0  0  0  0  0  0
    2.5718   -3.0578    2.9407 C   0  0  0  0  0  0  0  0  0  0  0  0
    3.7418   -2.6267    2.2778 C   0  0  0  0  0  0  0  0  0  0  0  0
    3.7569   -1.3653    1.6447 C   0  0  0  0  0  0  0  0  0  0  0  0
    2.6565   -0.5850    1.6783 N   0  0  0  0  0  0  0  0  0  0  0  0
    1.5162   -0.9531    2.2944 C   0  0  0  0  0  0  0  0  0  0  0  0
    1.4434   -2.2047    2.9401 C   0  0  0  0  0  0  0  0  0  0  0  0
    1.8106   -4.3286    5.0317 C   0  0  0  0  0  0  0  0  0  0  0  0
    2.2191   -5.3117    6.1816 C   0  0  1  0  0  0  0  0  0  0  0  0
    1.1094   -6.1285    6.8875 C   0  0  0  0  0  0  0  0  0  0  0  0
    0.3277   -7.2202    6.1203 C   0  0  0  0  0  0  0  0  0  0  0  0
    1.0989   -8.1793    5.2622 N   0  0  1  0  0  0  0  0  0  0  0  0
    0.1491   -9.0462    4.4793 C   0  0  0  0  0  0  0  0  0  0  0  0
    2.0745   -7.5913    4.3032 C   0  0  2  0  0  0  0  0  0  0  0  0
    3.4474   -7.1190    4.8309 C   0  0  0  0  0  0  0  0  0  0  0  0
    4.6595   -7.4561    4.3088 C   0  0  0  0  0  0  0  0  0  0  0  0
    5.0216   -8.2435    3.1145 C   0  0  0  0  0  0  0  0  0  0  0  0
    6.3168   -8.5323    2.7563 C   0  0  0  0  0  0  0  0  0  0  0  0
    6.3730   -9.4764    1.2843 S   0  0  0  0  0  0  0  0  0  0  0  0
    4.6215   -9.4185    1.2265 C   0  0  0  0  0  0  0  0  0  0  0  0
    4.0722   -8.7189    2.2119 N   0  0  0  0  0  0  0  0  0  0  0  0
    3.4727   -6.1676    6.0065 C   0  0  0  0  0  0  0  0  0  0  0  0
   -1.9220   -8.6351    1.8480 H   0  0  0  0  0  0  0  0  0  0  0  0
   -2.1322   -9.6553    3.2607 H   0  0  0  0  0  0  0  0  0  0  0  0
   -0.8344   -9.9981    2.1051 H   0  0  0  0  0  0  0  0  0  0  0  0
    1.0227   -8.3249    1.8965 H   0  0  0  0  0  0  0  0  0  0  0  0
   -0.1695   -7.0371    1.7498 H   0  0  0  0  0  0  0  0  0  0  0  0
    0.5037   -6.1201    3.8636 H   0  0  0  0  0  0  0  0  0  0  0  0
    2.8360   -5.8847    2.0134 H   0  0  0  0  0  0  0  0  0  0  0  0
    1.3093   -5.0614    1.9995 H   0  0  0  0  0  0  0  0  0  0  0  0
    3.5869   -4.6346    3.8504 H   0  0  0  0  0  0  0  0  0  0  0  0
    4.6215   -3.2521    2.2504 H   0  0  0  0  0  0  0  0  0  0  0  0
    4.6057   -0.9676    1.1086 H   0  0  0  0  0  0  0  0  0  0  0  0
    0.6974   -0.2511    2.2298 H   0  0  0  0  0  0  0  0  0  0  0  0
    0.5222   -2.4966    3.4189 H   0  0  0  0  0  0  0  0  0  0  0  0
    2.0501   -3.3422    5.4264 H   0  0  0  0  0  0  0  0  0  0  0  0
    0.7251   -4.2898    4.9275 H   0  0  0  0  0  0  0  0  0  0  0  0
    2.5246   -4.6283    6.9775 H   0  0  0  0  0  0  0  0  0  0  0  0
    1.5458   -6.5839    7.7800 H   0  0  0  0  0  0  0  0  0  0  0  0
    0.3714   -5.4234    7.2710 H   0  0  0  0  0  0  0  0  0  0  0  0
   -0.1868   -7.8241    6.8668 H   0  0  0  0  0  0  0  0  0  0  0  0
   -0.4822   -6.7468    5.5691 H   0  0  0  0  0  0  0  0  0  0  0  0
   -0.6056   -9.4421    5.1576 H   0  0  0  0  0  0  0  0  0  0  0  0
    0.6808   -9.9158    4.0881 H   0  0  0  0  0  0  0  0  0  0  0  0
    2.3425   -8.4909    3.7669 H   0  0  0  0  0  0  0  0  0  0  0  0
    5.5198   -7.0369    4.8154 H   0  0  0  0  0  0  0  0  0  0  0  0
    7.2329   -8.2494    3.2611 H   0  0  0  0  0  0  0  0  0  0  0  0
    4.0042   -9.8565    0.4553 H   0  0  0  0  0  0  0  0  0  0  0  0
    4.3301   -5.4980    5.9067 H   0  0  0  0  0  0  0  0  0  0  0  0
    3.6589   -6.7497    6.9134 H   0  0  0  0  0  0  0  0  0  0  0  0
    1.6203   -8.7903    5.8762 H   0  0  0  0  0  0  0  0  0  0  0  0
    2.6719    0.3135    1.1915 H   0  0  0  0  0  0  0  0  0  0  0  0
  1  2  1  0
  1 28  1  0
  1 29  1  0
  1 30  1  0
  2 18  1  0
  2  3  1  0
  3  4  1  0
  3 31  1  0
  3 32  1  0
  4 19  1  0
  4  5  1  0
  4 33  1  1
  5  6  1  0
  5 34  1  0
  5 35  1  0
  6  7  1  0
  6 13  1  0
  6 36  1  1
  7 12  1  0
  7  8  2  0
  8  9  1  0
  8 37  1  0
  9 10  2  0
  9 38  1  0
 10 11  1  0
 10 57  1  0
 11 12  2  0
 11 39  1  0
 12 40  1  0
 13 14  1  0
 13 41  1  0
 13 42  1  0
 14 27  1  0
 14 15  1  0
 14 43  1  1
 15 16  1  0
 15 44  1  0
 15 45  1  0
 16 17  1  0
 16 46  1  0
 16 47  1  0
 17 18  1  0
 17 19  1  0
 17 56  1  1
 18 48  1  0
 18 49  1  0
 19 20  1  0
 19 50  1  6
 20 21  2  3
 20 27  1  0
 21 22  1  0
 21 51  1  0
 22 26  1  0
 22 23  2  0
 23 24  1  0
 23 52  1  0
 24 25  1  0
 25 26  2  0
 25 53  1  0
 27 54  1  0
 27 55  1  0
M  CHG  2  10   1  17   1
M  END
>  <i_m_ct_stereo_status>  (98) 
1

>  <s_m_source_file>  (98) 
/var/tmp/pbs.5076255.sched01/tmpi0kgw23q/0rwfjwt46.sdf

>  <i_m_source_file_index>  (98) 
48

>  <i_lp_mmshare_version>  (98) 
48012

>  <i_f3d_flags>  (98) 
0

>  <s_epik_input>  (98) 
bjFbY0hdc1tjSF1jMS9bQ0hdPUNcMltDSDJdW0NASF0oW0NIMl1bQ0gyXU4oW0NASF0yW0NASF0zNClbQ0gyXU4oW0NIM10pW0NIMl0zKVtDSDJdW0NAQEhdKFtDSDJdNCljNVtjSF1bY0hdbltjSF1bY0hdNQ==

>  <s_epik_cmdline>  (98) 
J2VwaWtfcHl0aG9uJywgJy1waHQnLCAnMi4wJywgJy1waCcsICc3LjAnLCAnLXRuJywgJzgnLCAnLW1hJywgJzIwMCcsICctaW1hZScsICc8aW5maWxlLm1hZT4nLCAnLW9tYWUnLCAnPG91dGZpbGUubWFlPic=

>  <r_epik_Ionization_Penalty>  (98) 
1.39458

>  <r_epik_Ionization_Penalty_Charging>  (98) 
1.39453

>  <r_epik_Ionization_Penalty_Neutral>  (98) 
4.86258e-05

>  <r_epik_State_Penalty>  (98) 
1.5844

>  <r_epik_Charging_Adjusted_Penalty>  (98) 
2.97892

>  <i_epik_Tot_Q>  (98) 
2

>  <i_epik_Tot_abs_Q>  (98) 
2

>  <s_epik_Chemistry_Notes>  (98) 
This compound contains an acetal/aminal-like group ( X-CH(R)-Y where X, Y are N, S, or O) that may be acid/base labile, releasing an aldehyde.

>  <s_lp_Force_Field>  (98) 
OPLS3e

>  <r_lp_Energy>  (98) 
80.148

>  <b_lp_Chiralities_Consistent>  (98) 
1

>  <s_lp_Variant>  (98) 
26:0-5

>  <s_i_glide_gridfile>  (98) 
pfpi4k_grid

>  <i_i_glide_lignum>  (98) 
48

>  <i_i_glide_rotatable_bonds>  (98) 
2

>  <r_i_docking_score>  (98) 
-2.77484

>  <r_i_glide_ligand_efficiency>  (98) 
-0.102772

>  <r_i_glide_ligand_efficiency_sa>  (98) 
-0.308316

>  <r_i_glide_ligand_efficiency_ln>  (98) 
-0.645937

>  <r_i_glide_gscore>  (98) 
-2.77484

>  <r_i_glide_lipo>  (98) 
-0.189623

>  <r_i_glide_hbond>  (98) 
0

>  <r_i_glide_metal>  (98) 
-0

>  <r_i_glide_rewards>  (98) 
-0.800684

>  <r_i_glide_evdw>  (98) 
-21.1881

>  <r_i_glide_ecoul>  (98) 
-4.90983

>  <r_i_glide_erotb>  (98) 
0.13271

>  <r_i_glide_esite>  (98) 
-0.121365

>  <r_i_glide_emodel>  (98) 
-31.9731

>  <r_i_glide_energy>  (98) 
-26.0979

>  <r_i_glide_einternal>  (98) 
0.245277

>  <r_i_glide_intrahb_reward>  (98) 
-0

>  <i_i_glide_confnum>  (98) 
1

>  <i_i_glide_posenum>  (98) 
25

>  <r_i_glide_eff_state_penalty>  (98) 
0

>  <ligand_id>  (98) 
26

>  <original_smiles>  (98) 
CN1CC2CC(c3ccncc3)CC3CCN(C1)C2C(=Cc1cscn1)C3

>  <smiles>  (98) 
[H]C(=C1C([H])([H])C2([H])C([H])([H])C([H])(c3c([H])c([H])[n+]([H])c([H])c3[H])C([H])([H])C3([H])C([H])([H])N(C([H])([H])[H])C([H])([H])[N+]([H])(C([H])([H])C2([H])[H])C13[H])c1nc([H])sc1[H]

$$$$
26:5:0
     RDKit          3D

 57 61  0  0  1  0  0  0  0  0999 V2000
    2.7901    0.9997    5.0279 C   0  0  0  0  0  0  0  0  0  0  0  0
    3.2167   -0.1713    4.2689 N   0  0  0  0  0  0  0  0  0  0  0  0
    2.2723   -0.4388    3.1731 C   0  0  0  0  0  0  0  0  0  0  0  0
    2.8289   -1.6537    2.4029 C   0  0  2  0  0  0  0  0  0  0  0  0
    2.3011   -1.9106    1.0003 C   0  0  0  0  0  0  0  0  0  0  0  0
    3.1474   -2.8748    0.1190 C   0  0  1  0  0  0  0  0  0  0  0  0
    3.0370   -2.5255   -1.3590 C   0  0  0  0  0  0  0  0  0  0  0  0
    3.6253   -1.3488   -1.8805 C   0  0  0  0  0  0  0  0  0  0  0  0
    3.4723   -1.0428   -3.2476 C   0  0  0  0  0  0  0  0  0  0  0  0
    2.7984   -1.8961   -4.0433 N   0  0  0  0  0  0  0  0  0  0  0  0
    2.2494   -3.0414   -3.5974 C   0  0  0  0  0  0  0  0  0  0  0  0
    2.3310   -3.3723   -2.2379 C   0  0  0  0  0  0  0  0  0  0  0  0
    4.6355   -3.0337    0.5362 C   0  0  0  0  0  0  0  0  0  0  0  0
    4.9525   -4.0161    1.7079 C   0  0  1  0  0  0  0  0  0  0  0  0
    5.7660   -3.4958    2.8995 C   0  0  0  0  0  0  0  0  0  0  0  0
    5.2440   -2.4079    3.8646 C   0  0  0  0  0  0  0  0  0  0  0  0
    3.8615   -2.5553    4.4003 N   0  0  1  0  0  0  0  0  0  0  0  0
    3.4686   -1.3247    5.1627 C   0  0  0  0  0  0  0  0  0  0  0  0
    2.8136   -2.8351    3.3924 C   0  0  2  0  0  0  0  0  0  0  0  0
    2.6775   -4.2842    2.8778 C   0  0  0  0  0  0  0  0  0  0  0  0
    1.4997   -4.9327    3.0088 C   0  0  0  0  0  0  0  0  0  0  0  0
    1.1477   -6.3300    2.6585 C   0  0  0  0  0  0  0  0  0  0  0  0
    2.0018   -7.4053    2.5579 C   0  0  0  0  0  0  0  0  0  0  0  0
    1.1332   -8.8584    2.1742 S   0  0  0  0  0  0  0  0  0  0  0  0
   -0.3500   -7.9120    2.0833 C   0  0  0  0  0  0  0  0  0  0  0  0
   -0.1820   -6.6207    2.3543 N   0  0  0  0  0  0  0  0  0  0  0  0
    3.8636   -4.9518    2.2021 C   0  0  0  0  0  0  0  0  0  0  0  0
    2.6820    1.8601    4.3618 H   0  0  0  0  0  0  0  0  0  0  0  0
    3.5344    1.2681    5.7814 H   0  0  0  0  0  0  0  0  0  0  0  0
    1.8307    0.8441    5.5317 H   0  0  0  0  0  0  0  0  0  0  0  0
    1.2599   -0.6098    3.5535 H   0  0  0  0  0  0  0  0  0  0  0  0
    2.2298    0.4369    2.5187 H   0  0  0  0  0  0  0  0  0  0  0  0
    3.8269   -1.3095    2.1672 H   0  0  0  0  0  0  0  0  0  0  0  0
    1.2683   -2.2339    1.0428 H   0  0  0  0  0  0  0  0  0  0  0  0
    2.3073   -0.9222    0.5404 H   0  0  0  0  0  0  0  0  0  0  0  0
    2.6746   -3.8506    0.1972 H   0  0  0  0  0  0  0  0  0  0  0  0
    4.1332   -0.6556   -1.2268 H   0  0  0  0  0  0  0  0  0  0  0  0
    3.8334   -0.1373   -3.7175 H   0  0  0  0  0  0  0  0  0  0  0  0
    1.7449   -3.6310   -4.3447 H   0  0  0  0  0  0  0  0  0  0  0  0
    1.8418   -4.2668   -1.8906 H   0  0  0  0  0  0  0  0  0  0  0  0
    5.1516   -3.4429   -0.3309 H   0  0  0  0  0  0  0  0  0  0  0  0
    5.1264   -2.0694    0.6742 H   0  0  0  0  0  0  0  0  0  0  0  0
    5.6653   -4.7005    1.2421 H   0  0  0  0  0  0  0  0  0  0  0  0
    6.1206   -4.3540    3.4808 H   0  0  0  0  0  0  0  0  0  0  0  0
    6.6191   -3.0549    2.4052 H   0  0  0  0  0  0  0  0  0  0  0  0
    5.8682   -2.4217    4.7499 H   0  0  0  0  0  0  0  0  0  0  0  0
    5.4331   -1.4276    3.4246 H   0  0  0  0  0  0  0  0  0  0  0  0
    4.2648   -1.0605    5.8582 H   0  0  0  0  0  0  0  0  0  0  0  0
    2.5842   -1.5393    5.7622 H   0  0  0  0  0  0  0  0  0  0  0  0
    1.8933   -2.7370    3.9623 H   0  0  0  0  0  0  0  0  0  0  0  0
    0.6879   -4.3967    3.4856 H   0  0  0  0  0  0  0  0  0  0  0  0
    3.0650   -7.4764    2.7237 H   0  0  0  0  0  0  0  0  0  0  0  0
   -1.3297   -8.2958    1.8214 H   0  0  0  0  0  0  0  0  0  0  0  0
    3.5246   -5.5503    1.3575 H   0  0  0  0  0  0  0  0  0  0  0  0
    4.3186   -5.6531    2.9066 H   0  0  0  0  0  0  0  0  0  0  0  0
    3.8832   -3.3268    5.0469 H   0  0  0  0  0  0  0  0  0  0  0  0
    2.6309   -1.6608   -5.0260 H   0  0  0  0  0  0  0  0  0  0  0  0
  1  2  1  0
  1 28  1  0
  1 29  1  0
  1 30  1  0
  2 18  1  0
  2  3  1  0
  3  4  1  0
  3 31  1  0
  3 32  1  0
  4 19  1  0
  4  5  1  0
  4 33  1  6
  5  6  1  0
  5 34  1  0
  5 35  1  0
  6  7  1  0
  6 13  1  0
  6 36  1  6
  7 12  1  0
  7  8  2  0
  8  9  1  0
  8 37  1  0
  9 10  2  0
  9 38  1  0
 10 11  1  0
 10 57  1  0
 11 12  2  0
 11 39  1  0
 12 40  1  0
 13 14  1  0
 13 41  1  0
 13 42  1  0
 14 27  1  0
 14 15  1  0
 14 43  1  6
 15 16  1  0
 15 44  1  0
 15 45  1  0
 16 17  1  0
 16 46  1  0
 16 47  1  0
 17 18  1  0
 17 19  1  0
 17 56  1  1
 18 48  1  0
 18 49  1  0
 19 20  1  0
 19 50  1  1
 20 21  2  3
 20 27  1  0
 21 22  1  0
 21 51  1  0
 22 26  1  0
 22 23  2  0
 23 24  1  0
 23 52  1  0
 24 25  1  0
 25 26  2  0
 25 53  1  0
 27 54  1  0
 27 55  1  0
M  CHG  2  10   1  17   1
M  END
>  <i_m_ct_stereo_status>  (99) 
1

>  <s_m_source_file>  (99) 
/var/tmp/pbs.5076255.sched01/tmpco4mv84g/486h_uxm9x.sdf

>  <i_m_source_file_index>  (99) 
1

>  <i_lp_mmshare_version>  (99) 
48012

>  <i_f3d_flags>  (99) 
0

>  <s_epik_input>  (99) 
bjFbY0hdc1tjSF1jMS9bQ0hdPUNcMltDSDJdW0NASF0oW0NIMl1bQ0gyXU4oW0NASF0yW0NASF0zNClbQ0gyXU4oW0NIM10pW0NIMl0zKVtDSDJdW0NAQEhdKFtDSDJdNCljNVtjSF1bY0hdbltjSF1bY0hdNQ==

>  <s_epik_cmdline>  (99) 
J2VwaWtfcHl0aG9uJywgJy1waHQnLCAnMi4wJywgJy1waCcsICc3LjAnLCAnLXRuJywgJzgnLCAnLW1hJywgJzIwMCcsICctaW1hZScsICc8aW5maWxlLm1hZT4nLCAnLW9tYWUnLCAnPG91dGZpbGUubWFlPic=

>  <r_epik_Ionization_Penalty>  (99) 
1.39458

>  <r_epik_Ionization_Penalty_Charging>  (99) 
1.39453

>  <r_epik_Ionization_Penalty_Neutral>  (99) 
4.86258e-05

>  <r_epik_State_Penalty>  (99) 
1.5844

>  <r_epik_Charging_Adjusted_Penalty>  (99) 
2.97892

>  <i_epik_Tot_Q>  (99) 
2

>  <i_epik_Tot_abs_Q>  (99) 
2

>  <s_epik_Chemistry_Notes>  (99) 
This compound contains an acetal/aminal-like group ( X-CH(R)-Y where X, Y are N, S, or O) that may be acid/base labile, releasing an aldehyde.

>  <s_lp_Force_Field>  (99) 
OPLS3e

>  <r_lp_Energy>  (99) 
81.0054

>  <b_lp_Chiralities_Consistent>  (99) 
1

>  <s_lp_Variant>  (99) 
26:0-6

>  <s_i_glide_gridfile>  (99) 
pfpi4k_grid

>  <i_i_glide_lignum>  (99) 
1

>  <i_i_glide_rotatable_bonds>  (99) 
2

>  <r_i_docking_score>  (99) 
-3.96399

>  <r_i_glide_ligand_efficiency>  (99) 
-0.146814

>  <r_i_glide_ligand_efficiency_sa>  (99) 
-0.440443

>  <r_i_glide_ligand_efficiency_ln>  (99) 
-0.922751

>  <r_i_glide_gscore>  (99) 
-3.96399

>  <r_i_glide_lipo>  (99) 
-0.654286

>  <r_i_glide_hbond>  (99) 
-0.16

>  <r_i_glide_metal>  (99) 
-0

>  <r_i_glide_rewards>  (99) 
-0.800684

>  <r_i_glide_evdw>  (99) 
-15.7367

>  <r_i_glide_ecoul>  (99) 
-11.2993

>  <r_i_glide_erotb>  (99) 
0.13271

>  <r_i_glide_esite>  (99) 
0

>  <r_i_glide_emodel>  (99) 
-36.1195

>  <r_i_glide_energy>  (99) 
-27.036

>  <r_i_glide_einternal>  (99) 
0.947478

>  <r_i_glide_intrahb_reward>  (99) 
-0

>  <i_i_glide_confnum>  (99) 
3

>  <i_i_glide_posenum>  (99) 
15

>  <r_i_glide_eff_state_penalty>  (99) 
0

>  <ligand_id>  (99) 
26

>  <original_smiles>  (99) 
CN1CC2CC(c3ccncc3)CC3CCN(C1)C2C(=Cc1cscn1)C3

>  <smiles>  (99) 
[H]C(=C1C([H])([H])C2([H])C([H])([H])C([H])(c3c([H])c([H])[n+]([H])c([H])c3[H])C([H])([H])C3([H])C([H])([H])N(C([H])([H])[H])C([H])([H])[N+]([H])(C([H])([H])C2([H])[H])C13[H])c1nc([H])sc1[H]

$$$$
26:5:1
     RDKit          3D

 57 61  0  0  1  0  0  0  0  0999 V2000
   -0.8371   -9.7839    2.4937 C   0  0  0  0  0  0  0  0  0  0  0  0
    0.4550   -9.6517    3.1585 N   0  0  0  0  0  0  0  0  0  0  0  0
    1.5187   -9.4378    2.1615 C   0  0  0  0  0  0  0  0  0  0  0  0
    2.8439   -9.2826    2.9358 C   0  0  2  0  0  0  0  0  0  0  0  0
    4.0372   -8.6764    2.1883 C   0  0  0  0  0  0  0  0  0  0  0  0
    5.1709   -8.1535    3.1240 C   0  0  1  0  0  0  0  0  0  0  0  0
    5.8955   -6.9662    2.4925 C   0  0  0  0  0  0  0  0  0  0  0  0
    7.2450   -7.0823    2.0920 C   0  0  0  0  0  0  0  0  0  0  0  0
    7.8997   -5.9786    1.5163 C   0  0  0  0  0  0  0  0  0  0  0  0
    7.2314   -4.8145    1.3462 N   0  0  0  0  0  0  0  0  0  0  0  0
    5.9420   -4.6538    1.7167 C   0  0  0  0  0  0  0  0  0  0  0  0
    5.2407   -5.7259    2.3036 C   0  0  0  0  0  0  0  0  0  0  0  0
    4.7665   -7.8498    4.6100 C   0  0  0  0  0  0  0  0  0  0  0  0
    4.6730   -9.0481    5.6192 C   0  0  1  0  0  0  0  0  0  0  0  0
    3.3785   -9.2402    6.4548 C   0  0  0  0  0  0  0  0  0  0  0  0
    2.0362   -9.6096    5.7785 C   0  0  0  0  0  0  0  0  0  0  0  0
    2.0329  -10.7086    4.7557 N   0  0  1  0  0  0  0  0  0  0  0  0
    0.6918  -10.7890    4.0839 C   0  0  0  0  0  0  0  0  0  0  0  0
    3.0659  -10.6196    3.6854 C   0  0  2  0  0  0  0  0  0  0  0  0
    4.4926  -11.0831    4.0351 C   0  0  0  0  0  0  0  0  0  0  0  0
    5.0826  -12.0544    3.2968 C   0  0  0  0  0  0  0  0  0  0  0  0
    6.4077  -12.6829    3.4726 C   0  0  0  0  0  0  0  0  0  0  0  0
    7.0325  -12.9988    4.6585 C   0  0  0  0  0  0  0  0  0  0  0  0
    8.5729  -13.7740    4.3669 S   0  0  0  0  0  0  0  0  0  0  0  0
    8.2951  -13.6004    2.6409 C   0  0  0  0  0  0  0  0  0  0  0  0
    7.1510  -12.9964    2.3339 N   0  0  0  0  0  0  0  0  0  0  0  0
    5.2307  -10.4047    5.1770 C   0  0  0  0  0  0  0  0  0  0  0  0
   -1.0305   -8.9101    1.8725 H   0  0  0  0  0  0  0  0  0  0  0  0
   -1.6442   -9.8463    3.2247 H   0  0  0  0  0  0  0  0  0  0  0  0
   -0.8902  -10.6580    1.8425 H   0  0  0  0  0  0  0  0  0  0  0  0
    1.5625  -10.2472    1.4383 H   0  0  0  0  0  0  0  0  0  0  0  0
    1.2944   -8.5237    1.5997 H   0  0  0  0  0  0  0  0  0  0  0  0
    2.5835   -8.4787    3.6098 H   0  0  0  0  0  0  0  0  0  0  0  0
    4.4280   -9.3396    1.4118 H   0  0  0  0  0  0  0  0  0  0  0  0
    3.6185   -7.8276    1.6500 H   0  0  0  0  0  0  0  0  0  0  0  0
    5.9188   -8.9428    3.1491 H   0  0  0  0  0  0  0  0  0  0  0  0
    7.7910   -8.0054    2.2264 H   0  0  0  0  0  0  0  0  0  0  0  0
    8.9319   -6.0017    1.1984 H   0  0  0  0  0  0  0  0  0  0  0  0
    5.5133   -3.6767    1.5386 H   0  0  0  0  0  0  0  0  0  0  0  0
    4.2119   -5.5954    2.6052 H   0  0  0  0  0  0  0  0  0  0  0  0
    5.5549   -7.2107    5.0070 H   0  0  0  0  0  0  0  0  0  0  0  0
    3.8887   -7.2046    4.6785 H   0  0  0  0  0  0  0  0  0  0  0  0
    5.3803   -8.7489    6.3967 H   0  0  0  0  0  0  0  0  0  0  0  0
    3.5809   -9.9851    7.2281 H   0  0  0  0  0  0  0  0  0  0  0  0
    3.2015   -8.3182    7.0103 H   0  0  0  0  0  0  0  0  0  0  0  0
    1.3550   -9.9249    6.5685 H   0  0  0  0  0  0  0  0  0  0  0  0
    1.5781   -8.6992    5.3958 H   0  0  0  0  0  0  0  0  0  0  0  0
   -0.0807  -10.7811    4.8497 H   0  0  0  0  0  0  0  0  0  0  0  0
    0.6055  -11.7402    3.5539 H   0  0  0  0  0  0  0  0  0  0  0  0
    2.7704  -11.3999    2.9851 H   0  0  0  0  0  0  0  0  0  0  0  0
    4.5128  -12.4836    2.4809 H   0  0  0  0  0  0  0  0  0  0  0  0
    6.6809  -12.8803    5.6743 H   0  0  0  0  0  0  0  0  0  0  0  0
    8.9655  -13.9250    1.8537 H   0  0  0  0  0  0  0  0  0  0  0  0
    6.2775  -10.2828    4.9019 H   0  0  0  0  0  0  0  0  0  0  0  0
    5.2388  -11.0761    6.0372 H   0  0  0  0  0  0  0  0  0  0  0  0
    2.1703  -11.5771    5.2594 H   0  0  0  0  0  0  0  0  0  0  0  0
    7.7212   -4.0218    0.9321 H   0  0  0  0  0  0  0  0  0  0  0  0
  1  2  1  0
  1 28  1  0
  1 29  1  0
  1 30  1  0
  2 18  1  0
  2  3  1  0
  3  4  1  0
  3 31  1  0
  3 32  1  0
  4 19  1  0
  4  5  1  0
  4 33  1  1
  5  6  1  0
  5 34  1  0
  5 35  1  0
  6  7  1  0
  6 13  1  0
  6 36  1  1
  7 12  1  0
  7  8  2  0
  8  9  1  0
  8 37  1  0
  9 10  2  0
  9 38  1  0
 10 11  1  0
 10 57  1  0
 11 12  2  0
 11 39  1  0
 12 40  1  0
 13 14  1  0
 13 41  1  0
 13 42  1  0
 14 27  1  0
 14 15  1  0
 14 43  1  1
 15 16  1  0
 15 44  1  0
 15 45  1  0
 16 17  1  0
 16 46  1  0
 16 47  1  0
 17 18  1  0
 17 19  1  0
 17 56  1  1
 18 48  1  0
 18 49  1  0
 19 20  1  0
 19 50  1  6
 20 21  2  3
 20 27  1  0
 21 22  1  0
 21 51  1  0
 22 26  1  0
 22 23  2  0
 23 24  1  0
 23 52  1  0
 24 25  1  0
 25 26  2  0
 25 53  1  0
 27 54  1  0
 27 55  1  0
M  CHG  2  10   1  17   1
M  END
>  <i_m_ct_stereo_status>  (100) 
1

>  <s_m_source_file>  (100) 
/var/tmp/pbs.5076255.sched01/tmpco4mv84g/486h_uxm9x.sdf

>  <i_m_source_file_index>  (100) 
1

>  <i_lp_mmshare_version>  (100) 
48012

>  <i_f3d_flags>  (100) 
0

>  <s_epik_input>  (100) 
bjFbY0hdc1tjSF1jMS9bQ0hdPUNcMltDSDJdW0NASF0oW0NIMl1bQ0gyXU4oW0NASF0yW0NASF0zNClbQ0gyXU4oW0NIM10pW0NIMl0zKVtDSDJdW0NAQEhdKFtDSDJdNCljNVtjSF1bY0hdbltjSF1bY0hdNQ==

>  <s_epik_cmdline>  (100) 
J2VwaWtfcHl0aG9uJywgJy1waHQnLCAnMi4wJywgJy1waCcsICc3LjAnLCAnLXRuJywgJzgnLCAnLW1hJywgJzIwMCcsICctaW1hZScsICc8aW5maWxlLm1hZT4nLCAnLW9tYWUnLCAnPG91dGZpbGUubWFlPic=

>  <r_epik_Ionization_Penalty>  (100) 
1.39458

>  <r_epik_Ionization_Penalty_Charging>  (100) 
1.39453

>  <r_epik_Ionization_Penalty_Neutral>  (100) 
4.86258e-05

>  <r_epik_State_Penalty>  (100) 
1.5844

>  <r_epik_Charging_Adjusted_Penalty>  (100) 
2.97892

>  <i_epik_Tot_Q>  (100) 
2

>  <i_epik_Tot_abs_Q>  (100) 
2

>  <s_epik_Chemistry_Notes>  (100) 
This compound contains an acetal/aminal-like group ( X-CH(R)-Y where X, Y are N, S, or O) that may be acid/base labile, releasing an aldehyde.

>  <s_lp_Force_Field>  (100) 
OPLS3e

>  <r_lp_Energy>  (100) 
81.0054

>  <b_lp_Chiralities_Consistent>  (100) 
1

>  <s_lp_Variant>  (100) 
26:0-6

>  <s_i_glide_gridfile>  (100) 
pfpi4k_grid

>  <i_i_glide_lignum>  (100) 
1

>  <i_i_glide_rotatable_bonds>  (100) 
2

>  <r_i_docking_score>  (100) 
-3.15398

>  <r_i_glide_ligand_efficiency>  (100) 
-0.116814

>  <r_i_glide_ligand_efficiency_sa>  (100) 
-0.350442

>  <r_i_glide_ligand_efficiency_ln>  (100) 
-0.734195

>  <r_i_glide_gscore>  (100) 
-3.15398

>  <r_i_glide_lipo>  (100) 
-0.366053

>  <r_i_glide_hbond>  (100) 
0

>  <r_i_glide_metal>  (100) 
-0

>  <r_i_glide_rewards>  (100) 
-0.800684

>  <r_i_glide_evdw>  (100) 
-21.6593

>  <r_i_glide_ecoul>  (100) 
-6.48321

>  <r_i_glide_erotb>  (100) 
0.13271

>  <r_i_glide_esite>  (100) 
-0.0645079

>  <r_i_glide_emodel>  (100) 
-35.0114

>  <r_i_glide_energy>  (100) 
-28.1425

>  <r_i_glide_einternal>  (100) 
2.15902

>  <r_i_glide_intrahb_reward>  (100) 
-0

>  <i_i_glide_confnum>  (100) 
4

>  <i_i_glide_posenum>  (100) 
3

>  <r_i_glide_eff_state_penalty>  (100) 
0

>  <ligand_id>  (100) 
26

>  <original_smiles>  (100) 
CN1CC2CC(c3ccncc3)CC3CCN(C1)C2C(=Cc1cscn1)C3

>  <smiles>  (100) 
[H]C(=C1C([H])([H])C2([H])C([H])([H])C([H])(c3c([H])c([H])[n+]([H])c([H])c3[H])C([H])([H])C3([H])C([H])([H])N(C([H])([H])[H])C([H])([H])[N+]([H])(C([H])([H])C2([H])[H])C13[H])c1nc([H])sc1[H]

$$$$
26:5:2
     RDKit          3D

 57 61  0  0  1  0  0  0  0  0999 V2000
   -0.8679   -9.7376    2.5029 C   0  0  0  0  0  0  0  0  0  0  0  0
    0.4100   -9.5317    3.1795 N   0  0  0  0  0  0  0  0  0  0  0  0
    1.4830   -9.3720    2.1847 C   0  0  0  0  0  0  0  0  0  0  0  0
    2.7880   -9.1188    2.9628 C   0  0  2  0  0  0  0  0  0  0  0  0
    3.9805   -8.5237    2.1988 C   0  0  0  0  0  0  0  0  0  0  0  0
    5.0843   -7.9094    3.1174 C   0  0  1  0  0  0  0  0  0  0  0  0
    5.7922   -6.7534    2.4150 C   0  0  0  0  0  0  0  0  0  0  0  0
    7.1263   -6.8945    1.9677 C   0  0  0  0  0  0  0  0  0  0  0  0
    7.7639   -5.8150    1.3299 C   0  0  0  0  0  0  0  0  0  0  0  0
    7.0981   -4.6531    1.1459 N   0  0  0  0  0  0  0  0  0  0  0  0
    5.8224   -4.4706    1.5562 C   0  0  0  0  0  0  0  0  0  0  0  0
    5.1376   -5.5177    2.2028 C   0  0  0  0  0  0  0  0  0  0  0  0
    4.6450   -7.5104    4.5713 C   0  0  0  0  0  0  0  0  0  0  0  0
    4.5548   -8.6358    5.6603 C   0  0  1  0  0  0  0  0  0  0  0  0
    3.2559   -8.8014    6.4901 C   0  0  0  0  0  0  0  0  0  0  0  0
    1.9403   -9.2584    5.8140 C   0  0  0  0  0  0  0  0  0  0  0  0
    1.9840  -10.4272    4.8720 N   0  0  1  0  0  0  0  0  0  0  0  0
    0.6552  -10.5875    4.1915 C   0  0  0  0  0  0  0  0  0  0  0  0
    3.0312  -10.3898    3.8093 C   0  0  2  0  0  0  0  0  0  0  0  0
    4.4669  -10.7816    4.2053 C   0  0  0  0  0  0  0  0  0  0  0  0
    5.0846  -11.8102    3.5629 C   0  0  0  0  0  0  0  0  0  0  0  0
    6.4197  -12.4092    3.7904 C   0  0  0  0  0  0  0  0  0  0  0  0
    6.9556  -13.3673    2.9679 C   0  0  0  0  0  0  0  0  0  0  0  0
    8.5494  -13.8613    3.5007 S   0  0  0  0  0  0  0  0  0  0  0  0
    8.4030  -12.7395    4.8438 C   0  0  0  0  0  0  0  0  0  0  0  0
    7.2572  -12.0580    4.8568 N   0  0  0  0  0  0  0  0  0  0  0  0
    5.1523   -9.9986    5.3152 C   0  0  0  0  0  0  0  0  0  0  0  0
   -1.0722   -8.9131    1.8167 H   0  0  0  0  0  0  0  0  0  0  0  0
   -1.6891   -9.7665    3.2226 H   0  0  0  0  0  0  0  0  0  0  0  0
   -0.8878  -10.6553    1.9172 H   0  0  0  0  0  0  0  0  0  0  0  0
    1.5571  -10.2506    1.5399 H   0  0  0  0  0  0  0  0  0  0  0  0
    1.2508   -8.5148    1.5479 H   0  0  0  0  0  0  0  0  0  0  0  0
    2.4982   -8.2774    3.5782 H   0  0  0  0  0  0  0  0  0  0  0  0
    4.4052   -9.2277    1.4797 H   0  0  0  0  0  0  0  0  0  0  0  0
    3.5558   -7.7205    1.5967 H   0  0  0  0  0  0  0  0  0  0  0  0
    5.8530   -8.6734    3.2095 H   0  0  0  0  0  0  0  0  0  0  0  0
    7.6698   -7.8167    2.1147 H   0  0  0  0  0  0  0  0  0  0  0  0
    8.7817   -5.8524    0.9681 H   0  0  0  0  0  0  0  0  0  0  0  0
    5.3929   -3.4983    1.3557 H   0  0  0  0  0  0  0  0  0  0  0  0
    4.1201   -5.3699    2.5342 H   0  0  0  0  0  0  0  0  0  0  0  0
    5.4111   -6.8265    4.9361 H   0  0  0  0  0  0  0  0  0  0  0  0
    3.7505   -6.8874    4.5786 H   0  0  0  0  0  0  0  0  0  0  0  0
    5.2474   -8.2711    6.4260 H   0  0  0  0  0  0  0  0  0  0  0  0
    3.4675   -9.4848    7.3158 H   0  0  0  0  0  0  0  0  0  0  0  0
    3.0510   -7.8466    6.9758 H   0  0  0  0  0  0  0  0  0  0  0  0
    1.2528   -9.5332    6.6139 H   0  0  0  0  0  0  0  0  0  0  0  0
    1.4682   -8.3901    5.3598 H   0  0  0  0  0  0  0  0  0  0  0  0
   -0.1334  -10.5431    4.9423 H   0  0  0  0  0  0  0  0  0  0  0  0
    0.5956  -11.5761    3.7306 H   0  0  0  0  0  0  0  0  0  0  0  0
    2.7614  -11.2269    3.1650 H   0  0  0  0  0  0  0  0  0  0  0  0
    4.5331  -12.2986    2.7685 H   0  0  0  0  0  0  0  0  0  0  0  0
    6.5037  -13.8120    2.0923 H   0  0  0  0  0  0  0  0  0  0  0  0
    9.1543  -12.5826    5.6094 H   0  0  0  0  0  0  0  0  0  0  0  0
    6.1942   -9.8179    5.0573 H   0  0  0  0  0  0  0  0  0  0  0  0
    5.1794  -10.6221    6.2119 H   0  0  0  0  0  0  0  0  0  0  0  0
    2.1327  -11.2534    5.4410 H   0  0  0  0  0  0  0  0  0  0  0  0
    7.5749   -3.8807    0.6821 H   0  0  0  0  0  0  0  0  0  0  0  0
  1  2  1  0
  1 28  1  0
  1 29  1  0
  1 30  1  0
  2 18  1  0
  2  3  1  0
  3  4  1  0
  3 31  1  0
  3 32  1  0
  4 19  1  0
  4  5  1  0
  4 33  1  1
  5  6  1  0
  5 34  1  0
  5 35  1  0
  6  7  1  0
  6 13  1  0
  6 36  1  1
  7 12  1  0
  7  8  2  0
  8  9  1  0
  8 37  1  0
  9 10  2  0
  9 38  1  0
 10 11  1  0
 10 57  1  0
 11 12  2  0
 11 39  1  0
 12 40  1  0
 13 14  1  0
 13 41  1  0
 13 42  1  0
 14 27  1  0
 14 15  1  0
 14 43  1  1
 15 16  1  0
 15 44  1  0
 15 45  1  0
 16 17  1  0
 16 46  1  0
 16 47  1  0
 17 18  1  0
 17 19  1  0
 17 56  1  1
 18 48  1  0
 18 49  1  0
 19 20  1  0
 19 50  1  6
 20 21  2  3
 20 27  1  0
 21 22  1  0
 21 51  1  0
 22 26  1  0
 22 23  2  0
 23 24  1  0
 23 52  1  0
 24 25  1  0
 25 26  2  0
 25 53  1  0
 27 54  1  0
 27 55  1  0
M  CHG  2  10   1  17   1
M  END
>  <i_m_ct_stereo_status>  (101) 
1

>  <s_m_source_file>  (101) 
/var/tmp/pbs.5076255.sched01/tmpco4mv84g/486h_uxm9x.sdf

>  <i_m_source_file_index>  (101) 
1

>  <i_lp_mmshare_version>  (101) 
48012

>  <i_f3d_flags>  (101) 
0

>  <s_epik_input>  (101) 
bjFbY0hdc1tjSF1jMS9bQ0hdPUNcMltDSDJdW0NASF0oW0NIMl1bQ0gyXU4oW0NASF0yW0NASF0zNClbQ0gyXU4oW0NIM10pW0NIMl0zKVtDSDJdW0NAQEhdKFtDSDJdNCljNVtjSF1bY0hdbltjSF1bY0hdNQ==

>  <s_epik_cmdline>  (101) 
J2VwaWtfcHl0aG9uJywgJy1waHQnLCAnMi4wJywgJy1waCcsICc3LjAnLCAnLXRuJywgJzgnLCAnLW1hJywgJzIwMCcsICctaW1hZScsICc8aW5maWxlLm1hZT4nLCAnLW9tYWUnLCAnPG91dGZpbGUubWFlPic=

>  <r_epik_Ionization_Penalty>  (101) 
1.39458

>  <r_epik_Ionization_Penalty_Charging>  (101) 
1.39453

>  <r_epik_Ionization_Penalty_Neutral>  (101) 
4.86258e-05

>  <r_epik_State_Penalty>  (101) 
1.5844

>  <r_epik_Charging_Adjusted_Penalty>  (101) 
2.97892

>  <i_epik_Tot_Q>  (101) 
2

>  <i_epik_Tot_abs_Q>  (101) 
2

>  <s_epik_Chemistry_Notes>  (101) 
This compound contains an acetal/aminal-like group ( X-CH(R)-Y where X, Y are N, S, or O) that may be acid/base labile, releasing an aldehyde.

>  <s_lp_Force_Field>  (101) 
OPLS3e

>  <r_lp_Energy>  (101) 
81.0054

>  <b_lp_Chiralities_Consistent>  (101) 
1

>  <s_lp_Variant>  (101) 
26:0-6

>  <s_i_glide_gridfile>  (101) 
pfpi4k_grid

>  <i_i_glide_lignum>  (101) 
1

>  <i_i_glide_rotatable_bonds>  (101) 
2

>  <r_i_docking_score>  (101) 
-3.08661

>  <r_i_glide_ligand_efficiency>  (101) 
-0.114319

>  <r_i_glide_ligand_efficiency_sa>  (101) 
-0.342957

>  <r_i_glide_ligand_efficiency_ln>  (101) 
-0.718513

>  <r_i_glide_gscore>  (101) 
-3.08661

>  <r_i_glide_lipo>  (101) 
-0.391759

>  <r_i_glide_hbond>  (101) 
0

>  <r_i_glide_metal>  (101) 
-0

>  <r_i_glide_rewards>  (101) 
-0.800684

>  <r_i_glide_evdw>  (101) 
-21.0534

>  <r_i_glide_ecoul>  (101) 
-5.94079

>  <r_i_glide_erotb>  (101) 
0.13271

>  <r_i_glide_esite>  (101) 
-0.0830924

>  <r_i_glide_emodel>  (101) 
-34.8028

>  <r_i_glide_energy>  (101) 
-26.9942

>  <r_i_glide_einternal>  (101) 
0.0859667

>  <r_i_glide_intrahb_reward>  (101) 
-0

>  <i_i_glide_confnum>  (101) 
4

>  <i_i_glide_posenum>  (101) 
9

>  <r_i_glide_eff_state_penalty>  (101) 
0

>  <ligand_id>  (101) 
26

>  <original_smiles>  (101) 
CN1CC2CC(c3ccncc3)CC3CCN(C1)C2C(=Cc1cscn1)C3

>  <smiles>  (101) 
[H]C(=C1C([H])([H])C2([H])C([H])([H])C([H])(c3c([H])c([H])[n+]([H])c([H])c3[H])C([H])([H])C3([H])C([H])([H])N(C([H])([H])[H])C([H])([H])[N+]([H])(C([H])([H])C2([H])[H])C13[H])c1nc([H])sc1[H]

$$$$
26:6:0
     RDKit          3D

 57 61  0  0  1  0  0  0  0  0999 V2000
    2.6809   -2.8024   -2.7886 C   0  0  0  0  0  0  0  0  0  0  0  0
    3.2581   -3.5049   -1.6179 N   0  0  2  0  0  0  0  0  0  0  0  0
    2.2088   -3.9242   -0.6531 C   0  0  0  0  0  0  0  0  0  0  0  0
    2.8570   -4.6280    0.5513 C   0  0  2  0  0  0  0  0  0  0  0  0
    1.9068   -5.3798    1.5145 C   0  0  0  0  0  0  0  0  0  0  0  0
    2.5920   -6.3839    2.4882 C   0  0  1  0  0  0  0  0  0  0  0  0
    1.6013   -7.4748    2.9038 C   0  0  0  0  0  0  0  0  0  0  0  0
    0.8240   -7.3310    4.0742 C   0  0  0  0  0  0  0  0  0  0  0  0
   -0.0786   -8.3596    4.4424 C   0  0  0  0  0  0  0  0  0  0  0  0
   -0.1900   -9.4587    3.6773 N   0  0  0  0  0  0  0  0  0  0  0  0
    0.5244   -9.6400    2.5466 C   0  0  0  0  0  0  0  0  0  0  0  0
    1.4363   -8.6453    2.1275 C   0  0  0  0  0  0  0  0  0  0  0  0
    3.9548   -6.9852    2.0115 C   0  0  0  0  0  0  0  0  0  0  0  0
    5.2403   -6.0869    1.9918 C   0  0  1  0  0  0  0  0  0  0  0  0
    5.8237   -5.7396    0.5814 C   0  0  0  0  0  0  0  0  0  0  0  0
    6.0585   -4.2379    0.2464 C   0  0  0  0  0  0  0  0  0  0  0  0
    4.8849   -3.3623    0.2490 N   0  0  0  0  0  0  0  0  0  0  0  0
    4.4039   -2.7711   -1.0126 C   0  0  0  0  0  0  0  0  0  0  0  0
    3.8134   -3.5869    1.2033 C   0  0  2  0  0  0  0  0  0  0  0  0
    4.2283   -3.8004    2.6648 C   0  0  0  0  0  0  0  0  0  0  0  0
    3.7329   -3.0921    3.7001 C   0  0  0  0  0  0  0  0  0  0  0  0
    2.7054   -2.0152    3.7726 C   0  0  0  0  0  0  0  0  0  0  0  0
    1.8888   -1.4906    2.7969 C   0  0  0  0  0  0  0  0  0  0  0  0
    0.8708   -0.2114    3.4054 S   0  0  0  0  0  0  0  0  0  0  0  0
    1.5612   -0.4818    4.9985 C   0  0  0  0  0  0  0  0  0  0  0  0
    2.4892   -1.4414    5.0343 N   0  0  0  0  0  0  0  0  0  0  0  0
    5.2395   -4.9020    2.9675 C   0  0  0  0  0  0  0  0  0  0  0  0
    2.2149   -1.8593   -2.4965 H   0  0  0  0  0  0  0  0  0  0  0  0
    1.9194   -3.4151   -3.2763 H   0  0  0  0  0  0  0  0  0  0  0  0
    3.4525   -2.5850   -3.5274 H   0  0  0  0  0  0  0  0  0  0  0  0
    1.6369   -3.0543   -0.3485 H   0  0  0  0  0  0  0  0  0  0  0  0
    1.5300   -4.6090   -1.1612 H   0  0  0  0  0  0  0  0  0  0  0  0
    3.3949   -5.4343    0.0643 H   0  0  0  0  0  0  0  0  0  0  0  0
    1.3044   -4.6757    2.0907 H   0  0  0  0  0  0  0  0  0  0  0  0
    1.2102   -5.9432    0.8937 H   0  0  0  0  0  0  0  0  0  0  0  0
    2.7911   -5.8488    3.4158 H   0  0  0  0  0  0  0  0  0  0  0  0
    0.9205   -6.4566    4.7010 H   0  0  0  0  0  0  0  0  0  0  0  0
   -0.7050   -8.3409    5.3225 H   0  0  0  0  0  0  0  0  0  0  0  0
    0.3486  -10.5553    2.0007 H   0  0  0  0  0  0  0  0  0  0  0  0
    1.9965   -8.8039    1.2201 H   0  0  0  0  0  0  0  0  0  0  0  0
    4.1802   -7.7829    2.7184 H   0  0  0  0  0  0  0  0  0  0  0  0
    3.8444   -7.4943    1.0539 H   0  0  0  0  0  0  0  0  0  0  0  0
    6.0058   -6.7510    2.4050 H   0  0  0  0  0  0  0  0  0  0  0  0
    6.8183   -6.1873    0.5434 H   0  0  0  0  0  0  0  0  0  0  0  0
    5.2866   -6.2487   -0.2221 H   0  0  0  0  0  0  0  0  0  0  0  0
    6.7633   -3.8133    0.9665 H   0  0  0  0  0  0  0  0  0  0  0  0
    6.5484   -4.1578   -0.7243 H   0  0  0  0  0  0  0  0  0  0  0  0
    5.2110   -2.6761   -1.7335 H   0  0  0  0  0  0  0  0  0  0  0  0
    4.0573   -1.7608   -0.7932 H   0  0  0  0  0  0  0  0  0  0  0  0
    3.3595   -2.6148    1.1804 H   0  0  0  0  0  0  0  0  0  0  0  0
    4.1424   -3.3620    4.6635 H   0  0  0  0  0  0  0  0  0  0  0  0
    1.7698   -1.7216    1.7484 H   0  0  0  0  0  0  0  0  0  0  0  0
    1.2743    0.0659    5.8908 H   0  0  0  0  0  0  0  0  0  0  0  0
    5.0698   -5.2845    3.9720 H   0  0  0  0  0  0  0  0  0  0  0  0
    6.2222   -4.4467    3.0007 H   0  0  0  0  0  0  0  0  0  0  0  0
    3.6223   -4.3786   -1.9768 H   0  0  0  0  0  0  0  0  0  0  0  0
   -0.8547  -10.1913    3.9831 H   0  0  0  0  0  0  0  0  0  0  0  0
  1  2  1  0
  1 28  1  0
  1 29  1  0
  1 30  1  0
  2 18  1  0
  2  3  1  0
  2 56  1  6
  3  4  1  0
  3 31  1  0
  3 32  1  0
  4 19  1  0
  4  5  1  0
  4 33  1  6
  5  6  1  0
  5 34  1  0
  5 35  1  0
  6  7  1  0
  6 13  1  0
  6 36  1  1
  7 12  1  0
  7  8  2  0
  8  9  1  0
  8 37  1  0
  9 10  2  0
  9 38  1  0
 10 11  1  0
 10 57  1  0
 11 12  2  0
 11 39  1  0
 12 40  1  0
 13 14  1  0
 13 41  1  0
 13 42  1  0
 14 27  1  0
 14 15  1  0
 14 43  1  1
 15 16  1  0
 15 44  1  0
 15 45  1  0
 16 17  1  0
 16 46  1  0
 16 47  1  0
 17 18  1  0
 17 19  1  0
 18 48  1  0
 18 49  1  0
 19 20  1  0
 19 50  1  1
 20 21  2  3
 20 27  1  0
 21 22  1  0
 21 51  1  0
 22 26  1  0
 22 23  2  0
 23 24  1  0
 23 52  1  0
 24 25  1  0
 25 26  2  0
 25 53  1  0
 27 54  1  0
 27 55  1  0
M  CHG  2   2   1  10   1
M  END
>  <i_m_ct_stereo_status>  (102) 
1

>  <s_m_source_file>  (102) 
/var/tmp/pbs.5076255.sched01/tmpco4mv84g/486h_uxm9x.sdf

>  <i_m_source_file_index>  (102) 
2

>  <i_lp_mmshare_version>  (102) 
48012

>  <i_f3d_flags>  (102) 
0

>  <s_epik_input>  (102) 
bjFbY0hdc1tjSF1jMS9bQ0hdPUNcMltDSDJdW0NASF0oW0NIMl1bQ0gyXU4oW0NASF0yW0NASF0zNClbQ0gyXU4oW0NIM10pW0NIMl0zKVtDSDJdW0NAQEhdKFtDSDJdNCljNVtjSF1bY0hdbltjSF1bY0hdNQ==

>  <s_epik_cmdline>  (102) 
J2VwaWtfcHl0aG9uJywgJy1waHQnLCAnMi4wJywgJy1waCcsICc3LjAnLCAnLXRuJywgJzgnLCAnLW1hJywgJzIwMCcsICctaW1hZScsICc8aW5maWxlLm1hZT4nLCAnLW9tYWUnLCAnPG91dGZpbGUubWFlPic=

>  <r_epik_Ionization_Penalty>  (102) 
1.24108

>  <r_epik_Ionization_Penalty_Charging>  (102) 
1.23813

>  <r_epik_Ionization_Penalty_Neutral>  (102) 
0.00295107

>  <r_epik_State_Penalty>  (102) 
2.33412

>  <r_epik_Charging_Adjusted_Penalty>  (102) 
3.57225

>  <i_epik_Tot_Q>  (102) 
2

>  <i_epik_Tot_abs_Q>  (102) 
2

>  <s_epik_Chemistry_Notes>  (102) 
This compound contains an acetal/aminal-like group ( X-CH(R)-Y where X, Y are N, S, or O) that may be acid/base labile, releasing an aldehyde.

>  <s_lp_Force_Field>  (102) 
OPLS3e

>  <r_lp_Energy>  (102) 
71.7634

>  <b_lp_Chiralities_Consistent>  (102) 
1

>  <s_lp_Variant>  (102) 
26:0-7

>  <s_i_glide_gridfile>  (102) 
pfpi4k_grid

>  <i_i_glide_lignum>  (102) 
2

>  <i_i_glide_rotatable_bonds>  (102) 
2

>  <r_i_docking_score>  (102) 
-3.60641

>  <r_i_glide_ligand_efficiency>  (102) 
-0.133571

>  <r_i_glide_ligand_efficiency_sa>  (102) 
-0.400712

>  <r_i_glide_ligand_efficiency_ln>  (102) 
-0.839513

>  <r_i_glide_gscore>  (102) 
-3.60641

>  <r_i_glide_lipo>  (102) 
-0.28495

>  <r_i_glide_hbond>  (102) 
-0.2

>  <r_i_glide_metal>  (102) 
-0

>  <r_i_glide_rewards>  (102) 
-0.800684

>  <r_i_glide_evdw>  (102) 
-22.2913

>  <r_i_glide_ecoul>  (102) 
-8.4652

>  <r_i_glide_erotb>  (102) 
0.13271

>  <r_i_glide_esite>  (102) 
-0.0691406

>  <r_i_glide_emodel>  (102) 
-39.0784

>  <r_i_glide_energy>  (102) 
-30.7565

>  <r_i_glide_einternal>  (102) 
0.197541

>  <r_i_glide_intrahb_reward>  (102) 
-0

>  <i_i_glide_confnum>  (102) 
3

>  <i_i_glide_posenum>  (102) 
25

>  <r_i_glide_eff_state_penalty>  (102) 
0

>  <ligand_id>  (102) 
26

>  <original_smiles>  (102) 
CN1CC2CC(c3ccncc3)CC3CCN(C1)C2C(=Cc1cscn1)C3

>  <smiles>  (102) 
[H]C(=C1C([H])([H])C2([H])C([H])([H])C([H])([H])N3C1([H])C([H])(C([H])([H])C([H])(c1c([H])c([H])[n+]([H])c([H])c1[H])C2([H])[H])C([H])([H])[N+]([H])(C([H])([H])[H])C3([H])[H])c1nc([H])sc1[H]

$$$$
26:6:1
     RDKit          3D

 57 61  0  0  1  0  0  0  0  0999 V2000
    2.6883   -2.7957   -2.7389 C   0  0  0  0  0  0  0  0  0  0  0  0
    3.2619   -3.5003   -1.5648 N   0  0  2  0  0  0  0  0  0  0  0  0
    2.2092   -3.9252   -0.6055 C   0  0  0  0  0  0  0  0  0  0  0  0
    2.8514   -4.6198    0.6092 C   0  0  2  0  0  0  0  0  0  0  0  0
    1.8990   -5.3783    1.5607 C   0  0  0  0  0  0  0  0  0  0  0  0
    2.5843   -6.3798    2.5361 C   0  0  1  0  0  0  0  0  0  0  0  0
    1.5978   -7.4758    2.9421 C   0  0  0  0  0  0  0  0  0  0  0  0
    0.8433   -7.3577    4.1306 C   0  0  0  0  0  0  0  0  0  0  0  0
   -0.0552   -8.3873    4.4902 C   0  0  0  0  0  0  0  0  0  0  0  0
   -0.1904   -9.4703    3.6979 N   0  0  0  0  0  0  0  0  0  0  0  0
    0.5053   -9.6240    2.5513 C   0  0  0  0  0  0  0  0  0  0  0  0
    1.4128   -8.6262    2.1417 C   0  0  0  0  0  0  0  0  0  0  0  0
    3.9523   -6.9722    2.0655 C   0  0  0  0  0  0  0  0  0  0  0  0
    5.2305   -6.0645    2.0512 C   0  0  1  0  0  0  0  0  0  0  0  0
    5.8194   -5.7163    0.6483 C   0  0  0  0  0  0  0  0  0  0  0  0
    6.0391   -4.2108    0.3195 C   0  0  0  0  0  0  0  0  0  0  0  0
    4.8646   -3.3318    0.3246 N   0  0  0  0  0  0  0  0  0  0  0  0
    4.3949   -2.7512   -0.9454 C   0  0  0  0  0  0  0  0  0  0  0  0
    3.7834   -3.5664    1.2749 C   0  0  2  0  0  0  0  0  0  0  0  0
    4.2062   -3.7844    2.7441 C   0  0  0  0  0  0  0  0  0  0  0  0
    3.7064   -3.0980    3.8059 C   0  0  0  0  0  0  0  0  0  0  0  0
    2.6709   -2.0456    3.8830 C   0  0  0  0  0  0  0  0  0  0  0  0
    2.2075   -1.5311    5.0699 C   0  0  0  0  0  0  0  0  0  0  0  0
    0.9573   -0.3281    4.8044 S   0  0  0  0  0  0  0  0  0  0  0  0
    1.1281   -0.5863    3.0778 C   0  0  0  0  0  0  0  0  0  0  0  0
    2.0234   -1.5167    2.7663 N   0  0  0  0  0  0  0  0  0  0  0  0
    5.2272   -4.8777    3.0310 C   0  0  0  0  0  0  0  0  0  0  0  0
    2.2171   -1.8539   -2.4443 H   0  0  0  0  0  0  0  0  0  0  0  0
    1.9309   -3.4113   -3.2330 H   0  0  0  0  0  0  0  0  0  0  0  0
    3.4649   -2.5725   -3.4731 H   0  0  0  0  0  0  0  0  0  0  0  0
    1.6303   -3.0570   -0.3085 H   0  0  0  0  0  0  0  0  0  0  0  0
    1.5365   -4.6130   -1.1183 H   0  0  0  0  0  0  0  0  0  0  0  0
    3.4093   -5.4134    0.1274 H   0  0  0  0  0  0  0  0  0  0  0  0
    1.2884   -4.6766    2.1315 H   0  0  0  0  0  0  0  0  0  0  0  0
    1.2116   -5.9415    0.9292 H   0  0  0  0  0  0  0  0  0  0  0  0
    2.7791   -5.8420    3.4617 H   0  0  0  0  0  0  0  0  0  0  0  0
    0.9562   -6.4991    4.7760 H   0  0  0  0  0  0  0  0  0  0  0  0
   -0.6640   -8.3894    5.3822 H   0  0  0  0  0  0  0  0  0  0  0  0
    0.3129  -10.5281    1.9891 H   0  0  0  0  0  0  0  0  0  0  0  0
    1.9583   -8.7628    1.2213 H   0  0  0  0  0  0  0  0  0  0  0  0
    4.1782   -7.7703    2.7709 H   0  0  0  0  0  0  0  0  0  0  0  0
    3.8496   -7.4829    1.1088 H   0  0  0  0  0  0  0  0  0  0  0  0
    5.9960   -6.7229    2.4690 H   0  0  0  0  0  0  0  0  0  0  0  0
    6.8168   -6.1538    0.6145 H   0  0  0  0  0  0  0  0  0  0  0  0
    5.2969   -6.2333   -0.1570 H   0  0  0  0  0  0  0  0  0  0  0  0
    6.7432   -3.7856    1.0397 H   0  0  0  0  0  0  0  0  0  0  0  0
    6.5351   -4.1258   -0.6485 H   0  0  0  0  0  0  0  0  0  0  0  0
    5.2088   -2.6578   -1.6611 H   0  0  0  0  0  0  0  0  0  0  0  0
    4.0395   -1.7409   -0.7389 H   0  0  0  0  0  0  0  0  0  0  0  0
    3.2642   -2.6232    1.2174 H   0  0  0  0  0  0  0  0  0  0  0  0
    4.1262   -3.3655    4.7655 H   0  0  0  0  0  0  0  0  0  0  0  0
    2.5213   -1.7836    6.0774 H   0  0  0  0  0  0  0  0  0  0  0  0
    0.5739   -0.0832    2.2949 H   0  0  0  0  0  0  0  0  0  0  0  0
    5.0560   -5.2681    4.0323 H   0  0  0  0  0  0  0  0  0  0  0  0
    6.2152   -4.4243    3.0696 H   0  0  0  0  0  0  0  0  0  0  0  0
    3.6380   -4.3704   -1.9258 H   0  0  0  0  0  0  0  0  0  0  0  0
   -0.8512  -10.2011    3.9981 H   0  0  0  0  0  0  0  0  0  0  0  0
  1  2  1  0
  1 28  1  0
  1 29  1  0
  1 30  1  0
  2 18  1  0
  2  3  1  0
  2 56  1  6
  3  4  1  0
  3 31  1  0
  3 32  1  0
  4 19  1  0
  4  5  1  0
  4 33  1  6
  5  6  1  0
  5 34  1  0
  5 35  1  0
  6  7  1  0
  6 13  1  0
  6 36  1  1
  7 12  1  0
  7  8  2  0
  8  9  1  0
  8 37  1  0
  9 10  2  0
  9 38  1  0
 10 11  1  0
 10 57  1  0
 11 12  2  0
 11 39  1  0
 12 40  1  0
 13 14  1  0
 13 41  1  0
 13 42  1  0
 14 27  1  0
 14 15  1  0
 14 43  1  1
 15 16  1  0
 15 44  1  0
 15 45  1  0
 16 17  1  0
 16 46  1  0
 16 47  1  0
 17 18  1  0
 17 19  1  0
 18 48  1  0
 18 49  1  0
 19 20  1  0
 19 50  1  1
 20 21  2  3
 20 27  1  0
 21 22  1  0
 21 51  1  0
 22 26  1  0
 22 23  2  0
 23 24  1  0
 23 52  1  0
 24 25  1  0
 25 26  2  0
 25 53  1  0
 27 54  1  0
 27 55  1  0
M  CHG  2   2   1  10   1
M  END
>  <i_m_ct_stereo_status>  (103) 
1

>  <s_m_source_file>  (103) 
/var/tmp/pbs.5076255.sched01/tmpco4mv84g/486h_uxm9x.sdf

>  <i_m_source_file_index>  (103) 
2

>  <i_lp_mmshare_version>  (103) 
48012

>  <i_f3d_flags>  (103) 
0

>  <s_epik_input>  (103) 
bjFbY0hdc1tjSF1jMS9bQ0hdPUNcMltDSDJdW0NASF0oW0NIMl1bQ0gyXU4oW0NASF0yW0NASF0zNClbQ0gyXU4oW0NIM10pW0NIMl0zKVtDSDJdW0NAQEhdKFtDSDJdNCljNVtjSF1bY0hdbltjSF1bY0hdNQ==

>  <s_epik_cmdline>  (103) 
J2VwaWtfcHl0aG9uJywgJy1waHQnLCAnMi4wJywgJy1waCcsICc3LjAnLCAnLXRuJywgJzgnLCAnLW1hJywgJzIwMCcsICctaW1hZScsICc8aW5maWxlLm1hZT4nLCAnLW9tYWUnLCAnPG91dGZpbGUubWFlPic=

>  <r_epik_Ionization_Penalty>  (103) 
1.24108

>  <r_epik_Ionization_Penalty_Charging>  (103) 
1.23813

>  <r_epik_Ionization_Penalty_Neutral>  (103) 
0.00295107

>  <r_epik_State_Penalty>  (103) 
2.33412

>  <r_epik_Charging_Adjusted_Penalty>  (103) 
3.57225

>  <i_epik_Tot_Q>  (103) 
2

>  <i_epik_Tot_abs_Q>  (103) 
2

>  <s_epik_Chemistry_Notes>  (103) 
This compound contains an acetal/aminal-like group ( X-CH(R)-Y where X, Y are N, S, or O) that may be acid/base labile, releasing an aldehyde.

>  <s_lp_Force_Field>  (103) 
OPLS3e

>  <r_lp_Energy>  (103) 
71.7634

>  <b_lp_Chiralities_Consistent>  (103) 
1

>  <s_lp_Variant>  (103) 
26:0-7

>  <s_i_glide_gridfile>  (103) 
pfpi4k_grid

>  <i_i_glide_lignum>  (103) 
2

>  <i_i_glide_rotatable_bonds>  (103) 
2

>  <r_i_docking_score>  (103) 
-3.4419

>  <r_i_glide_ligand_efficiency>  (103) 
-0.127478

>  <r_i_glide_ligand_efficiency_sa>  (103) 
-0.382434

>  <r_i_glide_ligand_efficiency_ln>  (103) 
-0.801219

>  <r_i_glide_gscore>  (103) 
-3.4419

>  <r_i_glide_lipo>  (103) 
-0.27202

>  <r_i_glide_hbond>  (103) 
-0.2

>  <r_i_glide_metal>  (103) 
-0

>  <r_i_glide_rewards>  (103) 
-0.800684

>  <r_i_glide_evdw>  (103) 
-21.866

>  <r_i_glide_ecoul>  (103) 
-7.59189

>  <r_i_glide_erotb>  (103) 
0.13271

>  <r_i_glide_esite>  (103) 
-0.0698287

>  <r_i_glide_emodel>  (103) 
-37.6021

>  <r_i_glide_energy>  (103) 
-29.4579

>  <r_i_glide_einternal>  (103) 
0.16538

>  <r_i_glide_intrahb_reward>  (103) 
-0

>  <i_i_glide_confnum>  (103) 
3

>  <i_i_glide_posenum>  (103) 
24

>  <r_i_glide_eff_state_penalty>  (103) 
0

>  <ligand_id>  (103) 
26

>  <original_smiles>  (103) 
CN1CC2CC(c3ccncc3)CC3CCN(C1)C2C(=Cc1cscn1)C3

>  <smiles>  (103) 
[H]C(=C1C([H])([H])C2([H])C([H])([H])C([H])([H])N3C1([H])C([H])(C([H])([H])C([H])(c1c([H])c([H])[n+]([H])c([H])c1[H])C2([H])[H])C([H])([H])[N+]([H])(C([H])([H])[H])C3([H])[H])c1nc([H])sc1[H]

$$$$
26:6:2
     RDKit          3D

 57 61  0  0  1  0  0  0  0  0999 V2000
    2.3225   -7.2961    1.9891 C   0  0  0  0  0  0  0  0  0  0  0  0
    2.9333   -5.9676    2.2603 N   0  0  2  0  0  0  0  0  0  0  0  0
    2.0431   -4.8513    1.8299 C   0  0  0  0  0  0  0  0  0  0  0  0
    2.7399   -3.5067    2.0854 C   0  0  2  0  0  0  0  0  0  0  0  0
    1.8598   -2.2455    1.9816 C   0  0  0  0  0  0  0  0  0  0  0  0
    2.4618   -0.9521    2.6075 C   0  0  1  0  0  0  0  0  0  0  0  0
    1.3370   -0.0013    3.0222 C   0  0  0  0  0  0  0  0  0  0  0  0
    0.7484    0.8649    2.0767 C   0  0  0  0  0  0  0  0  0  0  0  0
   -0.2768    1.7425    2.4772 C   0  0  0  0  0  0  0  0  0  0  0  0
   -0.7002    1.7433    3.7583 N   0  0  0  0  0  0  0  0  0  0  0  0
   -0.1734    0.9315    4.6982 C   0  0  0  0  0  0  0  0  0  0  0  0
    0.8541    0.0325    4.3542 C   0  0  0  0  0  0  0  0  0  0  0  0
    3.5033   -1.1649    3.7565 C   0  0  0  0  0  0  0  0  0  0  0  0
    4.9367   -1.7059    3.4338 C   0  0  1  0  0  0  0  0  0  0  0  0
    5.2579   -3.1444    3.9608 C   0  0  0  0  0  0  0  0  0  0  0  0
    5.7687   -4.1897    2.9253 C   0  0  0  0  0  0  0  0  0  0  0  0
    4.8923   -4.5264    1.8097 N   0  0  0  0  0  0  0  0  0  0  0  0
    4.3238   -5.8795    1.7239 C   0  0  0  0  0  0  0  0  0  0  0  0
    4.0354   -3.5104    1.2252 C   0  0  2  0  0  0  0  0  0  0  0  0
    4.6956   -2.1623    0.8942 C   0  0  0  0  0  0  0  0  0  0  0  0
    4.6218   -1.5670   -0.3160 C   0  0  0  0  0  0  0  0  0  0  0  0
    3.9491   -1.9527   -1.5850 C   0  0  0  0  0  0  0  0  0  0  0  0
    3.1452   -3.0375   -1.8756 C   0  0  0  0  0  0  0  0  0  0  0  0
    2.6157   -3.0304   -3.5340 S   0  0  0  0  0  0  0  0  0  0  0  0
    3.4654   -1.5162   -3.7613 C   0  0  0  0  0  0  0  0  0  0  0  0
    4.1336   -1.1027   -2.6801 N   0  0  0  0  0  0  0  0  0  0  0  0
    5.4455   -1.4328    2.0093 C   0  0  0  0  0  0  0  0  0  0  0  0
    2.1870   -7.4563    0.9184 H   0  0  0  0  0  0  0  0  0  0  0  0
    1.3450   -7.3833    2.4657 H   0  0  0  0  0  0  0  0  0  0  0  0
    2.9551   -8.0974    2.3718 H   0  0  0  0  0  0  0  0  0  0  0  0
    1.7890   -4.9695    0.7746 H   0  0  0  0  0  0  0  0  0  0  0  0
    1.1238   -4.9142    2.4132 H   0  0  0  0  0  0  0  0  0  0  0  0
    2.9416   -3.5739    3.1487 H   0  0  0  0  0  0  0  0  0  0  0  0
    1.5838   -2.0609    0.9437 H   0  0  0  0  0  0  0  0  0  0  0  0
    0.9276   -2.4609    2.5044 H   0  0  0  0  0  0  0  0  0  0  0  0
    2.9711   -0.4097    1.8105 H   0  0  0  0  0  0  0  0  0  0  0  0
    1.0681    0.8621    1.0409 H   0  0  0  0  0  0  0  0  0  0  0  0
   -0.7606    2.4447    1.8099 H   0  0  0  0  0  0  0  0  0  0  0  0
   -0.5750    1.0248    5.6960 H   0  0  0  0  0  0  0  0  0  0  0  0
    1.2633   -0.6067    5.1182 H   0  0  0  0  0  0  0  0  0  0  0  0
    3.6674   -0.1781    4.1876 H   0  0  0  0  0  0  0  0  0  0  0  0
    3.0714   -1.7523    4.5669 H   0  0  0  0  0  0  0  0  0  0  0  0
    5.5774   -1.0726    4.0540 H   0  0  0  0  0  0  0  0  0  0  0  0
    6.0656   -3.0389    4.6848 H   0  0  0  0  0  0  0  0  0  0  0  0
    4.4522   -3.5516    4.5731 H   0  0  0  0  0  0  0  0  0  0  0  0
    6.6624   -3.8065    2.4387 H   0  0  0  0  0  0  0  0  0  0  0  0
    6.0739   -5.1039    3.4424 H   0  0  0  0  0  0  0  0  0  0  0  0
    4.9641   -6.6079    2.2197 H   0  0  0  0  0  0  0  0  0  0  0  0
    4.2933   -6.1569    0.6701 H   0  0  0  0  0  0  0  0  0  0  0  0
    3.8375   -3.9647    0.2758 H   0  0  0  0  0  0  0  0  0  0  0  0
    5.1355   -0.6167   -0.3768 H   0  0  0  0  0  0  0  0  0  0  0  0
    2.7883   -3.8545   -1.2745 H   0  0  0  0  0  0  0  0  0  0  0  0
    3.4814   -0.9584   -4.6902 H   0  0  0  0  0  0  0  0  0  0  0  0
    5.3940   -0.3582    1.8321 H   0  0  0  0  0  0  0  0  0  0  0  0
    6.5041   -1.6783    1.9367 H   0  0  0  0  0  0  0  0  0  0  0  0
    3.0226   -5.8890    3.2648 H   0  0  0  0  0  0  0  0  0  0  0  0
   -1.4447    2.3895    4.0237 H   0  0  0  0  0  0  0  0  0  0  0  0
  1  2  1  0
  1 28  1  0
  1 29  1  0
  1 30  1  0
  2 18  1  0
  2  3  1  0
  2 56  1  1
  3  4  1  0
  3 31  1  0
  3 32  1  0
  4 19  1  0
  4  5  1  0
  4 33  1  1
  5  6  1  0
  5 34  1  0
  5 35  1  0
  6  7  1  0
  6 13  1  0
  6 36  1  6
  7 12  1  0
  7  8  2  0
  8  9  1  0
  8 37  1  0
  9 10  2  0
  9 38  1  0
 10 11  1  0
 10 57  1  0
 11 12  2  0
 11 39  1  0
 12 40  1  0
 13 14  1  0
 13 41  1  0
 13 42  1  0
 14 27  1  0
 14 15  1  0
 14 43  1  1
 15 16  1  0
 15 44  1  0
 15 45  1  0
 16 17  1  0
 16 46  1  0
 16 47  1  0
 17 18  1  0
 17 19  1  0
 18 48  1  0
 18 49  1  0
 19 20  1  0
 19 50  1  6
 20 21  2  3
 20 27  1  0
 21 22  1  0
 21 51  1  0
 22 26  1  0
 22 23  2  0
 23 24  1  0
 23 52  1  0
 24 25  1  0
 25 26  2  0
 25 53  1  0
 27 54  1  0
 27 55  1  0
M  CHG  2   2   1  10   1
M  END
>  <i_m_ct_stereo_status>  (104) 
1

>  <s_m_source_file>  (104) 
/var/tmp/pbs.5076255.sched01/tmpco4mv84g/486h_uxm9x.sdf

>  <i_m_source_file_index>  (104) 
2

>  <i_lp_mmshare_version>  (104) 
48012

>  <i_f3d_flags>  (104) 
0

>  <s_epik_input>  (104) 
bjFbY0hdc1tjSF1jMS9bQ0hdPUNcMltDSDJdW0NASF0oW0NIMl1bQ0gyXU4oW0NASF0yW0NASF0zNClbQ0gyXU4oW0NIM10pW0NIMl0zKVtDSDJdW0NAQEhdKFtDSDJdNCljNVtjSF1bY0hdbltjSF1bY0hdNQ==

>  <s_epik_cmdline>  (104) 
J2VwaWtfcHl0aG9uJywgJy1waHQnLCAnMi4wJywgJy1waCcsICc3LjAnLCAnLXRuJywgJzgnLCAnLW1hJywgJzIwMCcsICctaW1hZScsICc8aW5maWxlLm1hZT4nLCAnLW9tYWUnLCAnPG91dGZpbGUubWFlPic=

>  <r_epik_Ionization_Penalty>  (104) 
1.24108

>  <r_epik_Ionization_Penalty_Charging>  (104) 
1.23813

>  <r_epik_Ionization_Penalty_Neutral>  (104) 
0.00295107

>  <r_epik_State_Penalty>  (104) 
2.33412

>  <r_epik_Charging_Adjusted_Penalty>  (104) 
3.57225

>  <i_epik_Tot_Q>  (104) 
2

>  <i_epik_Tot_abs_Q>  (104) 
2

>  <s_epik_Chemistry_Notes>  (104) 
This compound contains an acetal/aminal-like group ( X-CH(R)-Y where X, Y are N, S, or O) that may be acid/base labile, releasing an aldehyde.

>  <s_lp_Force_Field>  (104) 
OPLS3e

>  <r_lp_Energy>  (104) 
71.7634

>  <b_lp_Chiralities_Consistent>  (104) 
1

>  <s_lp_Variant>  (104) 
26:0-7

>  <s_i_glide_gridfile>  (104) 
pfpi4k_grid

>  <i_i_glide_lignum>  (104) 
2

>  <i_i_glide_rotatable_bonds>  (104) 
2

>  <r_i_docking_score>  (104) 
-3.36827

>  <r_i_glide_ligand_efficiency>  (104) 
-0.124751

>  <r_i_glide_ligand_efficiency_sa>  (104) 
-0.374252

>  <r_i_glide_ligand_efficiency_ln>  (104) 
-0.784077

>  <r_i_glide_gscore>  (104) 
-3.36827

>  <r_i_glide_lipo>  (104) 
-0.661923

>  <r_i_glide_hbond>  (104) 
0

>  <r_i_glide_metal>  (104) 
-0

>  <r_i_glide_rewards>  (104) 
-0.845956

>  <r_i_glide_evdw>  (104) 
-28.0783

>  <r_i_glide_ecoul>  (104) 
-3.72611

>  <r_i_glide_erotb>  (104) 
0.13271

>  <r_i_glide_esite>  (104) 
-0.0302666

>  <r_i_glide_emodel>  (104) 
-39.4044

>  <r_i_glide_energy>  (104) 
-31.8044

>  <r_i_glide_einternal>  (104) 
0.558885

>  <r_i_glide_intrahb_reward>  (104) 
-0

>  <i_i_glide_confnum>  (104) 
3

>  <i_i_glide_posenum>  (104) 
21

>  <r_i_glide_eff_state_penalty>  (104) 
0

>  <ligand_id>  (104) 
26

>  <original_smiles>  (104) 
CN1CC2CC(c3ccncc3)CC3CCN(C1)C2C(=Cc1cscn1)C3

>  <smiles>  (104) 
[H]C(=C1C([H])([H])C2([H])C([H])([H])C([H])([H])N3C1([H])C([H])(C([H])([H])C([H])(c1c([H])c([H])[n+]([H])c([H])c1[H])C2([H])[H])C([H])([H])[N+]([H])(C([H])([H])[H])C3([H])[H])c1nc([H])sc1[H]

$$$$
26:7:0
     RDKit          3D

 57 61  0  0  1  0  0  0  0  0999 V2000
   -2.3813    2.6598    2.7121 C   0  0  0  0  0  0  0  0  0  0  0  0
   -0.9970    2.2058    2.9811 N   0  0  2  0  0  0  0  0  0  0  0  0
   -0.8471    0.7440    2.7410 C   0  0  0  0  0  0  0  0  0  0  0  0
    0.5798    0.3099    3.1084 C   0  0  2  0  0  0  0  0  0  0  0  0
    1.0176   -1.0954    2.6440 C   0  0  0  0  0  0  0  0  0  0  0  0
    2.5580   -1.3435    2.6386 C   0  0  1  0  0  0  0  0  0  0  0  0
    2.9314   -2.4408    1.6458 C   0  0  0  0  0  0  0  0  0  0  0  0
    3.1461   -3.7724    2.0703 C   0  0  0  0  0  0  0  0  0  0  0  0
    3.4893   -4.7615    1.1278 C   0  0  0  0  0  0  0  0  0  0  0  0
    3.6031   -4.4372   -0.1882 N   0  0  0  0  0  0  0  0  0  0  0  0
    3.4073   -3.1787   -0.6342 C   0  0  0  0  0  0  0  0  0  0  0  0
    3.0731   -2.1552    0.2667 C   0  0  0  0  0  0  0  0  0  0  0  0
    3.4543   -0.0715    2.4605 C   0  0  0  0  0  0  0  0  0  0  0  0
    3.5866    0.9422    3.6474 C   0  0  1  0  0  0  0  0  0  0  0  0
    2.9631    2.3555    3.4637 C   0  0  0  0  0  0  0  0  0  0  0  0
    1.9622    2.8373    4.5531 C   0  0  0  0  0  0  0  0  0  0  0  0
    0.7331    2.0578    4.7596 N   0  0  0  0  0  0  0  0  0  0  0  0
   -0.5442    2.6419    4.3348 C   0  0  0  0  0  0  0  0  0  0  0  0
    0.7687    0.6086    4.6188 C   0  0  2  0  0  0  0  0  0  0  0  0
    1.9240   -0.0885    5.3542 C   0  0  0  0  0  0  0  0  0  0  0  0
    1.6343   -1.0544    6.2488 C   0  0  0  0  0  0  0  0  0  0  0  0
    2.5070   -1.8837    7.1122 C   0  0  0  0  0  0  0  0  0  0  0  0
    3.8827   -1.8153    7.2871 C   0  0  0  0  0  0  0  0  0  0  0  0
    4.4534   -3.0446    8.3811 S   0  0  0  0  0  0  0  0  0  0  0  0
    2.7879   -3.5649    8.6074 C   0  0  0  0  0  0  0  0  0  0  0  0
    1.8979   -2.8757    7.8804 N   0  0  0  0  0  0  0  0  0  0  0  0
    3.3508    0.3415    5.0253 C   0  0  0  0  0  0  0  0  0  0  0  0
   -3.0858    2.2128    3.4119 H   0  0  0  0  0  0  0  0  0  0  0  0
   -2.7168    2.3770    1.7147 H   0  0  0  0  0  0  0  0  0  0  0  0
   -2.4606    3.7426    2.8081 H   0  0  0  0  0  0  0  0  0  0  0  0
   -1.5824    0.1795    3.3152 H   0  0  0  0  0  0  0  0  0  0  0  0
   -1.0392    0.5518    1.6861 H   0  0  0  0  0  0  0  0  0  0  0  0
    1.1609    0.9770    2.4865 H   0  0  0  0  0  0  0  0  0  0  0  0
    0.5099   -1.8746    3.2157 H   0  0  0  0  0  0  0  0  0  0  0  0
    0.6601   -1.2018    1.6232 H   0  0  0  0  0  0  0  0  0  0  0  0
    2.8058   -1.7861    3.6013 H   0  0  0  0  0  0  0  0  0  0  0  0
    3.0497   -4.0354    3.1176 H   0  0  0  0  0  0  0  0  0  0  0  0
    3.6731   -5.7989    1.3758 H   0  0  0  0  0  0  0  0  0  0  0  0
    3.5064   -3.0343   -1.7046 H   0  0  0  0  0  0  0  0  0  0  0  0
    2.8887   -1.1588   -0.1069 H   0  0  0  0  0  0  0  0  0  0  0  0
    4.4621   -0.4527    2.2954 H   0  0  0  0  0  0  0  0  0  0  0  0
    3.2128    0.4576    1.5378 H   0  0  0  0  0  0  0  0  0  0  0  0
    4.6577    1.1506    3.6753 H   0  0  0  0  0  0  0  0  0  0  0  0
    3.7896    3.0667    3.5369 H   0  0  0  0  0  0  0  0  0  0  0  0
    2.5858    2.5057    2.4497 H   0  0  0  0  0  0  0  0  0  0  0  0
    2.4811    2.8702    5.5152 H   0  0  0  0  0  0  0  0  0  0  0  0
    1.6964    3.8738    4.3375 H   0  0  0  0  0  0  0  0  0  0  0  0
   -0.5125    3.7294    4.3919 H   0  0  0  0  0  0  0  0  0  0  0  0
   -1.2903    2.3206    5.0613 H   0  0  0  0  0  0  0  0  0  0  0  0
   -0.1323    0.2529    5.1167 H   0  0  0  0  0  0  0  0  0  0  0  0
    0.5772   -1.2698    6.3847 H   0  0  0  0  0  0  0  0  0  0  0  0
    4.6168   -1.1475    6.8754 H   0  0  0  0  0  0  0  0  0  0  0  0
    2.4778   -4.3718    9.2657 H   0  0  0  0  0  0  0  0  0  0  0  0
    3.9854   -0.5331    5.0110 H   0  0  0  0  0  0  0  0  0  0  0  0
    3.7185    1.0029    5.8111 H   0  0  0  0  0  0  0  0  0  0  0  0
   -0.4053    2.6859    2.3116 H   0  0  0  0  0  0  0  0  0  0  0  0
    3.8219   -5.1657   -0.8704 H   0  0  0  0  0  0  0  0  0  0  0  0
  1  2  1  0
  1 28  1  0
  1 29  1  0
  1 30  1  0
  2 18  1  0
  2  3  1  0
  2 56  1  6
  3  4  1  0
  3 31  1  0
  3 32  1  0
  4 19  1  0
  4  5  1  0
  4 33  1  6
  5  6  1  0
  5 34  1  0
  5 35  1  0
  6  7  1  0
  6 13  1  0
  6 36  1  1
  7 12  1  0
  7  8  2  0
  8  9  1  0
  8 37  1  0
  9 10  2  0
  9 38  1  0
 10 11  1  0
 10 57  1  0
 11 12  2  0
 11 39  1  0
 12 40  1  0
 13 14  1  0
 13 41  1  0
 13 42  1  0
 14 27  1  0
 14 15  1  0
 14 43  1  1
 15 16  1  0
 15 44  1  0
 15 45  1  0
 16 17  1  0
 16 46  1  0
 16 47  1  0
 17 18  1  0
 17 19  1  0
 18 48  1  0
 18 49  1  0
 19 20  1  0
 19 50  1  1
 20 21  2  3
 20 27  1  0
 21 22  1  0
 21 51  1  0
 22 26  1  0
 22 23  2  0
 23 24  1  0
 23 52  1  0
 24 25  1  0
 25 26  2  0
 25 53  1  0
 27 54  1  0
 27 55  1  0
M  CHG  2   2   1  10   1
M  END
>  <i_m_ct_stereo_status>  (105) 
1

>  <s_m_source_file>  (105) 
/var/tmp/pbs.5076255.sched01/tmpco4mv84g/486h_uxm9x.sdf

>  <i_m_source_file_index>  (105) 
3

>  <i_lp_mmshare_version>  (105) 
48012

>  <i_f3d_flags>  (105) 
0

>  <s_epik_input>  (105) 
bjFbY0hdc1tjSF1jMS9bQ0hdPUNcMltDSDJdW0NASF0oW0NIMl1bQ0gyXU4oW0NASF0yW0NASF0zNClbQ0gyXU4oW0NIM10pW0NIMl0zKVtDSDJdW0NAQEhdKFtDSDJdNCljNVtjSF1bY0hdbltjSF1bY0hdNQ==

>  <s_epik_cmdline>  (105) 
J2VwaWtfcHl0aG9uJywgJy1waHQnLCAnMi4wJywgJy1waCcsICc3LjAnLCAnLXRuJywgJzgnLCAnLW1hJywgJzIwMCcsICctaW1hZScsICc8aW5maWxlLm1hZT4nLCAnLW9tYWUnLCAnPG91dGZpbGUubWFlPic=

>  <r_epik_Ionization_Penalty>  (105) 
1.24108

>  <r_epik_Ionization_Penalty_Charging>  (105) 
1.23813

>  <r_epik_Ionization_Penalty_Neutral>  (105) 
0.00295107

>  <r_epik_State_Penalty>  (105) 
2.33412

>  <r_epik_Charging_Adjusted_Penalty>  (105) 
3.57225

>  <i_epik_Tot_Q>  (105) 
2

>  <i_epik_Tot_abs_Q>  (105) 
2

>  <s_epik_Chemistry_Notes>  (105) 
This compound contains an acetal/aminal-like group ( X-CH(R)-Y where X, Y are N, S, or O) that may be acid/base labile, releasing an aldehyde.

>  <s_lp_Force_Field>  (105) 
OPLS3e

>  <r_lp_Energy>  (105) 
72.5672

>  <b_lp_Chiralities_Consistent>  (105) 
1

>  <s_lp_Variant>  (105) 
26:0-8

>  <s_i_glide_gridfile>  (105) 
pfpi4k_grid

>  <i_i_glide_lignum>  (105) 
3

>  <i_i_glide_rotatable_bonds>  (105) 
2

>  <r_i_docking_score>  (105) 
-2.91357

>  <r_i_glide_ligand_efficiency>  (105) 
-0.10791

>  <r_i_glide_ligand_efficiency_sa>  (105) 
-0.32373

>  <r_i_glide_ligand_efficiency_ln>  (105) 
-0.678231

>  <r_i_glide_gscore>  (105) 
-2.91357

>  <r_i_glide_lipo>  (105) 
-0.0398883

>  <r_i_glide_hbond>  (105) 
-0.0594665

>  <r_i_glide_metal>  (105) 
-0

>  <r_i_glide_rewards>  (105) 
-0.800684

>  <r_i_glide_evdw>  (105) 
-15.834

>  <r_i_glide_ecoul>  (105) 
-8.29598

>  <r_i_glide_erotb>  (105) 
0.13271

>  <r_i_glide_esite>  (105) 
-0.110143

>  <r_i_glide_emodel>  (105) 
-30.9233

>  <r_i_glide_energy>  (105) 
-24.13

>  <r_i_glide_einternal>  (105) 
0.165057

>  <r_i_glide_intrahb_reward>  (105) 
-0

>  <i_i_glide_confnum>  (105) 
4

>  <i_i_glide_posenum>  (105) 
9

>  <r_i_glide_eff_state_penalty>  (105) 
0

>  <ligand_id>  (105) 
26

>  <original_smiles>  (105) 
CN1CC2CC(c3ccncc3)CC3CCN(C1)C2C(=Cc1cscn1)C3

>  <smiles>  (105) 
[H]C(=C1C([H])([H])C2([H])C([H])([H])C([H])([H])N3C1([H])C([H])(C([H])([H])C([H])(c1c([H])c([H])[n+]([H])c([H])c1[H])C2([H])[H])C([H])([H])[N+]([H])(C([H])([H])[H])C3([H])[H])c1nc([H])sc1[H]

$$$$
26:7:1
     RDKit          3D

 57 61  0  0  1  0  0  0  0  0999 V2000
   -1.6720    3.3281    3.1019 C   0  0  0  0  0  0  0  0  0  0  0  0
   -0.5096    2.4744    3.4467 N   0  0  2  0  0  0  0  0  0  0  0  0
   -0.3267    1.3705    2.4633 C   0  0  0  0  0  0  0  0  0  0  0  0
    0.8534    0.4890    2.9171 C   0  0  2  0  0  0  0  0  0  0  0  0
    1.3949   -0.5119    1.8806 C   0  0  0  0  0  0  0  0  0  0  0  0
    2.8085   -1.0930    2.1777 C   0  0  1  0  0  0  0  0  0  0  0  0
    3.4780   -1.5593    0.8859 C   0  0  0  0  0  0  0  0  0  0  0  0
    4.2145   -0.6568    0.0841 C   0  0  0  0  0  0  0  0  0  0  0  0
    4.8123   -1.1102   -1.1063 C   0  0  0  0  0  0  0  0  0  0  0  0
    4.6972   -2.4046   -1.4686 N   0  0  0  0  0  0  0  0  0  0  0  0
    4.0091   -3.3079   -0.7335 C   0  0  0  0  0  0  0  0  0  0  0  0
    3.3845   -2.9046    0.4654 C   0  0  0  0  0  0  0  0  0  0  0  0
    3.7515   -0.1756    3.0265 C   0  0  0  0  0  0  0  0  0  0  0  0
    3.4757    0.0046    4.5571 C   0  0  1  0  0  0  0  0  0  0  0  0
    3.0165    1.4116    5.0386 C   0  0  0  0  0  0  0  0  0  0  0  0
    1.6957    1.4820    5.8629 C   0  0  0  0  0  0  0  0  0  0  0  0
    0.4459    1.0254    5.2318 N   0  0  0  0  0  0  0  0  0  0  0  0
   -0.5719    2.0265    4.8721 C   0  0  0  0  0  0  0  0  0  0  0  0
    0.4780   -0.1001    4.3033 C   0  0  2  0  0  0  0  0  0  0  0  0
    1.2545   -1.3307    4.8036 C   0  0  0  0  0  0  0  0  0  0  0  0
    0.6152   -2.5181    4.8498 C   0  0  0  0  0  0  0  0  0  0  0  0
    1.0806   -3.8492    5.2963 C   0  0  0  0  0  0  0  0  0  0  0  0
    2.2716   -4.2044    5.8951 C   0  0  0  0  0  0  0  0  0  0  0  0
    2.3534   -5.9231    6.1979 S   0  0  0  0  0  0  0  0  0  0  0  0
    0.7357   -6.0795    5.5384 C   0  0  0  0  0  0  0  0  0  0  0  0
    0.2121   -4.9301    5.1002 N   0  0  0  0  0  0  0  0  0  0  0  0
    2.7178   -1.1538    5.2060 C   0  0  0  0  0  0  0  0  0  0  0  0
   -2.6095    2.7617    3.1564 H   0  0  0  0  0  0  0  0  0  0  0  0
   -1.5840    3.7280    2.0908 H   0  0  0  0  0  0  0  0  0  0  0  0
   -1.7466    4.1743    3.7928 H   0  0  0  0  0  0  0  0  0  0  0  0
   -1.2444    0.7845    2.3628 H   0  0  0  0  0  0  0  0  0  0  0  0
   -0.1144    1.8104    1.4834 H   0  0  0  0  0  0  0  0  0  0  0  0
    1.6431    1.2237    2.9898 H   0  0  0  0  0  0  0  0  0  0  0  0
    0.6798   -1.3194    1.7131 H   0  0  0  0  0  0  0  0  0  0  0  0
    1.4523    0.0521    0.9490 H   0  0  0  0  0  0  0  0  0  0  0  0
    2.6646   -2.0182    2.7323 H   0  0  0  0  0  0  0  0  0  0  0  0
    4.3036    0.3813    0.3618 H   0  0  0  0  0  0  0  0  0  0  0  0
    5.3681   -0.4669   -1.7718 H   0  0  0  0  0  0  0  0  0  0  0  0
    3.9771   -4.3146   -1.1282 H   0  0  0  0  0  0  0  0  0  0  0  0
    2.8346   -3.6280    1.0495 H   0  0  0  0  0  0  0  0  0  0  0  0
    4.7366   -0.6384    2.9646 H   0  0  0  0  0  0  0  0  0  0  0  0
    3.8749    0.7982    2.5539 H   0  0  0  0  0  0  0  0  0  0  0  0
    4.4741   -0.0844    4.9925 H   0  0  0  0  0  0  0  0  0  0  0  0
    3.7907    1.7667    5.7208 H   0  0  0  0  0  0  0  0  0  0  0  0
    3.0413    2.1467    4.2340 H   0  0  0  0  0  0  0  0  0  0  0  0
    1.8172    0.8855    6.7692 H   0  0  0  0  0  0  0  0  0  0  0  0
    1.5611    2.5044    6.2204 H   0  0  0  0  0  0  0  0  0  0  0  0
   -0.5232    2.8877    5.5457 H   0  0  0  0  0  0  0  0  0  0  0  0
   -1.5491    1.5629    5.0362 H   0  0  0  0  0  0  0  0  0  0  0  0
   -0.5582   -0.4314    4.2230 H   0  0  0  0  0  0  0  0  0  0  0  0
   -0.4190   -2.5115    4.5236 H   0  0  0  0  0  0  0  0  0  0  0  0
    3.1121   -3.5990    6.1883 H   0  0  0  0  0  0  0  0  0  0  0  0
    0.1845   -7.0082    5.4695 H   0  0  0  0  0  0  0  0  0  0  0  0
    3.2732   -2.0295    4.8981 H   0  0  0  0  0  0  0  0  0  0  0  0
    2.7847   -1.0969    6.2924 H   0  0  0  0  0  0  0  0  0  0  0  0
    0.3101    3.0639    3.3618 H   0  0  0  0  0  0  0  0  0  0  0  0
    5.1344   -2.7180   -2.3346 H   0  0  0  0  0  0  0  0  0  0  0  0
  1  2  1  0
  1 28  1  0
  1 29  1  0
  1 30  1  0
  2 18  1  0
  2  3  1  0
  2 56  1  1
  3  4  1  0
  3 31  1  0
  3 32  1  0
  4 19  1  0
  4  5  1  0
  4 33  1  1
  5  6  1  0
  5 34  1  0
  5 35  1  0
  6  7  1  0
  6 13  1  0
  6 36  1  1
  7 12  1  0
  7  8  2  0
  8  9  1  0
  8 37  1  0
  9 10  2  0
  9 38  1  0
 10 11  1  0
 10 57  1  0
 11 12  2  0
 11 39  1  0
 12 40  1  0
 13 14  1  0
 13 41  1  0
 13 42  1  0
 14 27  1  0
 14 15  1  0
 14 43  1  1
 15 16  1  0
 15 44  1  0
 15 45  1  0
 16 17  1  0
 16 46  1  0
 16 47  1  0
 17 18  1  0
 17 19  1  0
 18 48  1  0
 18 49  1  0
 19 20  1  0
 19 50  1  6
 20 21  2  3
 20 27  1  0
 21 22  1  0
 21 51  1  0
 22 26  1  0
 22 23  2  0
 23 24  1  0
 23 52  1  0
 24 25  1  0
 25 26  2  0
 25 53  1  0
 27 54  1  0
 27 55  1  0
M  CHG  2   2   1  10   1
M  END
>  <i_m_ct_stereo_status>  (106) 
1

>  <s_m_source_file>  (106) 
/var/tmp/pbs.5076255.sched01/tmpco4mv84g/486h_uxm9x.sdf

>  <i_m_source_file_index>  (106) 
3

>  <i_lp_mmshare_version>  (106) 
48012

>  <i_f3d_flags>  (106) 
0

>  <s_epik_input>  (106) 
bjFbY0hdc1tjSF1jMS9bQ0hdPUNcMltDSDJdW0NASF0oW0NIMl1bQ0gyXU4oW0NASF0yW0NASF0zNClbQ0gyXU4oW0NIM10pW0NIMl0zKVtDSDJdW0NAQEhdKFtDSDJdNCljNVtjSF1bY0hdbltjSF1bY0hdNQ==

>  <s_epik_cmdline>  (106) 
J2VwaWtfcHl0aG9uJywgJy1waHQnLCAnMi4wJywgJy1waCcsICc3LjAnLCAnLXRuJywgJzgnLCAnLW1hJywgJzIwMCcsICctaW1hZScsICc8aW5maWxlLm1hZT4nLCAnLW9tYWUnLCAnPG91dGZpbGUubWFlPic=

>  <r_epik_Ionization_Penalty>  (106) 
1.24108

>  <r_epik_Ionization_Penalty_Charging>  (106) 
1.23813

>  <r_epik_Ionization_Penalty_Neutral>  (106) 
0.00295107

>  <r_epik_State_Penalty>  (106) 
2.33412

>  <r_epik_Charging_Adjusted_Penalty>  (106) 
3.57225

>  <i_epik_Tot_Q>  (106) 
2

>  <i_epik_Tot_abs_Q>  (106) 
2

>  <s_epik_Chemistry_Notes>  (106) 
This compound contains an acetal/aminal-like group ( X-CH(R)-Y where X, Y are N, S, or O) that may be acid/base labile, releasing an aldehyde.

>  <s_lp_Force_Field>  (106) 
OPLS3e

>  <r_lp_Energy>  (106) 
72.5672

>  <b_lp_Chiralities_Consistent>  (106) 
1

>  <s_lp_Variant>  (106) 
26:0-8

>  <s_i_glide_gridfile>  (106) 
pfpi4k_grid

>  <i_i_glide_lignum>  (106) 
3

>  <i_i_glide_rotatable_bonds>  (106) 
2

>  <r_i_docking_score>  (106) 
-2.73896

>  <r_i_glide_ligand_efficiency>  (106) 
-0.101443

>  <r_i_glide_ligand_efficiency_sa>  (106) 
-0.304329

>  <r_i_glide_ligand_efficiency_ln>  (106) 
-0.637585

>  <r_i_glide_gscore>  (106) 
-2.73896

>  <r_i_glide_lipo>  (106) 
-0.0933186

>  <r_i_glide_hbond>  (106) 
0

>  <r_i_glide_metal>  (106) 
-0

>  <r_i_glide_rewards>  (106) 
-0.800684

>  <r_i_glide_evdw>  (106) 
-20.1129

>  <r_i_glide_ecoul>  (106) 
-5.9024

>  <r_i_glide_erotb>  (106) 
0.13271

>  <r_i_glide_esite>  (106) 
-0.0866608

>  <r_i_glide_emodel>  (106) 
-32.4405

>  <r_i_glide_energy>  (106) 
-26.0153

>  <r_i_glide_einternal>  (106) 
0.197961

>  <r_i_glide_intrahb_reward>  (106) 
-0

>  <i_i_glide_confnum>  (106) 
1

>  <i_i_glide_posenum>  (106) 
6

>  <r_i_glide_eff_state_penalty>  (106) 
0

>  <ligand_id>  (106) 
26

>  <original_smiles>  (106) 
CN1CC2CC(c3ccncc3)CC3CCN(C1)C2C(=Cc1cscn1)C3

>  <smiles>  (106) 
[H]C(=C1C([H])([H])C2([H])C([H])([H])C([H])([H])N3C1([H])C([H])(C([H])([H])C([H])(c1c([H])c([H])[n+]([H])c([H])c1[H])C2([H])[H])C([H])([H])[N+]([H])(C([H])([H])[H])C3([H])[H])c1nc([H])sc1[H]

$$$$
26:7:2
     RDKit          3D

 57 61  0  0  1  0  0  0  0  0999 V2000
   -1.7182    3.4374    3.1286 C   0  0  0  0  0  0  0  0  0  0  0  0
   -0.5211    2.6260    3.4568 N   0  0  2  0  0  0  0  0  0  0  0  0
   -0.3731    1.4649    2.5374 C   0  0  0  0  0  0  0  0  0  0  0  0
    0.8463    0.6323    2.9734 C   0  0  2  0  0  0  0  0  0  0  0  0
    1.3470   -0.4246    1.9730 C   0  0  0  0  0  0  0  0  0  0  0  0
    2.7863   -0.9678    2.2239 C   0  0  1  0  0  0  0  0  0  0  0  0
    3.3968   -1.5016    0.9275 C   0  0  0  0  0  0  0  0  0  0  0  0
    3.2399   -2.8588    0.5636 C   0  0  0  0  0  0  0  0  0  0  0  0
    3.8088   -3.3311   -0.6383 C   0  0  0  0  0  0  0  0  0  0  0  0
    4.4993   -2.4839   -1.4318 N   0  0  0  0  0  0  0  0  0  0  0  0
    4.6708   -1.1768   -1.1266 C   0  0  0  0  0  0  0  0  0  0  0  0
    4.1300   -0.6578    0.0646 C   0  0  0  0  0  0  0  0  0  0  0  0
    3.7543    0.0125    2.9585 C   0  0  0  0  0  0  0  0  0  0  0  0
    3.5609    0.2829    4.4865 C   0  0  1  0  0  0  0  0  0  0  0  0
    3.1084    1.7137    4.9016 C   0  0  0  0  0  0  0  0  0  0  0  0
    1.8388    1.8189    5.7971 C   0  0  0  0  0  0  0  0  0  0  0  0
    0.5628    1.3051    5.2701 N   0  0  0  0  0  0  0  0  0  0  0  0
   -0.4888    2.2677    4.9073 C   0  0  0  0  0  0  0  0  0  0  0  0
    0.5602    0.1243    4.4110 C   0  0  2  0  0  0  0  0  0  0  0  0
    1.3750   -1.0671    4.9384 C   0  0  0  0  0  0  0  0  0  0  0  0
    0.7379   -2.2548    5.0999 C   0  0  0  0  0  0  0  0  0  0  0  0
    1.2406   -3.5409    5.6182 C   0  0  0  0  0  0  0  0  0  0  0  0
    0.4604   -4.6676    5.7145 C   0  0  0  0  0  0  0  0  0  0  0  0
    1.3598   -6.0235    6.3660 S   0  0  0  0  0  0  0  0  0  0  0  0
    2.7669   -4.9773    6.4898 C   0  0  0  0  0  0  0  0  0  0  0  0
    2.5483   -3.7275    6.0803 N   0  0  0  0  0  0  0  0  0  0  0  0
    2.8584   -0.8416    5.2561 C   0  0  0  0  0  0  0  0  0  0  0  0
   -2.6373    2.8654    3.2739 H   0  0  0  0  0  0  0  0  0  0  0  0
   -1.7017    3.7720    2.0905 H   0  0  0  0  0  0  0  0  0  0  0  0
   -1.7672    4.3244    3.7626 H   0  0  0  0  0  0  0  0  0  0  0  0
   -1.2819    0.8612    2.5277 H   0  0  0  0  0  0  0  0  0  0  0  0
   -0.2238    1.8444    1.5237 H   0  0  0  0  0  0  0  0  0  0  0  0
    1.6245    1.3821    2.9545 H   0  0  0  0  0  0  0  0  0  0  0  0
    0.6358   -1.2484    1.8939 H   0  0  0  0  0  0  0  0  0  0  0  0
    1.3496    0.0895    1.0121 H   0  0  0  0  0  0  0  0  0  0  0  0
    2.6936   -1.8581    2.8437 H   0  0  0  0  0  0  0  0  0  0  0  0
    2.6828   -3.5363    1.1959 H   0  0  0  0  0  0  0  0  0  0  0  0
    3.7322   -4.3518   -0.9924 H   0  0  0  0  0  0  0  0  0  0  0  0
    5.2191   -0.5823   -1.8407 H   0  0  0  0  0  0  0  0  0  0  0  0
    4.2635    0.3919    0.2890 H   0  0  0  0  0  0  0  0  0  0  0  0
    4.7455   -0.4303    2.8662 H   0  0  0  0  0  0  0  0  0  0  0  0
    3.8202    0.9544    2.4196 H   0  0  0  0  0  0  0  0  0  0  0  0
    4.5857    0.2406    4.8648 H   0  0  0  0  0  0  0  0  0  0  0  0
    3.9145    2.1260    5.5094 H   0  0  0  0  0  0  0  0  0  0  0  0
    3.0742    2.3950    4.0533 H   0  0  0  0  0  0  0  0  0  0  0  0
    2.0256    1.2877    6.7322 H   0  0  0  0  0  0  0  0  0  0  0  0
    1.7069    2.8615    6.0923 H   0  0  0  0  0  0  0  0  0  0  0  0
   -0.4184    3.1686    5.5220 H   0  0  0  0  0  0  0  0  0  0  0  0
   -1.4438    1.8028    5.1594 H   0  0  0  0  0  0  0  0  0  0  0  0
   -0.4737   -0.2201    4.4125 H   0  0  0  0  0  0  0  0  0  0  0  0
   -0.3089   -2.2790    4.8255 H   0  0  0  0  0  0  0  0  0  0  0  0
   -0.5780   -4.7896    5.4436 H   0  0  0  0  0  0  0  0  0  0  0  0
    3.7403   -5.2728    6.8608 H   0  0  0  0  0  0  0  0  0  0  0  0
    3.4333   -1.7288    5.0130 H   0  0  0  0  0  0  0  0  0  0  0  0
    2.9759   -0.6993    6.3304 H   0  0  0  0  0  0  0  0  0  0  0  0
    0.2783    3.2232    3.2846 H   0  0  0  0  0  0  0  0  0  0  0  0
    4.8954   -2.8460   -2.3006 H   0  0  0  0  0  0  0  0  0  0  0  0
  1  2  1  0
  1 28  1  0
  1 29  1  0
  1 30  1  0
  2 18  1  0
  2  3  1  0
  2 56  1  1
  3  4  1  0
  3 31  1  0
  3 32  1  0
  4 19  1  0
  4  5  1  0
  4 33  1  1
  5  6  1  0
  5 34  1  0
  5 35  1  0
  6  7  1  0
  6 13  1  0
  6 36  1  1
  7 12  1  0
  7  8  2  0
  8  9  1  0
  8 37  1  0
  9 10  2  0
  9 38  1  0
 10 11  1  0
 10 57  1  0
 11 12  2  0
 11 39  1  0
 12 40  1  0
 13 14  1  0
 13 41  1  0
 13 42  1  0
 14 27  1  0
 14 15  1  0
 14 43  1  1
 15 16  1  0
 15 44  1  0
 15 45  1  0
 16 17  1  0
 16 46  1  0
 16 47  1  0
 17 18  1  0
 17 19  1  0
 18 48  1  0
 18 49  1  0
 19 20  1  0
 19 50  1  6
 20 21  2  3
 20 27  1  0
 21 22  1  0
 21 51  1  0
 22 26  1  0
 22 23  2  0
 23 24  1  0
 23 52  1  0
 24 25  1  0
 25 26  2  0
 25 53  1  0
 27 54  1  0
 27 55  1  0
M  CHG  2   2   1  10   1
M  END
>  <i_m_ct_stereo_status>  (107) 
1

>  <s_m_source_file>  (107) 
/var/tmp/pbs.5076255.sched01/tmpco4mv84g/486h_uxm9x.sdf

>  <i_m_source_file_index>  (107) 
3

>  <i_lp_mmshare_version>  (107) 
48012

>  <i_f3d_flags>  (107) 
0

>  <s_epik_input>  (107) 
bjFbY0hdc1tjSF1jMS9bQ0hdPUNcMltDSDJdW0NASF0oW0NIMl1bQ0gyXU4oW0NASF0yW0NASF0zNClbQ0gyXU4oW0NIM10pW0NIMl0zKVtDSDJdW0NAQEhdKFtDSDJdNCljNVtjSF1bY0hdbltjSF1bY0hdNQ==

>  <s_epik_cmdline>  (107) 
J2VwaWtfcHl0aG9uJywgJy1waHQnLCAnMi4wJywgJy1waCcsICc3LjAnLCAnLXRuJywgJzgnLCAnLW1hJywgJzIwMCcsICctaW1hZScsICc8aW5maWxlLm1hZT4nLCAnLW9tYWUnLCAnPG91dGZpbGUubWFlPic=

>  <r_epik_Ionization_Penalty>  (107) 
1.24108

>  <r_epik_Ionization_Penalty_Charging>  (107) 
1.23813

>  <r_epik_Ionization_Penalty_Neutral>  (107) 
0.00295107

>  <r_epik_State_Penalty>  (107) 
2.33412

>  <r_epik_Charging_Adjusted_Penalty>  (107) 
3.57225

>  <i_epik_Tot_Q>  (107) 
2

>  <i_epik_Tot_abs_Q>  (107) 
2

>  <s_epik_Chemistry_Notes>  (107) 
This compound contains an acetal/aminal-like group ( X-CH(R)-Y where X, Y are N, S, or O) that may be acid/base labile, releasing an aldehyde.

>  <s_lp_Force_Field>  (107) 
OPLS3e

>  <r_lp_Energy>  (107) 
72.5672

>  <b_lp_Chiralities_Consistent>  (107) 
1

>  <s_lp_Variant>  (107) 
26:0-8

>  <s_i_glide_gridfile>  (107) 
pfpi4k_grid

>  <i_i_glide_lignum>  (107) 
3

>  <i_i_glide_rotatable_bonds>  (107) 
2

>  <r_i_docking_score>  (107) 
-2.70532

>  <r_i_glide_ligand_efficiency>  (107) 
-0.100197

>  <r_i_glide_ligand_efficiency_sa>  (107) 
-0.300591

>  <r_i_glide_ligand_efficiency_ln>  (107) 
-0.629753

>  <r_i_glide_gscore>  (107) 
-2.70532

>  <r_i_glide_lipo>  (107) 
-0.084862

>  <r_i_glide_hbond>  (107) 
0

>  <r_i_glide_metal>  (107) 
-0

>  <r_i_glide_rewards>  (107) 
-0.800684

>  <r_i_glide_evdw>  (107) 
-19.6912

>  <r_i_glide_ecoul>  (107) 
-5.86397

>  <r_i_glide_erotb>  (107) 
0.13271

>  <r_i_glide_esite>  (107) 
-0.0883271

>  <r_i_glide_emodel>  (107) 
-31.9455

>  <r_i_glide_energy>  (107) 
-25.5551

>  <r_i_glide_einternal>  (107) 
0.250457

>  <r_i_glide_intrahb_reward>  (107) 
-0

>  <i_i_glide_confnum>  (107) 
2

>  <i_i_glide_posenum>  (107) 
34

>  <r_i_glide_eff_state_penalty>  (107) 
0

>  <ligand_id>  (107) 
26

>  <original_smiles>  (107) 
CN1CC2CC(c3ccncc3)CC3CCN(C1)C2C(=Cc1cscn1)C3

>  <smiles>  (107) 
[H]C(=C1C([H])([H])C2([H])C([H])([H])C([H])([H])N3C1([H])C([H])(C([H])([H])C([H])(c1c([H])c([H])[n+]([H])c([H])c1[H])C2([H])[H])C([H])([H])[N+]([H])(C([H])([H])[H])C3([H])[H])c1nc([H])sc1[H]

$$$$
27:0:0
     RDKit          3D

 51 55  0  0  1  0  0  0  0  0999 V2000
    5.1311   -7.4683    2.9666 C   0  0  0  0  0  0  0  0  0  0  0  0
    4.5475   -6.1474    2.4945 C   0  0  0  0  0  0  0  0  0  0  0  0
    5.1263   -4.9571    2.7426 C   0  0  0  0  0  0  0  0  0  0  0  0
    4.5984   -3.5814    2.3140 C   0  0  2  0  0  0  0  0  0  0  0  0
    4.1327   -2.9029    3.6229 C   0  0  0  0  0  0  0  0  0  0  0  0
    3.3492   -3.7632    1.4038 C   0  0  0  0  0  0  0  0  0  0  0  0
    2.7616   -4.9624    1.1886 C   0  0  0  0  0  0  0  0  0  0  0  0
    3.2801   -6.2145    1.7467 C   0  0  0  0  0  0  0  0  0  0  0  0
    2.6601   -7.2657    1.5864 O   0  0  0  0  0  0  0  0  0  0  0  0
    2.7050   -2.5443    0.7555 C   0  0  0  0  0  0  0  0  0  0  0  0
    3.5209   -1.6258   -0.1523 C   0  0  2  0  0  0  0  0  0  0  0  0
    4.1258   -1.8127   -1.5187 C   0  0  2  0  0  0  0  0  0  0  0  0
    4.1982   -0.6690   -2.5093 C   0  0  0  0  0  0  0  0  0  0  0  0
    3.9166   -3.1791   -2.1804 C   0  0  1  0  0  0  0  0  0  0  0  0
    3.3180   -3.1745   -3.5992 C   0  0  0  0  0  0  0  0  0  0  0  0
    5.1980   -4.0015   -2.0986 C   0  0  0  0  0  0  0  0  0  0  0  0
    5.6169   -4.2071   -0.6314 C   0  0  0  0  0  0  0  0  0  0  0  0
    5.9302   -2.8772    0.0931 C   0  0  2  0  0  0  0  0  0  0  0  0
    7.4030   -2.5486   -0.3202 C   0  0  0  0  0  0  0  0  0  0  0  0
    5.8102   -2.8115    1.6429 C   0  0  1  0  0  0  0  0  0  0  0  0
    5.7539   -1.2959    1.8282 C   0  0  0  0  0  0  0  0  0  0  0  0
    5.3933   -0.6637    0.7022 C   0  0  0  0  0  0  0  0  0  0  0  0
    5.0299   -1.7070   -0.2714 C   0  0  2  0  0  0  0  0  0  0  0  0
    4.4467   -7.9766    3.6450 H   0  0  0  0  0  0  0  0  0  0  0  0
    6.0749   -7.3266    3.4909 H   0  0  0  0  0  0  0  0  0  0  0  0
    5.3166   -8.1290    2.1210 H   0  0  0  0  0  0  0  0  0  0  0  0
    6.0506   -4.9436    3.3086 H   0  0  0  0  0  0  0  0  0  0  0  0
    3.3540   -3.5010    4.1025 H   0  0  0  0  0  0  0  0  0  0  0  0
    3.7066   -1.9136    3.4522 H   0  0  0  0  0  0  0  0  0  0  0  0
    4.9482   -2.7994    4.3405 H   0  0  0  0  0  0  0  0  0  0  0  0
    1.8904   -5.0392    0.5573 H   0  0  0  0  0  0  0  0  0  0  0  0
    1.8302   -2.8449    0.1836 H   0  0  0  0  0  0  0  0  0  0  0  0
    2.3159   -1.9300    1.5662 H   0  0  0  0  0  0  0  0  0  0  0  0
    3.0797   -0.6377   -0.0811 H   0  0  0  0  0  0  0  0  0  0  0  0
    4.9946   -0.8259   -3.2338 H   0  0  0  0  0  0  0  0  0  0  0  0
    4.4137    0.2399   -1.9656 H   0  0  0  0  0  0  0  0  0  0  0  0
    3.2427   -0.5315   -3.0182 H   0  0  0  0  0  0  0  0  0  0  0  0
    3.1859   -3.7162   -1.5779 H   0  0  0  0  0  0  0  0  0  0  0  0
    3.9932   -2.7268   -4.3287 H   0  0  0  0  0  0  0  0  0  0  0  0
    2.3589   -2.6539   -3.6258 H   0  0  0  0  0  0  0  0  0  0  0  0
    3.1290   -4.1986   -3.9249 H   0  0  0  0  0  0  0  0  0  0  0  0
    5.0152   -4.9825   -2.5374 H   0  0  0  0  0  0  0  0  0  0  0  0
    5.9959   -3.5465   -2.6892 H   0  0  0  0  0  0  0  0  0  0  0  0
    4.8746   -4.8295   -0.1619 H   0  0  0  0  0  0  0  0  0  0  0  0
    6.5025   -4.8260   -0.5649 H   0  0  0  0  0  0  0  0  0  0  0  0
    7.7931   -1.6301    0.1218 H   0  0  0  0  0  0  0  0  0  0  0  0
    7.5077   -2.4424   -1.4005 H   0  0  0  0  0  0  0  0  0  0  0  0
    8.0930   -3.3378   -0.0168 H   0  0  0  0  0  0  0  0  0  0  0  0
    6.7483   -3.1536    2.0814 H   0  0  0  0  0  0  0  0  0  0  0  0
    6.0325   -0.8105    2.7496 H   0  0  0  0  0  0  0  0  0  0  0  0
    5.2950    0.3952    0.5385 H   0  0  0  0  0  0  0  0  0  0  0  0
  1  2  1  0
  1 24  1  0
  1 25  1  0
  1 26  1  0
  2  8  1  0
  2  3  2  0
  3  4  1  0
  3 27  1  0
  4 20  1  0
  4  5  1  1
  4  6  1  0
  5 28  1  0
  5 29  1  0
  5 30  1  0
  6  7  2  0
  6 10  1  0
  7  8  1  0
  7 31  1  0
  8  9  2  0
 10 11  1  0
 10 32  1  0
 10 33  1  0
 11 23  1  0
 11 12  1  0
 11 34  1  6
 12 23  1  0
 12 13  1  6
 12 14  1  0
 13 35  1  0
 13 36  1  0
 13 37  1  0
 14 15  1  0
 14 16  1  0
 14 38  1  1
 15 39  1  0
 15 40  1  0
 15 41  1  0
 16 17  1  0
 16 42  1  0
 16 43  1  0
 17 18  1  0
 17 44  1  0
 17 45  1  0
 18 23  1  0
 18 19  1  1
 18 20  1  0
 19 46  1  0
 19 47  1  0
 19 48  1  0
 20 21  1  0
 20 49  1  1
 21 22  2  0
 21 50  1  0
 23 22  1  6
 22 51  1  0
M  END
>  <i_m_ct_stereo_status>  (108) 
1

>  <s_m_source_file>  (108) 
/var/tmp/pbs.5076255.sched01/tmpco4mv84g/486h_uxm9x.sdf

>  <i_m_source_file_index>  (108) 
4

>  <i_lp_mmshare_version>  (108) 
48012

>  <i_f3d_flags>  (108) 
0

>  <s_epik_input>  (108) 
W0NIM11DKD1bQ0hdMSlDKD1PKVtDSF09QyhbQ0gyXTIpW0NAXTEoW0NIM10pW0NASF0oW0NIXT1bQ0hdMylbQ0BAXTQoW0NIM10pW0NIMl1bQ0gyXVtDQEhdKFtDSDNdKVtDQF01KFtDQEBIXTJbQ0BAXTM0NSlbQ0gzXQ==

>  <s_epik_cmdline>  (108) 
J2VwaWtfcHl0aG9uJywgJy1waHQnLCAnMi4wJywgJy1waCcsICc3LjAnLCAnLXRuJywgJzgnLCAnLW1hJywgJzIwMCcsICctaW1hZScsICc8aW5maWxlLm1hZT4nLCAnLW9tYWUnLCAnPG91dGZpbGUubWFlPic=

>  <r_lp_tautomer_probability>  (108) 
1

>  <r_epik_Ionization_Penalty>  (108) 
0

>  <r_epik_Ionization_Penalty_Charging>  (108) 
0

>  <r_epik_Ionization_Penalty_Neutral>  (108) 
0

>  <r_epik_State_Penalty>  (108) 
-0

>  <r_epik_Charging_Adjusted_Penalty>  (108) 
0

>  <i_epik_Tot_Q>  (108) 
0

>  <i_epik_Tot_abs_Q>  (108) 
0

>  <s_lp_Force_Field>  (108) 
OPLS3e

>  <r_lp_Energy>  (108) 
75.5831

>  <b_lp_Chiralities_Consistent>  (108) 
1

>  <s_lp_Variant>  (108) 
27:0-1

>  <s_i_glide_gridfile>  (108) 
pfpi4k_grid

>  <i_i_glide_lignum>  (108) 
4

>  <i_i_glide_rotatable_bonds>  (108) 
0

>  <r_i_docking_score>  (108) 
-3.3424

>  <r_i_glide_ligand_efficiency>  (108) 
-0.145322

>  <r_i_glide_ligand_efficiency_sa>  (108) 
-0.413276

>  <r_i_glide_ligand_efficiency_ln>  (108) 
-0.808224

>  <r_i_glide_gscore>  (108) 
-3.3424

>  <r_i_glide_lipo>  (108) 
-0.769099

>  <r_i_glide_hbond>  (108) 
0

>  <r_i_glide_metal>  (108) 
-0

>  <r_i_glide_rewards>  (108) 
-1.34807

>  <r_i_glide_evdw>  (108) 
-24.4993

>  <r_i_glide_ecoul>  (108) 
-0.00182029

>  <r_i_glide_erotb>  (108) 
0

>  <r_i_glide_esite>  (108) 
0

>  <r_i_glide_emodel>  (108) 
-28.7274

>  <r_i_glide_energy>  (108) 
-24.5011

>  <r_i_glide_einternal>  (108) 
0

>  <r_i_glide_intrahb_reward>  (108) 
-0

>  <i_i_glide_confnum>  (108) 
1

>  <i_i_glide_posenum>  (108) 
16

>  <r_i_glide_eff_state_penalty>  (108) 
0

>  <ligand_id>  (108) 
27

>  <original_smiles>  (108) 
CC1=CC2(C)C(=CC1=O)CC1C3(C)C(C)CCC4(C)C2C=CC143

>  <smiles>  (108) 
[H]C1=C2C([H])([H])C3([H])C45C([H])=C([H])C([H])(C2(C([H])([H])[H])C([H])=C(C([H])([H])[H])C1=O)C4(C([H])([H])[H])C([H])([H])C([H])([H])C([H])(C([H])([H])[H])C35C([H])([H])[H]

$$$$
27:0:1
     RDKit          3D

 51 55  0  0  1  0  0  0  0  0999 V2000
    4.6473   -7.7760    1.7573 C   0  0  0  0  0  0  0  0  0  0  0  0
    4.2443   -6.3284    1.5372 C   0  0  0  0  0  0  0  0  0  0  0  0
    5.0627   -5.2955    1.7880 C   0  0  0  0  0  0  0  0  0  0  0  0
    4.7145   -3.8061    1.5967 C   0  0  2  0  0  0  0  0  0  0  0  0
    4.5941   -3.2109    3.0145 C   0  0  0  0  0  0  0  0  0  0  0  0
    3.3274   -3.6831    0.9396 C   0  0  0  0  0  0  0  0  0  0  0  0
    2.5275   -4.7292    0.6979 C   0  0  0  0  0  0  0  0  0  0  0  0
    2.8641   -6.0962    1.0762 C   0  0  0  0  0  0  0  0  0  0  0  0
    1.9852   -6.9551    1.0519 O   0  0  0  0  0  0  0  0  0  0  0  0
    2.8224   -2.3076    0.5579 C   0  0  0  0  0  0  0  0  0  0  0  0
    3.5568   -1.4359   -0.4492 C   0  0  2  0  0  0  0  0  0  0  0  0
    3.8652   -1.5398   -1.9261 C   0  0  2  0  0  0  0  0  0  0  0  0
    3.9588   -0.3299   -2.8371 C   0  0  0  0  0  0  0  0  0  0  0  0
    3.3398   -2.7798   -2.6457 C   0  0  1  0  0  0  0  0  0  0  0  0
    2.5440   -2.5480   -3.9293 C   0  0  0  0  0  0  0  0  0  0  0  0
    4.4921   -3.7491   -2.9368 C   0  0  0  0  0  0  0  0  0  0  0  0
    5.0161   -4.1812   -1.5496 C   0  0  0  0  0  0  0  0  0  0  0  0
    5.7037   -3.0286   -0.7721 C   0  0  2  0  0  0  0  0  0  0  0  0
    7.1010   -2.8796   -1.4359 C   0  0  0  0  0  0  0  0  0  0  0  0
    5.8984   -3.1608    0.7716 C   0  0  1  0  0  0  0  0  0  0  0  0
    6.1110   -1.6892    1.1114 C   0  0  0  0  0  0  0  0  0  0  0  0
    5.6557   -0.8847    0.1496 C   0  0  0  0  0  0  0  0  0  0  0  0
    4.9780   -1.7118   -0.8594 C   0  0  2  0  0  0  0  0  0  0  0  0
    4.0149   -8.2458    2.5043 H   0  0  0  0  0  0  0  0  0  0  0  0
    5.6746   -7.8372    2.0987 H   0  0  0  0  0  0  0  0  0  0  0  0
    4.5628   -8.3443    0.8372 H   0  0  0  0  0  0  0  0  0  0  0  0
    6.0685   -5.4725    2.1608 H   0  0  0  0  0  0  0  0  0  0  0  0
    3.8081   -3.7346    3.5678 H   0  0  0  0  0  0  0  0  0  0  0  0
    4.3094   -2.1535    2.9962 H   0  0  0  0  0  0  0  0  0  0  0  0
    5.5301   -3.3082    3.5690 H   0  0  0  0  0  0  0  0  0  0  0  0
    1.5846   -4.6272    0.1971 H   0  0  0  0  0  0  0  0  0  0  0  0
    1.8518   -2.5101    0.1273 H   0  0  0  0  0  0  0  0  0  0  0  0
    2.6579   -1.7265    1.4699 H   0  0  0  0  0  0  0  0  0  0  0  0
    3.3320   -0.4140   -0.1908 H   0  0  0  0  0  0  0  0  0  0  0  0
    4.5425   -0.5766   -3.7240 H   0  0  0  0  0  0  0  0  0  0  0  0
    4.4317    0.4845   -2.3021 H   0  0  0  0  0  0  0  0  0  0  0  0
    2.9579   -0.0233   -3.1428 H   0  0  0  0  0  0  0  0  0  0  0  0
    2.6336   -3.2785   -1.9903 H   0  0  0  0  0  0  0  0  0  0  0  0
    3.1491   -2.1067   -4.7211 H   0  0  0  0  0  0  0  0  0  0  0  0
    1.7580   -1.8594   -3.7413 H   0  0  0  0  0  0  0  0  0  0  0  0
    2.1100   -3.4947   -4.2958 H   0  0  0  0  0  0  0  0  0  0  0  0
    4.1937   -4.5938   -3.5478 H   0  0  0  0  0  0  0  0  0  0  0  0
    5.2665   -3.2505   -3.5353 H   0  0  0  0  0  0  0  0  0  0  0  0
    4.2458   -4.7258   -1.0351 H   0  0  0  0  0  0  0  0  0  0  0  0
    5.7730   -4.9303   -1.6837 H   0  0  0  0  0  0  0  0  0  0  0  0
    7.7135   -2.1000   -0.9926 H   0  0  0  0  0  0  0  0  0  0  0  0
    7.0223   -2.6510   -2.4968 H   0  0  0  0  0  0  0  0  0  0  0  0
    7.6790   -3.7973   -1.3405 H   0  0  0  0  0  0  0  0  0  0  0  0
    6.8388   -3.6675    1.0093 H   0  0  0  0  0  0  0  0  0  0  0  0
    6.6293   -1.3476    2.0003 H   0  0  0  0  0  0  0  0  0  0  0  0
    5.7244    0.1860    0.1740 H   0  0  0  0  0  0  0  0  0  0  0  0
  1  2  1  0
  1 24  1  0
  1 25  1  0
  1 26  1  0
  2  8  1  0
  2  3  2  0
  3  4  1  0
  3 27  1  0
  4 20  1  0
  4  5  1  1
  4  6  1  0
  5 28  1  0
  5 29  1  0
  5 30  1  0
  6  7  2  0
  6 10  1  0
  7  8  1  0
  7 31  1  0
  8  9  2  0
 10 11  1  0
 10 32  1  0
 10 33  1  0
 11 23  1  0
 11 12  1  0
 11 34  1  6
 12 23  1  0
 12 13  1  6
 12 14  1  0
 13 35  1  0
 13 36  1  0
 13 37  1  0
 14 15  1  0
 14 16  1  0
 14 38  1  1
 15 39  1  0
 15 40  1  0
 15 41  1  0
 16 17  1  0
 16 42  1  0
 16 43  1  0
 17 18  1  0
 17 44  1  0
 17 45  1  0
 18 23  1  0
 18 19  1  6
 18 20  1  0
 19 46  1  0
 19 47  1  0
 19 48  1  0
 20 21  1  0
 20 49  1  6
 21 22  2  0
 21 50  1  0
 23 22  1  6
 22 51  1  0
M  END
>  <i_m_ct_stereo_status>  (109) 
1

>  <s_m_source_file>  (109) 
/var/tmp/pbs.5076255.sched01/tmpco4mv84g/486h_uxm9x.sdf

>  <i_m_source_file_index>  (109) 
4

>  <i_lp_mmshare_version>  (109) 
48012

>  <i_f3d_flags>  (109) 
0

>  <s_epik_input>  (109) 
W0NIM11DKD1bQ0hdMSlDKD1PKVtDSF09QyhbQ0gyXTIpW0NAXTEoW0NIM10pW0NASF0oW0NIXT1bQ0hdMylbQ0BAXTQoW0NIM10pW0NIMl1bQ0gyXVtDQEhdKFtDSDNdKVtDQF01KFtDQEBIXTJbQ0BAXTM0NSlbQ0gzXQ==

>  <s_epik_cmdline>  (109) 
J2VwaWtfcHl0aG9uJywgJy1waHQnLCAnMi4wJywgJy1waCcsICc3LjAnLCAnLXRuJywgJzgnLCAnLW1hJywgJzIwMCcsICctaW1hZScsICc8aW5maWxlLm1hZT4nLCAnLW9tYWUnLCAnPG91dGZpbGUubWFlPic=

>  <r_lp_tautomer_probability>  (109) 
1

>  <r_epik_Ionization_Penalty>  (109) 
0

>  <r_epik_Ionization_Penalty_Charging>  (109) 
0

>  <r_epik_Ionization_Penalty_Neutral>  (109) 
0

>  <r_epik_State_Penalty>  (109) 
-0

>  <r_epik_Charging_Adjusted_Penalty>  (109) 
0

>  <i_epik_Tot_Q>  (109) 
0

>  <i_epik_Tot_abs_Q>  (109) 
0

>  <s_lp_Force_Field>  (109) 
OPLS3e

>  <r_lp_Energy>  (109) 
75.5831

>  <b_lp_Chiralities_Consistent>  (109) 
1

>  <s_lp_Variant>  (109) 
27:0-1

>  <s_i_glide_gridfile>  (109) 
pfpi4k_grid

>  <i_i_glide_lignum>  (109) 
4

>  <i_i_glide_rotatable_bonds>  (109) 
0

>  <r_i_docking_score>  (109) 
-3.18596

>  <r_i_glide_ligand_efficiency>  (109) 
-0.13852

>  <r_i_glide_ligand_efficiency_sa>  (109) 
-0.393933

>  <r_i_glide_ligand_efficiency_ln>  (109) 
-0.770395

>  <r_i_glide_gscore>  (109) 
-3.18596

>  <r_i_glide_lipo>  (109) 
-0.818763

>  <r_i_glide_hbond>  (109) 
0

>  <r_i_glide_metal>  (109) 
-0

>  <r_i_glide_rewards>  (109) 
-1.30597

>  <r_i_glide_evdw>  (109) 
-19.6618

>  <r_i_glide_ecoul>  (109) 
-0.478933

>  <r_i_glide_erotb>  (109) 
0

>  <r_i_glide_esite>  (109) 
-0.00629828

>  <r_i_glide_emodel>  (109) 
-23.2566

>  <r_i_glide_energy>  (109) 
-20.1407

>  <r_i_glide_einternal>  (109) 
0

>  <r_i_glide_intrahb_reward>  (109) 
-0

>  <i_i_glide_confnum>  (109) 
2

>  <i_i_glide_posenum>  (109) 
19

>  <r_i_glide_eff_state_penalty>  (109) 
0

>  <ligand_id>  (109) 
27

>  <original_smiles>  (109) 
CC1=CC2(C)C(=CC1=O)CC1C3(C)C(C)CCC4(C)C2C=CC143

>  <smiles>  (109) 
[H]C1=C2C([H])([H])C3([H])C45C([H])=C([H])C([H])(C2(C([H])([H])[H])C([H])=C(C([H])([H])[H])C1=O)C4(C([H])([H])[H])C([H])([H])C([H])([H])C([H])(C([H])([H])[H])C35C([H])([H])[H]

$$$$
29:0:0
     RDKit          3D

 40 42  0  0  1  0  0  0  0  0999 V2000
   -3.3193    3.3488    3.3590 O   0  0  0  0  0  0  0  0  0  0  0  0
   -2.6479    2.9304    4.3035 N   0  0  0  0  0  0  0  0  0  0  0  0
   -2.7944    3.2705    5.4773 O   0  0  0  0  0  0  0  0  0  0  0  0
   -1.5977    2.0043    4.0000 C   0  0  0  0  0  0  0  0  0  0  0  0
   -0.7702    2.0843    2.9072 C   0  0  0  0  0  0  0  0  0  0  0  0
    0.0796    1.0079    3.0017 N   0  0  0  0  0  0  0  0  0  0  0  0
   -0.2774    0.3251    4.0990 C   0  0  0  0  0  0  0  0  0  0  0  0
   -1.2652    0.8904    4.7802 N   0  0  0  0  0  0  0  0  0  0  0  0
    0.3682   -0.7772    4.4576 O   0  0  0  0  0  0  0  0  0  0  0  0
    1.1437   -1.4201    3.4603 C   0  0  0  0  0  0  0  0  0  0  0  0
    2.0256   -0.4145    2.6908 C   0  0  1  0  0  0  0  0  0  0  0  0
    2.8104   -1.0841    1.6336 N   0  0  0  0  0  0  0  0  0  0  0  0
    4.0626   -0.3984    1.2461 C   0  0  0  0  0  0  0  0  0  0  0  0
    4.9967   -1.3286    0.4480 C   0  0  2  0  0  0  0  0  0  0  0  0
    6.2035   -0.6592    0.1214 O   0  0  0  0  0  0  0  0  0  0  0  0
    4.2988   -1.8958   -0.7769 C   0  0  0  0  0  0  0  0  0  0  0  0
    3.3872   -2.9634   -0.6060 C   0  0  0  0  0  0  0  0  0  0  0  0
    2.6495   -3.4518   -1.6974 C   0  0  0  0  0  0  0  0  0  0  0  0
    2.8837   -2.9314   -2.9830 C   0  0  0  0  0  0  0  0  0  0  0  0
    2.2098   -3.4575   -4.0464 O   0  0  0  0  0  0  0  0  0  0  0  0
    3.8092   -1.8871   -3.1748 C   0  0  0  0  0  0  0  0  0  0  0  0
    4.5047   -1.3590   -2.0702 C   0  0  0  0  0  0  0  0  0  0  0  0
    1.1256    0.6618    2.0800 C   0  0  0  0  0  0  0  0  0  0  0  0
   -0.7193    2.8178    2.1105 H   0  0  0  0  0  0  0  0  0  0  0  0
    1.7696   -2.1505    3.9708 H   0  0  0  0  0  0  0  0  0  0  0  0
    0.4831   -1.9834    2.8074 H   0  0  0  0  0  0  0  0  0  0  0  0
    2.6955    0.0349    3.4336 H   0  0  0  0  0  0  0  0  0  0  0  0
    3.0580   -2.0091    1.9526 H   0  0  0  0  0  0  0  0  0  0  0  0
    3.8174    0.4959    0.6744 H   0  0  0  0  0  0  0  0  0  0  0  0
    4.5888   -0.0598    2.1362 H   0  0  0  0  0  0  0  0  0  0  0  0
    5.2926   -2.1693    1.0758 H   0  0  0  0  0  0  0  0  0  0  0  0
    6.6355   -0.3408    0.9018 H   0  0  0  0  0  0  0  0  0  0  0  0
    3.2070   -3.3929    0.3716 H   0  0  0  0  0  0  0  0  0  0  0  0
    1.9445   -4.2457   -1.5438 H   0  0  0  0  0  0  0  0  0  0  0  0
    1.5394   -4.0777   -3.8111 H   0  0  0  0  0  0  0  0  0  0  0  0
    3.9694   -1.4860   -4.1622 H   0  0  0  0  0  0  0  0  0  0  0  0
    5.1907   -0.5359   -2.2247 H   0  0  0  0  0  0  0  0  0  0  0  0
    0.6228    0.2862    1.1847 H   0  0  0  0  0  0  0  0  0  0  0  0
    1.7003    1.5573    1.8091 H   0  0  0  0  0  0  0  0  0  0  0  0
    2.2327   -1.1699    0.8005 H   0  0  0  0  0  0  0  0  0  0  0  0
  1  2  2  0
  2  3  1  0
  2  4  1  0
  4  8  1  0
  4  5  2  0
  5  6  1  0
  5 24  1  0
  6 23  1  0
  6  7  1  0
  7  8  2  0
  7  9  1  0
  9 10  1  0
 10 11  1  0
 10 25  1  0
 10 26  1  0
 11 12  1  0
 11 23  1  0
 11 27  1  1
 12 13  1  0
 12 28  1  0
 12 40  1  0
 13 14  1  0
 13 29  1  0
 13 30  1  0
 14 15  1  0
 14 16  1  0
 14 31  1  1
 15 32  1  0
 16 22  1  0
 16 17  2  0
 17 18  1  0
 17 33  1  0
 18 19  2  0
 18 34  1  0
 19 20  1  0
 19 21  1  0
 20 35  1  0
 21 22  2  0
 21 36  1  0
 22 37  1  0
 23 38  1  0
 23 39  1  0
M  CHG  3   2   1   3  -1  12   1
M  END
>  <i_m_ct_stereo_status>  (110) 
1

>  <s_m_source_file>  (110) 
/var/tmp/pbs.5076255.sched01/tmpco4mv84g/486h_uxm9x.sdf

>  <i_m_source_file_index>  (110) 
6

>  <i_lp_mmshare_version>  (110) 
48012

>  <i_f3d_flags>  (110) 
0

>  <s_epik_input>  (110) 
Tz1bTitdKFtPLV0pYyhbY0hdMSluYyhuMTIpT1tDSDJdW0NASF0oW0NIMl0yKVtOSF1bQ0gyXVtDQEhdKFtPSF0pYzNbY0hdW2NIXWMoW09IXSlbY0hdW2NIXTM=

>  <s_epik_cmdline>  (110) 
J2VwaWtfcHl0aG9uJywgJy1waHQnLCAnMi4wJywgJy1waCcsICc3LjAnLCAnLXRuJywgJzgnLCAnLW1hJywgJzIwMCcsICctaW1hZScsICc8aW5maWxlLm1hZT4nLCAnLW9tYWUnLCAnPG91dGZpbGUubWFlPic=

>  <r_lp_tautomer_probability>  (110) 
1

>  <r_epik_Ionization_Penalty>  (110) 
0.240725

>  <r_epik_Ionization_Penalty_Charging>  (110) 
0.238826

>  <r_epik_Ionization_Penalty_Neutral>  (110) 
0.00189825

>  <r_epik_State_Penalty>  (110) 
0.229737

>  <r_epik_Charging_Adjusted_Penalty>  (110) 
0.468563

>  <i_epik_Tot_Q>  (110) 
1

>  <i_epik_Tot_abs_Q>  (110) 
3

>  <s_lp_Force_Field>  (110) 
OPLS3e

>  <r_lp_Energy>  (110) 
28.8255

>  <b_lp_Chiralities_Consistent>  (110) 
1

>  <s_lp_Variant>  (110) 
29:0-1

>  <s_i_glide_gridfile>  (110) 
pfpi4k_grid

>  <i_i_glide_lignum>  (110) 
6

>  <i_i_glide_rotatable_bonds>  (110) 
7

>  <r_i_docking_score>  (110) 
-5.26428

>  <r_i_glide_ligand_efficiency>  (110) 
-0.228882

>  <r_i_glide_ligand_efficiency_sa>  (110) 
-0.650909

>  <r_i_glide_ligand_efficiency_ln>  (110) 
-1.27295

>  <r_i_glide_gscore>  (110) 
-5.26428

>  <r_i_glide_lipo>  (110) 
-0.404235

>  <r_i_glide_hbond>  (110) 
-0.574093

>  <r_i_glide_metal>  (110) 
-0

>  <r_i_glide_rewards>  (110) 
-1.21835

>  <r_i_glide_evdw>  (110) 
-31.2784

>  <r_i_glide_ecoul>  (110) 
-13.607

>  <r_i_glide_erotb>  (110) 
0.723941

>  <r_i_glide_esite>  (110) 
-0.18657

>  <r_i_glide_emodel>  (110) 
-58.3526

>  <r_i_glide_energy>  (110) 
-44.8855

>  <r_i_glide_einternal>  (110) 
3.92226

>  <r_i_glide_intrahb_reward>  (110) 
-0

>  <i_i_glide_confnum>  (110) 
5

>  <i_i_glide_posenum>  (110) 
11

>  <r_i_glide_eff_state_penalty>  (110) 
0

>  <ligand_id>  (110) 
29

>  <original_smiles>  (110) 
O=[N+]([O-])c1cn2c(n1)OCC(NCC(O)c1ccc(O)cc1)C2

>  <smiles>  (110) 
[H]Oc1c([H])c([H])c(C([H])(O[H])C([H])([H])[N+]([H])([H])C2([H])C([H])([H])Oc3nc([N+](=O)[O-])c([H])n3C2([H])[H])c([H])c1[H]

$$$$
29:0:1
     RDKit          3D

 40 42  0  0  1  0  0  0  0  0999 V2000
   -2.0873    4.5249    3.3706 O   0  0  0  0  0  0  0  0  0  0  0  0
   -2.3090    3.3448    3.6873 N   0  0  0  0  0  0  0  0  0  0  0  0
   -3.3831    2.9394    4.0732 O   0  0  0  0  0  0  0  0  0  0  0  0
   -1.2145    2.4209    3.6190 C   0  0  0  0  0  0  0  0  0  0  0  0
    0.0675    2.7189    3.2427 C   0  0  0  0  0  0  0  0  0  0  0  0
    0.7574    1.5224    3.2764 N   0  0  0  0  0  0  0  0  0  0  0  0
   -0.1248    0.6045    3.6874 C   0  0  0  0  0  0  0  0  0  0  0  0
   -1.3309    1.0637    3.9421 N   0  0  0  0  0  0  0  0  0  0  0  0
    0.2603   -0.6782    3.8903 O   0  0  0  0  0  0  0  0  0  0  0  0
    1.4265   -1.0794    3.1940 C   0  0  0  0  0  0  0  0  0  0  0  0
    2.5870   -0.0662    3.3630 C   0  0  1  0  0  0  0  0  0  0  0  0
    3.8482   -0.4451    2.6710 N   0  0  0  0  0  0  0  0  0  0  0  0
    3.6840   -0.9154    1.2858 C   0  0  0  0  0  0  0  0  0  0  0  0
    4.9866   -1.3740    0.6381 C   0  0  2  0  0  0  0  0  0  0  0  0
    5.8148   -0.2352    0.5207 O   0  0  0  0  0  0  0  0  0  0  0  0
    4.7863   -2.0727   -0.7054 C   0  0  0  0  0  0  0  0  0  0  0  0
    5.9127   -2.4726   -1.4540 C   0  0  0  0  0  0  0  0  0  0  0  0
    5.7427   -3.1419   -2.6865 C   0  0  0  0  0  0  0  0  0  0  0  0
    4.4518   -3.4402   -3.1624 C   0  0  0  0  0  0  0  0  0  0  0  0
    4.2874   -4.1289   -4.3235 O   0  0  0  0  0  0  0  0  0  0  0  0
    3.3212   -3.0546   -2.4281 C   0  0  0  0  0  0  0  0  0  0  0  0
    3.4990   -2.3756   -1.2122 C   0  0  0  0  0  0  0  0  0  0  0  0
    2.1260    1.3260    2.9050 C   0  0  0  0  0  0  0  0  0  0  0  0
    0.5108    3.6448    2.9084 H   0  0  0  0  0  0  0  0  0  0  0  0
    1.7112   -2.0497    3.5856 H   0  0  0  0  0  0  0  0  0  0  0  0
    1.0922   -1.2118    2.1642 H   0  0  0  0  0  0  0  0  0  0  0  0
    2.8146   -0.0100    4.4294 H   0  0  0  0  0  0  0  0  0  0  0  0
    4.4609    0.3629    2.6605 H   0  0  0  0  0  0  0  0  0  0  0  0
    3.0622   -1.7999    1.3337 H   0  0  0  0  0  0  0  0  0  0  0  0
    3.1871   -0.1711    0.6606 H   0  0  0  0  0  0  0  0  0  0  0  0
    5.4711   -2.0920    1.3001 H   0  0  0  0  0  0  0  0  0  0  0  0
    5.4181    0.3915   -0.0633 H   0  0  0  0  0  0  0  0  0  0  0  0
    6.9086   -2.2815   -1.0807 H   0  0  0  0  0  0  0  0  0  0  0  0
    6.6064   -3.4529   -3.2503 H   0  0  0  0  0  0  0  0  0  0  0  0
    3.4178   -4.4974   -4.3479 H   0  0  0  0  0  0  0  0  0  0  0  0
    2.3149   -3.2779   -2.7624 H   0  0  0  0  0  0  0  0  0  0  0  0
    2.6033   -2.1118   -0.6915 H   0  0  0  0  0  0  0  0  0  0  0  0
    2.1628    1.4315    1.8180 H   0  0  0  0  0  0  0  0  0  0  0  0
    2.7449    2.1128    3.3466 H   0  0  0  0  0  0  0  0  0  0  0  0
    4.3016   -1.1904    3.1926 H   0  0  0  0  0  0  0  0  0  0  0  0
  1  2  2  0
  2  3  1  0
  2  4  1  0
  4  8  1  0
  4  5  2  0
  5  6  1  0
  5 24  1  0
  6 23  1  0
  6  7  1  0
  7  8  2  0
  7  9  1  0
  9 10  1  0
 10 11  1  0
 10 25  1  0
 10 26  1  0
 11 12  1  0
 11 23  1  0
 11 27  1  1
 12 13  1  0
 12 28  1  0
 12 40  1  0
 13 14  1  0
 13 29  1  0
 13 30  1  0
 14 15  1  0
 14 16  1  0
 14 31  1  1
 15 32  1  0
 16 22  1  0
 16 17  2  0
 17 18  1  0
 17 33  1  0
 18 19  2  0
 18 34  1  0
 19 20  1  0
 19 21  1  0
 20 35  1  0
 21 22  2  0
 21 36  1  0
 22 37  1  0
 23 38  1  0
 23 39  1  0
M  CHG  3   2   1   3  -1  12   1
M  END
>  <i_m_ct_stereo_status>  (111) 
1

>  <s_m_source_file>  (111) 
/var/tmp/pbs.5076255.sched01/tmpco4mv84g/486h_uxm9x.sdf

>  <i_m_source_file_index>  (111) 
6

>  <i_lp_mmshare_version>  (111) 
48012

>  <i_f3d_flags>  (111) 
0

>  <s_epik_input>  (111) 
Tz1bTitdKFtPLV0pYyhbY0hdMSluYyhuMTIpT1tDSDJdW0NASF0oW0NIMl0yKVtOSF1bQ0gyXVtDQEhdKFtPSF0pYzNbY0hdW2NIXWMoW09IXSlbY0hdW2NIXTM=

>  <s_epik_cmdline>  (111) 
J2VwaWtfcHl0aG9uJywgJy1waHQnLCAnMi4wJywgJy1waCcsICc3LjAnLCAnLXRuJywgJzgnLCAnLW1hJywgJzIwMCcsICctaW1hZScsICc8aW5maWxlLm1hZT4nLCAnLW9tYWUnLCAnPG91dGZpbGUubWFlPic=

>  <r_lp_tautomer_probability>  (111) 
1

>  <r_epik_Ionization_Penalty>  (111) 
0.240725

>  <r_epik_Ionization_Penalty_Charging>  (111) 
0.238826

>  <r_epik_Ionization_Penalty_Neutral>  (111) 
0.00189825

>  <r_epik_State_Penalty>  (111) 
0.229737

>  <r_epik_Charging_Adjusted_Penalty>  (111) 
0.468563

>  <i_epik_Tot_Q>  (111) 
1

>  <i_epik_Tot_abs_Q>  (111) 
3

>  <s_lp_Force_Field>  (111) 
OPLS3e

>  <r_lp_Energy>  (111) 
28.8255

>  <b_lp_Chiralities_Consistent>  (111) 
1

>  <s_lp_Variant>  (111) 
29:0-1

>  <s_i_glide_gridfile>  (111) 
pfpi4k_grid

>  <i_i_glide_lignum>  (111) 
6

>  <i_i_glide_rotatable_bonds>  (111) 
7

>  <r_i_docking_score>  (111) 
-4.52834

>  <r_i_glide_ligand_efficiency>  (111) 
-0.196884

>  <r_i_glide_ligand_efficiency_sa>  (111) 
-0.559912

>  <r_i_glide_ligand_efficiency_ln>  (111) 
-1.09499

>  <r_i_glide_gscore>  (111) 
-4.52834

>  <r_i_glide_lipo>  (111) 
-0.387429

>  <r_i_glide_hbond>  (111) 
-0.340275

>  <r_i_glide_metal>  (111) 
-0

>  <r_i_glide_rewards>  (111) 
-1.21835

>  <r_i_glide_evdw>  (111) 
-29.3677

>  <r_i_glide_ecoul>  (111) 
-10.7179

>  <r_i_glide_erotb>  (111) 
0.723941

>  <r_i_glide_esite>  (111) 
-0.230149

>  <r_i_glide_emodel>  (111) 
-50.5268

>  <r_i_glide_energy>  (111) 
-40.0856

>  <r_i_glide_einternal>  (111) 
6.01032

>  <r_i_glide_intrahb_reward>  (111) 
-0

>  <i_i_glide_confnum>  (111) 
3

>  <i_i_glide_posenum>  (111) 
24

>  <r_i_glide_eff_state_penalty>  (111) 
0

>  <ligand_id>  (111) 
29

>  <original_smiles>  (111) 
O=[N+]([O-])c1cn2c(n1)OCC(NCC(O)c1ccc(O)cc1)C2

>  <smiles>  (111) 
[H]Oc1c([H])c([H])c(C([H])(O[H])C([H])([H])[N+]([H])([H])C2([H])C([H])([H])Oc3nc([N+](=O)[O-])c([H])n3C2([H])[H])c([H])c1[H]

$$$$
29:0:2
     RDKit          3D

 40 42  0  0  1  0  0  0  0  0999 V2000
   -2.1466    1.7498    8.1968 O   0  0  0  0  0  0  0  0  0  0  0  0
   -2.2386    2.3862    7.1478 N   0  0  0  0  0  0  0  0  0  0  0  0
   -2.9861    3.3466    6.9651 O   0  0  0  0  0  0  0  0  0  0  0  0
   -1.3980    1.9743    6.0592 C   0  0  0  0  0  0  0  0  0  0  0  0
   -0.1847    1.3401    6.1709 C   0  0  0  0  0  0  0  0  0  0  0  0
    0.2545    1.1581    4.8660 N   0  0  0  0  0  0  0  0  0  0  0  0
   -0.6766    1.6839    4.0639 C   0  0  0  0  0  0  0  0  0  0  0  0
   -1.7150    2.1880    4.7084 N   0  0  0  0  0  0  0  0  0  0  0  0
   -0.5331    1.6215    2.7353 O   0  0  0  0  0  0  0  0  0  0  0  0
    0.7644    1.4195    2.2253 C   0  0  0  0  0  0  0  0  0  0  0  0
    1.4895    0.2611    2.9527 C   0  0  1  0  0  0  0  0  0  0  0  0
    2.8821    0.0547    2.4729 N   0  0  0  0  0  0  0  0  0  0  0  0
    2.9929   -0.6038    1.1693 C   0  0  0  0  0  0  0  0  0  0  0  0
    4.4394   -1.0165    0.8468 C   0  0  2  0  0  0  0  0  0  0  0  0
    5.2679    0.1074    0.8997 O   0  0  0  0  0  0  0  0  0  0  0  0
    4.5614   -1.7505   -0.4781 C   0  0  0  0  0  0  0  0  0  0  0  0
    4.7634   -3.1473   -0.4729 C   0  0  0  0  0  0  0  0  0  0  0  0
    4.8742   -3.8563   -1.6860 C   0  0  0  0  0  0  0  0  0  0  0  0
    4.7713   -3.1730   -2.9145 C   0  0  0  0  0  0  0  0  0  0  0  0
    4.8401   -3.8662   -4.0810 O   0  0  0  0  0  0  0  0  0  0  0  0
    4.5771   -1.7792   -2.9306 C   0  0  0  0  0  0  0  0  0  0  0  0
    4.4713   -1.0665   -1.7161 C   0  0  0  0  0  0  0  0  0  0  0  0
    1.5047    0.5546    4.4657 C   0  0  0  0  0  0  0  0  0  0  0  0
    0.3802    1.0373    7.0422 H   0  0  0  0  0  0  0  0  0  0  0  0
    0.6832    1.1940    1.1574 H   0  0  0  0  0  0  0  0  0  0  0  0
    1.3469    2.3434    2.3011 H   0  0  0  0  0  0  0  0  0  0  0  0
    0.9139   -0.6567    2.7960 H   0  0  0  0  0  0  0  0  0  0  0  0
    3.3649    0.9464    2.4376 H   0  0  0  0  0  0  0  0  0  0  0  0
    2.3539   -1.4886    1.1294 H   0  0  0  0  0  0  0  0  0  0  0  0
    2.6104    0.0760    0.4172 H   0  0  0  0  0  0  0  0  0  0  0  0
    4.7925   -1.6829    1.6350 H   0  0  0  0  0  0  0  0  0  0  0  0
    5.0517    0.7110    0.1891 H   0  0  0  0  0  0  0  0  0  0  0  0
    4.8352   -3.6866    0.4585 H   0  0  0  0  0  0  0  0  0  0  0  0
    5.0151   -4.9248   -1.6659 H   0  0  0  0  0  0  0  0  0  0  0  0
    4.8875   -4.7949   -3.9296 H   0  0  0  0  0  0  0  0  0  0  0  0
    4.4987   -1.2578   -3.8733 H   0  0  0  0  0  0  0  0  0  0  0  0
    4.3162   -0.0021   -1.7554 H   0  0  0  0  0  0  0  0  0  0  0  0
    2.2937    1.2700    4.7118 H   0  0  0  0  0  0  0  0  0  0  0  0
    1.6724   -0.3574    5.0455 H   0  0  0  0  0  0  0  0  0  0  0  0
    3.3547   -0.5318    3.1450 H   0  0  0  0  0  0  0  0  0  0  0  0
  1  2  2  0
  2  3  1  0
  2  4  1  0
  4  8  1  0
  4  5  2  0
  5  6  1  0
  5 24  1  0
  6 23  1  0
  6  7  1  0
  7  8  2  0
  7  9  1  0
  9 10  1  0
 10 11  1  0
 10 25  1  0
 10 26  1  0
 11 12  1  0
 11 23  1  0
 11 27  1  1
 12 13  1  0
 12 28  1  0
 12 40  1  0
 13 14  1  0
 13 29  1  0
 13 30  1  0
 14 15  1  0
 14 16  1  0
 14 31  1  1
 15 32  1  0
 16 22  1  0
 16 17  2  0
 17 18  1  0
 17 33  1  0
 18 19  2  0
 18 34  1  0
 19 20  1  0
 19 21  1  0
 20 35  1  0
 21 22  2  0
 21 36  1  0
 22 37  1  0
 23 38  1  0
 23 39  1  0
M  CHG  3   2   1   3  -1  12   1
M  END
>  <i_m_ct_stereo_status>  (112) 
1

>  <s_m_source_file>  (112) 
/var/tmp/pbs.5076255.sched01/tmpco4mv84g/486h_uxm9x.sdf

>  <i_m_source_file_index>  (112) 
6

>  <i_lp_mmshare_version>  (112) 
48012

>  <i_f3d_flags>  (112) 
0

>  <s_epik_input>  (112) 
Tz1bTitdKFtPLV0pYyhbY0hdMSluYyhuMTIpT1tDSDJdW0NASF0oW0NIMl0yKVtOSF1bQ0gyXVtDQEhdKFtPSF0pYzNbY0hdW2NIXWMoW09IXSlbY0hdW2NIXTM=

>  <s_epik_cmdline>  (112) 
J2VwaWtfcHl0aG9uJywgJy1waHQnLCAnMi4wJywgJy1waCcsICc3LjAnLCAnLXRuJywgJzgnLCAnLW1hJywgJzIwMCcsICctaW1hZScsICc8aW5maWxlLm1hZT4nLCAnLW9tYWUnLCAnPG91dGZpbGUubWFlPic=

>  <r_lp_tautomer_probability>  (112) 
1

>  <r_epik_Ionization_Penalty>  (112) 
0.240725

>  <r_epik_Ionization_Penalty_Charging>  (112) 
0.238826

>  <r_epik_Ionization_Penalty_Neutral>  (112) 
0.00189825

>  <r_epik_State_Penalty>  (112) 
0.229737

>  <r_epik_Charging_Adjusted_Penalty>  (112) 
0.468563

>  <i_epik_Tot_Q>  (112) 
1

>  <i_epik_Tot_abs_Q>  (112) 
3

>  <s_lp_Force_Field>  (112) 
OPLS3e

>  <r_lp_Energy>  (112) 
28.8255

>  <b_lp_Chiralities_Consistent>  (112) 
1

>  <s_lp_Variant>  (112) 
29:0-1

>  <s_i_glide_gridfile>  (112) 
pfpi4k_grid

>  <i_i_glide_lignum>  (112) 
6

>  <i_i_glide_rotatable_bonds>  (112) 
7

>  <r_i_docking_score>  (112) 
-4.29257

>  <r_i_glide_ligand_efficiency>  (112) 
-0.186633

>  <r_i_glide_ligand_efficiency_sa>  (112) 
-0.530761

>  <r_i_glide_ligand_efficiency_ln>  (112) 
-1.03798

>  <r_i_glide_gscore>  (112) 
-4.29257

>  <r_i_glide_lipo>  (112) 
-0.230956

>  <r_i_glide_hbond>  (112) 
-0.498664

>  <r_i_glide_metal>  (112) 
-0

>  <r_i_glide_rewards>  (112) 
-1.27128

>  <r_i_glide_evdw>  (112) 
-27.7354

>  <r_i_glide_ecoul>  (112) 
-10.3368

>  <r_i_glide_erotb>  (112) 
0.723941

>  <r_i_glide_esite>  (112) 
-0.0783152

>  <r_i_glide_emodel>  (112) 
-50.0974

>  <r_i_glide_energy>  (112) 
-38.0723

>  <r_i_glide_einternal>  (112) 
1.80242

>  <r_i_glide_intrahb_reward>  (112) 
-0

>  <i_i_glide_confnum>  (112) 
2

>  <i_i_glide_posenum>  (112) 
25

>  <r_i_glide_eff_state_penalty>  (112) 
0

>  <ligand_id>  (112) 
29

>  <original_smiles>  (112) 
O=[N+]([O-])c1cn2c(n1)OCC(NCC(O)c1ccc(O)cc1)C2

>  <smiles>  (112) 
[H]Oc1c([H])c([H])c(C([H])(O[H])C([H])([H])[N+]([H])([H])C2([H])C([H])([H])Oc3nc([N+](=O)[O-])c([H])n3C2([H])[H])c([H])c1[H]

$$$$
29:1:0
     RDKit          3D

 39 41  0  0  1  0  0  0  0  0999 V2000
   -1.6392   -7.6435    2.8787 O   0  0  0  0  0  0  0  0  0  0  0  0
   -0.7617   -8.4912    2.7001 N   0  0  0  0  0  0  0  0  0  0  0  0
   -0.9216   -9.6935    2.8766 O   0  0  0  0  0  0  0  0  0  0  0  0
    0.5191   -8.0235    2.2321 C   0  0  0  0  0  0  0  0  0  0  0  0
    0.7833   -6.7542    1.7740 C   0  0  0  0  0  0  0  0  0  0  0  0
    2.1208   -6.7387    1.4073 N   0  0  0  0  0  0  0  0  0  0  0  0
    2.5688   -7.9692    1.6574 C   0  0  0  0  0  0  0  0  0  0  0  0
    1.6814   -8.7960    2.1709 N   0  0  0  0  0  0  0  0  0  0  0  0
    3.8638   -8.2912    1.3963 O   0  0  0  0  0  0  0  0  0  0  0  0
    4.5555   -7.4270    0.5091 C   0  0  0  0  0  0  0  0  0  0  0  0
    4.3556   -5.9562    0.8816 C   0  0  1  0  0  0  0  0  0  0  0  0
    5.0965   -5.0870   -0.0233 N   0  0  0  0  0  0  0  0  0  0  0  0
    5.4291   -3.7828    0.5465 C   0  0  0  0  0  0  0  0  0  0  0  0
    6.2577   -2.9254   -0.4250 C   0  0  2  0  0  0  0  0  0  0  0  0
    6.8753   -1.8927    0.3182 O   0  0  0  0  0  0  0  0  0  0  0  0
    5.4144   -2.4105   -1.5842 C   0  0  0  0  0  0  0  0  0  0  0  0
    4.9944   -3.3058   -2.6004 C   0  0  0  0  0  0  0  0  0  0  0  0
    4.1663   -2.8597   -3.6456 C   0  0  0  0  0  0  0  0  0  0  0  0
    3.7910   -1.5067   -3.7025 C   0  0  0  0  0  0  0  0  0  0  0  0
    3.0254   -1.0331   -4.7184 O   0  0  0  0  0  0  0  0  0  0  0  0
    4.2126   -0.6083   -2.7117 C   0  0  0  0  0  0  0  0  0  0  0  0
    5.0112   -1.0589   -1.6459 C   0  0  0  0  0  0  0  0  0  0  0  0
    2.8530   -5.6397    0.8440 C   0  0  0  0  0  0  0  0  0  0  0  0
    0.1527   -5.8947    1.6883 H   0  0  0  0  0  0  0  0  0  0  0  0
    5.5963   -7.6958    0.6288 H   0  0  0  0  0  0  0  0  0  0  0  0
    4.2719   -7.6574   -0.5148 H   0  0  0  0  0  0  0  0  0  0  0  0
    4.7284   -5.8460    1.9043 H   0  0  0  0  0  0  0  0  0  0  0  0
    4.5240   -4.9451   -0.8531 H   0  0  0  0  0  0  0  0  0  0  0  0
    4.5277   -3.2422    0.8450 H   0  0  0  0  0  0  0  0  0  0  0  0
    6.0047   -3.9525    1.4534 H   0  0  0  0  0  0  0  0  0  0  0  0
    7.0717   -3.5167   -0.8409 H   0  0  0  0  0  0  0  0  0  0  0  0
    6.2034   -1.4055    0.7714 H   0  0  0  0  0  0  0  0  0  0  0  0
    5.2814   -4.3468   -2.5737 H   0  0  0  0  0  0  0  0  0  0  0  0
    3.8351   -3.5641   -4.3974 H   0  0  0  0  0  0  0  0  0  0  0  0
    2.5562   -1.6725   -5.2463 H   0  0  0  0  0  0  0  0  0  0  0  0
    3.9159    0.4317   -2.7549 H   0  0  0  0  0  0  0  0  0  0  0  0
    5.2951   -0.3409   -0.8874 H   0  0  0  0  0  0  0  0  0  0  0  0
    2.5057   -5.5201   -0.1887 H   0  0  0  0  0  0  0  0  0  0  0  0
    2.6298   -4.7295    1.4060 H   0  0  0  0  0  0  0  0  0  0  0  0
  1  2  2  0
  2  3  1  0
  2  4  1  0
  4  8  1  0
  4  5  2  0
  5  6  1  0
  5 24  1  0
  6 23  1  0
  6  7  1  0
  7  8  2  0
  7  9  1  0
  9 10  1  0
 10 11  1  0
 10 25  1  0
 10 26  1  0
 11 12  1  0
 11 23  1  0
 11 27  1  1
 12 13  1  0
 12 28  1  0
 13 14  1  0
 13 29  1  0
 13 30  1  0
 14 15  1  0
 14 16  1  0
 14 31  1  6
 15 32  1  0
 16 22  1  0
 16 17  2  0
 17 18  1  0
 17 33  1  0
 18 19  2  0
 18 34  1  0
 19 20  1  0
 19 21  1  0
 20 35  1  0
 21 22  2  0
 21 36  1  0
 22 37  1  0
 23 38  1  0
 23 39  1  0
M  CHG  2   2   1   3  -1
M  END
>  <i_m_ct_stereo_status>  (113) 
1

>  <s_m_source_file>  (113) 
/var/tmp/pbs.5076255.sched01/tmpco4mv84g/486h_uxm9x.sdf

>  <i_m_source_file_index>  (113) 
7

>  <i_lp_mmshare_version>  (113) 
48012

>  <i_f3d_flags>  (113) 
0

>  <s_epik_input>  (113) 
Tz1bTitdKFtPLV0pYyhbY0hdMSluYyhuMTIpT1tDSDJdW0NASF0oW0NIMl0yKVtOSF1bQ0gyXVtDQEhdKFtPSF0pYzNbY0hdW2NIXWMoW09IXSlbY0hdW2NIXTM=

>  <s_epik_cmdline>  (113) 
J2VwaWtfcHl0aG9uJywgJy1waHQnLCAnMi4wJywgJy1waCcsICc3LjAnLCAnLXRuJywgJzgnLCAnLW1hJywgJzIwMCcsICctaW1hZScsICc8aW5maWxlLm1hZT4nLCAnLW9tYWUnLCAnPG91dGZpbGUubWFlPic=

>  <r_lp_tautomer_probability>  (113) 
1

>  <r_epik_Ionization_Penalty>  (113) 
0.654532

>  <r_epik_Ionization_Penalty_Charging>  (113) 
3.00536e-05

>  <r_epik_Ionization_Penalty_Neutral>  (113) 
0.654502

>  <r_epik_State_Penalty>  (113) 
0.672478

>  <r_epik_Charging_Adjusted_Penalty>  (113) 
0.672508

>  <i_epik_Tot_Q>  (113) 
0

>  <i_epik_Tot_abs_Q>  (113) 
2

>  <s_lp_Force_Field>  (113) 
OPLS3e

>  <r_lp_Energy>  (113) 
31.1729

>  <b_lp_Chiralities_Consistent>  (113) 
1

>  <s_lp_Variant>  (113) 
29:0-2

>  <s_i_glide_gridfile>  (113) 
pfpi4k_grid

>  <i_i_glide_lignum>  (113) 
7

>  <i_i_glide_rotatable_bonds>  (113) 
7

>  <r_i_docking_score>  (113) 
-4.43028

>  <r_i_glide_ligand_efficiency>  (113) 
-0.192621

>  <r_i_glide_ligand_efficiency_sa>  (113) 
-0.547788

>  <r_i_glide_ligand_efficiency_ln>  (113) 
-1.07128

>  <r_i_glide_gscore>  (113) 
-4.43028

>  <r_i_glide_lipo>  (113) 
-0.943812

>  <r_i_glide_hbond>  (113) 
-0.429788

>  <r_i_glide_metal>  (113) 
-0

>  <r_i_glide_rewards>  (113) 
-1.22522

>  <r_i_glide_evdw>  (113) 
-33.4977

>  <r_i_glide_ecoul>  (113) 
-4.85343

>  <r_i_glide_erotb>  (113) 
0.727961

>  <r_i_glide_esite>  (113) 
-0.156519

>  <r_i_glide_emodel>  (113) 
-48.4034

>  <r_i_glide_energy>  (113) 
-38.3511

>  <r_i_glide_einternal>  (113) 
3.73102

>  <r_i_glide_intrahb_reward>  (113) 
-0

>  <i_i_glide_confnum>  (113) 
3

>  <i_i_glide_posenum>  (113) 
4

>  <r_i_glide_eff_state_penalty>  (113) 
0

>  <ligand_id>  (113) 
29

>  <original_smiles>  (113) 
O=[N+]([O-])c1cn2c(n1)OCC(NCC(O)c1ccc(O)cc1)C2

>  <smiles>  (113) 
[H]Oc1c([H])c([H])c(C([H])(O[H])C([H])([H])N([H])C2([H])C([H])([H])Oc3nc([N+](=O)[O-])c([H])n3C2([H])[H])c([H])c1[H]

$$$$
29:1:1
     RDKit          3D

 39 41  0  0  1  0  0  0  0  0999 V2000
   -1.7715    4.2545    3.7005 O   0  0  0  0  0  0  0  0  0  0  0  0
   -1.8340    3.1929    4.3189 N   0  0  0  0  0  0  0  0  0  0  0  0
   -2.6080    2.9889    5.2520 O   0  0  0  0  0  0  0  0  0  0  0  0
   -0.9236    2.1432    3.9401 C   0  0  0  0  0  0  0  0  0  0  0  0
    0.1320    2.2567    3.0653 C   0  0  0  0  0  0  0  0  0  0  0  0
    0.7163    1.0014    3.0091 N   0  0  0  0  0  0  0  0  0  0  0  0
    0.0097    0.2118    3.8194 C   0  0  0  0  0  0  0  0  0  0  0  0
   -0.9827    0.8312    4.4394 N   0  0  0  0  0  0  0  0  0  0  0  0
    0.3560   -1.0794    3.9828 O   0  0  0  0  0  0  0  0  0  0  0  0
    1.1887   -1.6467    2.9920 C   0  0  0  0  0  0  0  0  0  0  0  0
    2.3816   -0.7390    2.6529 C   0  0  1  0  0  0  0  0  0  0  0  0
    3.2393   -1.3372    1.6399 N   0  0  0  0  0  0  0  0  0  0  0  0
    4.4617   -0.5738    1.3932 C   0  0  0  0  0  0  0  0  0  0  0  0
    5.4943   -1.4209    0.6412 C   0  0  2  0  0  0  0  0  0  0  0  0
    6.6531   -0.6548    0.4640 O   0  0  0  0  0  0  0  0  0  0  0  0
    4.9824   -1.9193   -0.6935 C   0  0  0  0  0  0  0  0  0  0  0  0
    5.1389   -3.2744   -1.0465 C   0  0  0  0  0  0  0  0  0  0  0  0
    4.6394   -3.7292   -2.2804 C   0  0  0  0  0  0  0  0  0  0  0  0
    3.9677   -2.8464   -3.1516 C   0  0  0  0  0  0  0  0  0  0  0  0
    3.4389   -3.3061   -4.3174 O   0  0  0  0  0  0  0  0  0  0  0  0
    3.8264   -1.4905   -2.8131 C   0  0  0  0  0  0  0  0  0  0  0  0
    4.3482   -1.0330   -1.5927 C   0  0  0  0  0  0  0  0  0  0  0  0
    1.8513    0.6329    2.1986 C   0  0  0  0  0  0  0  0  0  0  0  0
    0.4950    3.0971    2.4927 H   0  0  0  0  0  0  0  0  0  0  0  0
    1.5425   -2.6072    3.3729 H   0  0  0  0  0  0  0  0  0  0  0  0
    0.6122   -1.8532    2.0923 H   0  0  0  0  0  0  0  0  0  0  0  0
    2.9484   -0.6181    3.5802 H   0  0  0  0  0  0  0  0  0  0  0  0
    2.7161   -1.3977    0.7621 H   0  0  0  0  0  0  0  0  0  0  0  0
    4.2358    0.3392    0.8409 H   0  0  0  0  0  0  0  0  0  0  0  0
    4.8851   -0.2461    2.3418 H   0  0  0  0  0  0  0  0  0  0  0  0
    5.7623   -2.2747    1.2678 H   0  0  0  0  0  0  0  0  0  0  0  0
    6.9651   -0.3169    1.2949 H   0  0  0  0  0  0  0  0  0  0  0  0
    5.6187   -3.9651   -0.3675 H   0  0  0  0  0  0  0  0  0  0  0  0
    4.7405   -4.7683   -2.5399 H   0  0  0  0  0  0  0  0  0  0  0  0
    2.7372   -2.7687   -4.6418 H   0  0  0  0  0  0  0  0  0  0  0  0
    3.3161   -0.7979   -3.4664 H   0  0  0  0  0  0  0  0  0  0  0  0
    4.2354    0.0073   -1.3388 H   0  0  0  0  0  0  0  0  0  0  0  0
    1.5041    0.5889    1.1604 H   0  0  0  0  0  0  0  0  0  0  0  0
    2.6278    1.3993    2.2869 H   0  0  0  0  0  0  0  0  0  0  0  0
  1  2  2  0
  2  3  1  0
  2  4  1  0
  4  8  1  0
  4  5  2  0
  5  6  1  0
  5 24  1  0
  6 23  1  0
  6  7  1  0
  7  8  2  0
  7  9  1  0
  9 10  1  0
 10 11  1  0
 10 25  1  0
 10 26  1  0
 11 12  1  0
 11 23  1  0
 11 27  1  1
 12 13  1  0
 12 28  1  0
 13 14  1  0
 13 29  1  0
 13 30  1  0
 14 15  1  0
 14 16  1  0
 14 31  1  1
 15 32  1  0
 16 22  1  0
 16 17  2  0
 17 18  1  0
 17 33  1  0
 18 19  2  0
 18 34  1  0
 19 20  1  0
 19 21  1  0
 20 35  1  0
 21 22  2  0
 21 36  1  0
 22 37  1  0
 23 38  1  0
 23 39  1  0
M  CHG  2   2   1   3  -1
M  END
>  <i_m_ct_stereo_status>  (114) 
1

>  <s_m_source_file>  (114) 
/var/tmp/pbs.5076255.sched01/tmpco4mv84g/486h_uxm9x.sdf

>  <i_m_source_file_index>  (114) 
7

>  <i_lp_mmshare_version>  (114) 
48012

>  <i_f3d_flags>  (114) 
0

>  <s_epik_input>  (114) 
Tz1bTitdKFtPLV0pYyhbY0hdMSluYyhuMTIpT1tDSDJdW0NASF0oW0NIMl0yKVtOSF1bQ0gyXVtDQEhdKFtPSF0pYzNbY0hdW2NIXWMoW09IXSlbY0hdW2NIXTM=

>  <s_epik_cmdline>  (114) 
J2VwaWtfcHl0aG9uJywgJy1waHQnLCAnMi4wJywgJy1waCcsICc3LjAnLCAnLXRuJywgJzgnLCAnLW1hJywgJzIwMCcsICctaW1hZScsICc8aW5maWxlLm1hZT4nLCAnLW9tYWUnLCAnPG91dGZpbGUubWFlPic=

>  <r_lp_tautomer_probability>  (114) 
1

>  <r_epik_Ionization_Penalty>  (114) 
0.654532

>  <r_epik_Ionization_Penalty_Charging>  (114) 
3.00536e-05

>  <r_epik_Ionization_Penalty_Neutral>  (114) 
0.654502

>  <r_epik_State_Penalty>  (114) 
0.672478

>  <r_epik_Charging_Adjusted_Penalty>  (114) 
0.672508

>  <i_epik_Tot_Q>  (114) 
0

>  <i_epik_Tot_abs_Q>  (114) 
2

>  <s_lp_Force_Field>  (114) 
OPLS3e

>  <r_lp_Energy>  (114) 
31.1729

>  <b_lp_Chiralities_Consistent>  (114) 
1

>  <s_lp_Variant>  (114) 
29:0-2

>  <s_i_glide_gridfile>  (114) 
pfpi4k_grid

>  <i_i_glide_lignum>  (114) 
7

>  <i_i_glide_rotatable_bonds>  (114) 
7

>  <r_i_docking_score>  (114) 
-4.39549

>  <r_i_glide_ligand_efficiency>  (114) 
-0.191108

>  <r_i_glide_ligand_efficiency_sa>  (114) 
-0.543487

>  <r_i_glide_ligand_efficiency_ln>  (114) 
-1.06287

>  <r_i_glide_gscore>  (114) 
-4.39549

>  <r_i_glide_lipo>  (114) 
-0.367662

>  <r_i_glide_hbond>  (114) 
-0.456612

>  <r_i_glide_metal>  (114) 
-0

>  <r_i_glide_rewards>  (114) 
-1.22522

>  <r_i_glide_evdw>  (114) 
-27.6859

>  <r_i_glide_ecoul>  (114) 
-9.96538

>  <r_i_glide_erotb>  (114) 
0.727961

>  <r_i_glide_esite>  (114) 
-0.194855

>  <r_i_glide_emodel>  (114) 
-48.0009

>  <r_i_glide_energy>  (114) 
-37.6512

>  <r_i_glide_einternal>  (114) 
2.81507

>  <r_i_glide_intrahb_reward>  (114) 
-0

>  <i_i_glide_confnum>  (114) 
3

>  <i_i_glide_posenum>  (114) 
1

>  <r_i_glide_eff_state_penalty>  (114) 
0

>  <ligand_id>  (114) 
29

>  <original_smiles>  (114) 
O=[N+]([O-])c1cn2c(n1)OCC(NCC(O)c1ccc(O)cc1)C2

>  <smiles>  (114) 
[H]Oc1c([H])c([H])c(C([H])(O[H])C([H])([H])N([H])C2([H])C([H])([H])Oc3nc([N+](=O)[O-])c([H])n3C2([H])[H])c([H])c1[H]

$$$$
29:1:2
     RDKit          3D

 39 41  0  0  1  0  0  0  0  0999 V2000
   -2.9327    2.9457    2.7034 O   0  0  0  0  0  0  0  0  0  0  0  0
   -2.0452    3.1162    3.5348 N   0  0  0  0  0  0  0  0  0  0  0  0
   -2.1739    3.7755    4.5688 O   0  0  0  0  0  0  0  0  0  0  0  0
   -0.7768    2.4906    3.2911 C   0  0  0  0  0  0  0  0  0  0  0  0
   -0.4814    1.5938    2.2919 C   0  0  0  0  0  0  0  0  0  0  0  0
    0.8542    1.2643    2.4648 N   0  0  0  0  0  0  0  0  0  0  0  0
    1.2818    1.9453    3.5358 C   0  0  0  0  0  0  0  0  0  0  0  0
    0.3529    2.7079    4.0941 N   0  0  0  0  0  0  0  0  0  0  0  0
    2.5654    1.8473    3.9436 O   0  0  0  0  0  0  0  0  0  0  0  0
    3.2967    0.7217    3.4996 C   0  0  0  0  0  0  0  0  0  0  0  0
    3.1198    0.4822    1.9901 C   0  0  1  0  0  0  0  0  0  0  0  0
    3.8483   -0.6930    1.5474 N   0  0  0  0  0  0  0  0  0  0  0  0
    5.2945   -0.4928    1.3643 C   0  0  0  0  0  0  0  0  0  0  0  0
    5.9282   -1.6907    0.6263 C   0  0  2  0  0  0  0  0  0  0  0  0
    7.3057   -1.4390    0.4623 O   0  0  0  0  0  0  0  0  0  0  0  0
    5.2762   -1.9993   -0.7235 C   0  0  0  0  0  0  0  0  0  0  0  0
    5.5111   -3.2499   -1.3383 C   0  0  0  0  0  0  0  0  0  0  0  0
    4.8885   -3.5566   -2.5653 C   0  0  0  0  0  0  0  0  0  0  0  0
    4.0129   -2.6253   -3.1633 C   0  0  0  0  0  0  0  0  0  0  0  0
    3.3717   -2.9379   -4.3173 O   0  0  0  0  0  0  0  0  0  0  0  0
    3.7831   -1.3757   -2.5682 C   0  0  0  0  0  0  0  0  0  0  0  0
    4.4345   -1.0623   -1.3734 C   0  0  0  0  0  0  0  0  0  0  0  0
    1.6193    0.3378    1.6634 C   0  0  0  0  0  0  0  0  0  0  0  0
   -1.0857    1.1954    1.4945 H   0  0  0  0  0  0  0  0  0  0  0  0
    4.3494    0.8981    3.7259 H   0  0  0  0  0  0  0  0  0  0  0  0
    2.9851   -0.1710    4.0569 H   0  0  0  0  0  0  0  0  0  0  0  0
    3.4789    1.3557    1.4465 H   0  0  0  0  0  0  0  0  0  0  0  0
    3.4430   -1.0052    0.6653 H   0  0  0  0  0  0  0  0  0  0  0  0
    5.4682    0.4034    0.7676 H   0  0  0  0  0  0  0  0  0  0  0  0
    5.7805   -0.3100    2.3232 H   0  0  0  0  0  0  0  0  0  0  0  0
    5.8305   -2.5704    1.2662 H   0  0  0  0  0  0  0  0  0  0  0  0
    7.6611   -1.1467    1.2858 H   0  0  0  0  0  0  0  0  0  0  0  0
    6.1563   -3.9774   -0.8667 H   0  0  0  0  0  0  0  0  0  0  0  0
    5.0456   -4.5147   -3.0309 H   0  0  0  0  0  0  0  0  0  0  0  0
    2.6498   -2.3584   -4.5129 H   0  0  0  0  0  0  0  0  0  0  0  0
    3.1045   -0.6568   -2.9957 H   0  0  0  0  0  0  0  0  0  0  0  0
    4.2207   -0.0926   -0.9607 H   0  0  0  0  0  0  0  0  0  0  0  0
    1.2624   -0.6668    1.8963 H   0  0  0  0  0  0  0  0  0  0  0  0
    1.4332    0.5452    0.6062 H   0  0  0  0  0  0  0  0  0  0  0  0
  1  2  2  0
  2  3  1  0
  2  4  1  0
  4  8  1  0
  4  5  2  0
  5  6  1  0
  5 24  1  0
  6 23  1  0
  6  7  1  0
  7  8  2  0
  7  9  1  0
  9 10  1  0
 10 11  1  0
 10 25  1  0
 10 26  1  0
 11 12  1  0
 11 23  1  0
 11 27  1  6
 12 13  1  0
 12 28  1  0
 13 14  1  0
 13 29  1  0
 13 30  1  0
 14 15  1  0
 14 16  1  0
 14 31  1  1
 15 32  1  0
 16 22  1  0
 16 17  2  0
 17 18  1  0
 17 33  1  0
 18 19  2  0
 18 34  1  0
 19 20  1  0
 19 21  1  0
 20 35  1  0
 21 22  2  0
 21 36  1  0
 22 37  1  0
 23 38  1  0
 23 39  1  0
M  CHG  2   2   1   3  -1
M  END
>  <i_m_ct_stereo_status>  (115) 
1

>  <s_m_source_file>  (115) 
/var/tmp/pbs.5076255.sched01/tmpco4mv84g/486h_uxm9x.sdf

>  <i_m_source_file_index>  (115) 
7

>  <i_lp_mmshare_version>  (115) 
48012

>  <i_f3d_flags>  (115) 
0

>  <s_epik_input>  (115) 
Tz1bTitdKFtPLV0pYyhbY0hdMSluYyhuMTIpT1tDSDJdW0NASF0oW0NIMl0yKVtOSF1bQ0gyXVtDQEhdKFtPSF0pYzNbY0hdW2NIXWMoW09IXSlbY0hdW2NIXTM=

>  <s_epik_cmdline>  (115) 
J2VwaWtfcHl0aG9uJywgJy1waHQnLCAnMi4wJywgJy1waCcsICc3LjAnLCAnLXRuJywgJzgnLCAnLW1hJywgJzIwMCcsICctaW1hZScsICc8aW5maWxlLm1hZT4nLCAnLW9tYWUnLCAnPG91dGZpbGUubWFlPic=

>  <r_lp_tautomer_probability>  (115) 
1

>  <r_epik_Ionization_Penalty>  (115) 
0.654532

>  <r_epik_Ionization_Penalty_Charging>  (115) 
3.00536e-05

>  <r_epik_Ionization_Penalty_Neutral>  (115) 
0.654502

>  <r_epik_State_Penalty>  (115) 
0.672478

>  <r_epik_Charging_Adjusted_Penalty>  (115) 
0.672508

>  <i_epik_Tot_Q>  (115) 
0

>  <i_epik_Tot_abs_Q>  (115) 
2

>  <s_lp_Force_Field>  (115) 
OPLS3e

>  <r_lp_Energy>  (115) 
31.1729

>  <b_lp_Chiralities_Consistent>  (115) 
1

>  <s_lp_Variant>  (115) 
29:0-2

>  <s_i_glide_gridfile>  (115) 
pfpi4k_grid

>  <i_i_glide_lignum>  (115) 
7

>  <i_i_glide_rotatable_bonds>  (115) 
7

>  <r_i_docking_score>  (115) 
-4.38729

>  <r_i_glide_ligand_efficiency>  (115) 
-0.190752

>  <r_i_glide_ligand_efficiency_sa>  (115) 
-0.542472

>  <r_i_glide_ligand_efficiency_ln>  (115) 
-1.06089

>  <r_i_glide_gscore>  (115) 
-4.38729

>  <r_i_glide_lipo>  (115) 
-0.64267

>  <r_i_glide_hbond>  (115) 
-0.325936

>  <r_i_glide_metal>  (115) 
-0

>  <r_i_glide_rewards>  (115) 
-1.22522

>  <r_i_glide_evdw>  (115) 
-32.9873

>  <r_i_glide_ecoul>  (115) 
-7.34247

>  <r_i_glide_erotb>  (115) 
0.727961

>  <r_i_glide_esite>  (115) 
-0.170681

>  <r_i_glide_emodel>  (115) 
-50.7192

>  <r_i_glide_energy>  (115) 
-40.3298

>  <r_i_glide_einternal>  (115) 
2.86127

>  <r_i_glide_intrahb_reward>  (115) 
-0

>  <i_i_glide_confnum>  (115) 
3

>  <i_i_glide_posenum>  (115) 
14

>  <r_i_glide_eff_state_penalty>  (115) 
0

>  <ligand_id>  (115) 
29

>  <original_smiles>  (115) 
O=[N+]([O-])c1cn2c(n1)OCC(NCC(O)c1ccc(O)cc1)C2

>  <smiles>  (115) 
[H]Oc1c([H])c([H])c(C([H])(O[H])C([H])([H])N([H])C2([H])C([H])([H])Oc3nc([N+](=O)[O-])c([H])n3C2([H])[H])c([H])c1[H]

$$$$
30:0:0
     RDKit          3D

 25 27  0  0  1  0  0  0  0  0999 V2000
   -2.9800    3.2850    8.6232 C   0  0  0  0  0  0  0  0  0  0  0  0
   -2.4207    2.6688    7.3968 C   0  0  0  0  0  0  0  0  0  0  0  0
   -2.1750    1.3364    7.2670 N   0  0  0  0  0  0  0  0  0  0  0  0
   -1.7085    1.1776    6.0727 N   0  0  0  0  0  0  0  0  0  0  0  0
   -1.6652    2.4167    5.5230 N   0  0  0  0  0  0  0  0  0  0  0  0
   -1.2891    2.6382    4.1389 C   0  0  0  0  0  0  0  0  0  0  0  0
   -0.2771    3.7343    3.9636 C   0  0  0  0  0  0  0  0  0  0  0  0
   -0.5818    5.0219    4.0693 N   0  0  0  0  0  0  0  0  0  0  0  0
    0.6205    5.6601    3.8620 N   0  0  0  0  0  0  0  0  0  0  0  0
    1.5811    4.8131    3.6464 N   0  0  0  0  0  0  0  0  0  0  0  0
    1.0261    3.5735    3.6732 N   0  0  0  0  0  0  0  0  0  0  0  0
    1.8126    2.4128    3.4596 C   0  0  0  0  0  0  0  0  0  0  0  0
    2.9358    2.1092    4.0718 N   0  0  0  0  0  0  0  0  0  0  0  0
    3.3306    0.8743    3.5274 O   0  0  0  0  0  0  0  0  0  0  0  0
    2.4174    0.4400    2.5538 N   0  0  0  0  0  0  0  0  0  0  0  0
    1.5025    1.3781    2.5263 C   0  0  0  0  0  0  0  0  0  0  0  0
    0.3823    1.3044    1.6802 N   0  0  0  0  0  0  0  0  0  0  0  0
   -2.1368    3.3862    6.3253 N   0  0  0  0  0  0  0  0  0  0  0  0
   -3.3725    2.5218    9.2970 H   0  0  0  0  0  0  0  0  0  0  0  0
   -3.7807    3.9706    8.3526 H   0  0  0  0  0  0  0  0  0  0  0  0
   -2.2057    3.8426    9.1463 H   0  0  0  0  0  0  0  0  0  0  0  0
   -0.9287    1.6908    3.7603 H   0  0  0  0  0  0  0  0  0  0  0  0
   -2.1847    2.8907    3.5692 H   0  0  0  0  0  0  0  0  0  0  0  0
   -0.2289    2.0972    1.5482 H   0  0  0  0  0  0  0  0  0  0  0  0
    0.2833    0.5881    0.9666 H   0  0  0  0  0  0  0  0  0  0  0  0
  1  2  1  0
  1 19  1  0
  1 20  1  0
  1 21  1  0
  2 18  2  0
  2  3  1  0
  3  4  2  0
  4  5  1  0
  5  6  1  0
  5 18  1  0
  6  7  1  0
  6 22  1  0
  6 23  1  0
  7 11  1  0
  7  8  2  0
  8  9  1  0
  9 10  2  0
 10 11  1  0
 11 12  1  0
 12 16  1  0
 12 13  2  0
 13 14  1  0
 14 15  1  0
 15 16  2  0
 16 17  1  0
 17 24  1  0
 17 25  1  0
M  END
>  <i_m_ct_stereo_status>  (116) 
1

>  <s_m_source_file>  (116) 
/var/tmp/pbs.5076255.sched01/tmpco4mv84g/486h_uxm9x.sdf

>  <i_m_source_file_index>  (116) 
8

>  <i_lp_mmshare_version>  (116) 
48012

>  <i_f3d_flags>  (116) 
0

>  <s_epik_input>  (116) 
W0NIM11jMW5ubihuMSlbQ0gyXWMybm5ubjItYzNub1tuSF1jXDM9Ti9bSF0=

>  <s_epik_cmdline>  (116) 
J2VwaWtfcHl0aG9uJywgJy1waHQnLCAnMi4wJywgJy1waCcsICc3LjAnLCAnLXRuJywgJzgnLCAnLW1hJywgJzIwMCcsICctaW1hZScsICc8aW5maWxlLm1hZT4nLCAnLW9tYWUnLCAnPG91dGZpbGUubWFlPic=

>  <r_lp_tautomer_probability>  (116) 
1

>  <r_epik_Ionization_Penalty>  (116) 
0.000484005

>  <r_epik_Ionization_Penalty_Charging>  (116) 
0

>  <r_epik_Ionization_Penalty_Neutral>  (116) 
0.000484005

>  <r_epik_State_Penalty>  (116) 
0.000434378

>  <r_epik_Charging_Adjusted_Penalty>  (116) 
0.000434378

>  <i_epik_Tot_Q>  (116) 
0

>  <i_epik_Tot_abs_Q>  (116) 
0

>  <s_lp_Force_Field>  (116) 
OPLS3e

>  <r_lp_Energy>  (116) 
0.54744

>  <b_lp_Chiralities_Consistent>  (116) 
1

>  <s_lp_Variant>  (116) 
30:0-1

>  <s_i_glide_gridfile>  (116) 
pfpi4k_grid

>  <i_i_glide_lignum>  (116) 
8

>  <i_i_glide_rotatable_bonds>  (116) 
3

>  <r_i_docking_score>  (116) 
-3.988

>  <r_i_glide_ligand_efficiency>  (116) 
-0.221556

>  <r_i_glide_ligand_efficiency_sa>  (116) 
-0.58064

>  <r_i_glide_ligand_efficiency_ln>  (116) 
-1.0251

>  <r_i_glide_gscore>  (116) 
-3.988

>  <r_i_glide_lipo>  (116) 
-0.0535134

>  <r_i_glide_hbond>  (116) 
-0.10044

>  <r_i_glide_metal>  (116) 
-0

>  <r_i_glide_rewards>  (116) 
-1.90586

>  <r_i_glide_evdw>  (116) 
-22.6161

>  <r_i_glide_ecoul>  (116) 
-6.71163

>  <r_i_glide_erotb>  (116) 
0.844669

>  <r_i_glide_esite>  (116) 
-0.635305

>  <r_i_glide_emodel>  (116) 
-36.8907

>  <r_i_glide_energy>  (116) 
-29.3277

>  <r_i_glide_einternal>  (116) 
1.12341

>  <r_i_glide_intrahb_reward>  (116) 
-0

>  <i_i_glide_confnum>  (116) 
2

>  <i_i_glide_posenum>  (116) 
1

>  <r_i_glide_eff_state_penalty>  (116) 
0

>  <ligand_id>  (116) 
30

>  <original_smiles>  (116) 
Cc1nnn(Cc2nnnn2-c2no[nH]c2=N)n1

>  <smiles>  (116) 
[H]N([H])c1nonc1-n1nnnc1C([H])([H])n1nnc(C([H])([H])[H])n1

$$$$
30:0:1
     RDKit          3D

 25 27  0  0  1  0  0  0  0  0999 V2000
    4.7003   -6.6541    2.8104 C   0  0  0  0  0  0  0  0  0  0  0  0
    3.8309   -5.9045    1.8732 C   0  0  0  0  0  0  0  0  0  0  0  0
    2.7734   -6.4367    1.2091 N   0  0  0  0  0  0  0  0  0  0  0  0
    2.2566   -5.4547    0.5365 N   0  0  0  0  0  0  0  0  0  0  0  0
    3.0085   -4.3700    0.8165 N   0  0  0  0  0  0  0  0  0  0  0  0
    2.6262   -3.0468    0.3445 C   0  0  0  0  0  0  0  0  0  0  0  0
    3.8002   -2.1240    0.1613 C   0  0  0  0  0  0  0  0  0  0  0  0
    4.1931   -1.2462    1.0712 N   0  0  0  0  0  0  0  0  0  0  0  0
    5.3122   -0.6654    0.5209 N   0  0  0  0  0  0  0  0  0  0  0  0
    5.5704   -1.1541   -0.6528 N   0  0  0  0  0  0  0  0  0  0  0  0
    4.6110   -2.0738   -0.9273 N   0  0  0  0  0  0  0  0  0  0  0  0
    4.6354   -2.7875   -2.1458 C   0  0  0  0  0  0  0  0  0  0  0  0
    5.7040   -3.2876   -2.7121 N   0  0  0  0  0  0  0  0  0  0  0  0
    5.2481   -3.8525   -3.9143 O   0  0  0  0  0  0  0  0  0  0  0  0
    3.8778   -3.6686   -4.0775 N   0  0  0  0  0  0  0  0  0  0  0  0
    3.5308   -2.9965   -3.0169 C   0  0  0  0  0  0  0  0  0  0  0  0
    2.2223   -2.5487   -2.8371 N   0  0  0  0  0  0  0  0  0  0  0  0
    4.0284   -4.6141    1.6593 N   0  0  0  0  0  0  0  0  0  0  0  0
    4.2686   -7.6276    3.0369 H   0  0  0  0  0  0  0  0  0  0  0  0
    4.8078   -6.0696    3.7228 H   0  0  0  0  0  0  0  0  0  0  0  0
    5.6745   -6.7906    2.3492 H   0  0  0  0  0  0  0  0  0  0  0  0
    2.0538   -3.1948   -0.5784 H   0  0  0  0  0  0  0  0  0  0  0  0
    1.9523   -2.6066    1.0901 H   0  0  0  0  0  0  0  0  0  0  0  0
    1.8994   -2.0657   -2.0017 H   0  0  0  0  0  0  0  0  0  0  0  0
    1.4825   -2.9370   -3.3972 H   0  0  0  0  0  0  0  0  0  0  0  0
  1  2  1  0
  1 19  1  0
  1 20  1  0
  1 21  1  0
  2 18  2  0
  2  3  1  0
  3  4  2  0
  4  5  1  0
  5  6  1  0
  5 18  1  0
  6  7  1  0
  6 22  1  0
  6 23  1  0
  7 11  1  0
  7  8  2  0
  8  9  1  0
  9 10  2  0
 10 11  1  0
 11 12  1  0
 12 16  1  0
 12 13  2  0
 13 14  1  0
 14 15  1  0
 15 16  2  0
 16 17  1  0
 17 24  1  0
 17 25  1  0
M  END
>  <i_m_ct_stereo_status>  (117) 
1

>  <s_m_source_file>  (117) 
/var/tmp/pbs.5076255.sched01/tmpco4mv84g/486h_uxm9x.sdf

>  <i_m_source_file_index>  (117) 
8

>  <i_lp_mmshare_version>  (117) 
48012

>  <i_f3d_flags>  (117) 
0

>  <s_epik_input>  (117) 
W0NIM11jMW5ubihuMSlbQ0gyXWMybm5ubjItYzNub1tuSF1jXDM9Ti9bSF0=

>  <s_epik_cmdline>  (117) 
J2VwaWtfcHl0aG9uJywgJy1waHQnLCAnMi4wJywgJy1waCcsICc3LjAnLCAnLXRuJywgJzgnLCAnLW1hJywgJzIwMCcsICctaW1hZScsICc8aW5maWxlLm1hZT4nLCAnLW9tYWUnLCAnPG91dGZpbGUubWFlPic=

>  <r_lp_tautomer_probability>  (117) 
1

>  <r_epik_Ionization_Penalty>  (117) 
0.000484005

>  <r_epik_Ionization_Penalty_Charging>  (117) 
0

>  <r_epik_Ionization_Penalty_Neutral>  (117) 
0.000484005

>  <r_epik_State_Penalty>  (117) 
0.000434378

>  <r_epik_Charging_Adjusted_Penalty>  (117) 
0.000434378

>  <i_epik_Tot_Q>  (117) 
0

>  <i_epik_Tot_abs_Q>  (117) 
0

>  <s_lp_Force_Field>  (117) 
OPLS3e

>  <r_lp_Energy>  (117) 
0.54744

>  <b_lp_Chiralities_Consistent>  (117) 
1

>  <s_lp_Variant>  (117) 
30:0-1

>  <s_i_glide_gridfile>  (117) 
pfpi4k_grid

>  <i_i_glide_lignum>  (117) 
8

>  <i_i_glide_rotatable_bonds>  (117) 
3

>  <r_i_docking_score>  (117) 
-3.47438

>  <r_i_glide_ligand_efficiency>  (117) 
-0.193021

>  <r_i_glide_ligand_efficiency_sa>  (117) 
-0.505858

>  <r_i_glide_ligand_efficiency_ln>  (117) 
-0.89307

>  <r_i_glide_gscore>  (117) 
-3.47438

>  <r_i_glide_lipo>  (117) 
-0.0312309

>  <r_i_glide_hbond>  (117) 
-0.16

>  <r_i_glide_metal>  (117) 
-0

>  <r_i_glide_rewards>  (117) 
-1.79122

>  <r_i_glide_evdw>  (117) 
-24.277

>  <r_i_glide_ecoul>  (117) 
-6.04028

>  <r_i_glide_erotb>  (117) 
0.844669

>  <r_i_glide_esite>  (117) 
-0.216701

>  <r_i_glide_emodel>  (117) 
-36.5889

>  <r_i_glide_energy>  (117) 
-30.3173

>  <r_i_glide_einternal>  (117) 
1.41783

>  <r_i_glide_intrahb_reward>  (117) 
-0

>  <i_i_glide_confnum>  (117) 
2

>  <i_i_glide_posenum>  (117) 
33

>  <r_i_glide_eff_state_penalty>  (117) 
0

>  <ligand_id>  (117) 
30

>  <original_smiles>  (117) 
Cc1nnn(Cc2nnnn2-c2no[nH]c2=N)n1

>  <smiles>  (117) 
[H]N([H])c1nonc1-n1nnnc1C([H])([H])n1nnc(C([H])([H])[H])n1

$$$$
30:0:2
     RDKit          3D

 25 27  0  0  1  0  0  0  0  0999 V2000
    2.1338   -7.6663    2.3860 C   0  0  0  0  0  0  0  0  0  0  0  0
    2.6903   -6.6304    1.4721 C   0  0  0  0  0  0  0  0  0  0  0  0
    2.0216   -5.4917    1.1265 N   0  0  0  0  0  0  0  0  0  0  0  0
    2.8416   -4.8164    0.3835 N   0  0  0  0  0  0  0  0  0  0  0  0
    3.9759   -5.5534    0.3178 N   0  0  0  0  0  0  0  0  0  0  0  0
    5.1608   -5.1621   -0.4235 C   0  0  0  0  0  0  0  0  0  0  0  0
    5.5174   -3.7127   -0.2420 C   0  0  0  0  0  0  0  0  0  0  0  0
    6.1104   -3.2460    0.8485 N   0  0  0  0  0  0  0  0  0  0  0  0
    6.2409   -1.9014    0.6006 N   0  0  0  0  0  0  0  0  0  0  0  0
    5.7718   -1.5757   -0.5637 N   0  0  0  0  0  0  0  0  0  0  0  0
    5.3026   -2.7178   -1.1243 N   0  0  0  0  0  0  0  0  0  0  0  0
    4.7403   -2.7465   -2.4283 C   0  0  0  0  0  0  0  0  0  0  0  0
    4.6108   -3.8020   -3.1917 N   0  0  0  0  0  0  0  0  0  0  0  0
    3.9213   -3.3689   -4.3199 O   0  0  0  0  0  0  0  0  0  0  0  0
    3.7604   -1.9777   -4.3020 N   0  0  0  0  0  0  0  0  0  0  0  0
    4.2352   -1.6149   -3.1436 C   0  0  0  0  0  0  0  0  0  0  0  0
    4.2127   -0.2698   -2.7555 N   0  0  0  0  0  0  0  0  0  0  0  0
    3.8993   -6.7347    0.9584 N   0  0  0  0  0  0  0  0  0  0  0  0
    1.2560   -7.2850    2.9002 H   0  0  0  0  0  0  0  0  0  0  0  0
    2.8813   -7.9467    3.1277 H   0  0  0  0  0  0  0  0  0  0  0  0
    1.8419   -8.5453    1.8175 H   0  0  0  0  0  0  0  0  0  0  0  0
    6.0068   -5.7662   -0.0882 H   0  0  0  0  0  0  0  0  0  0  0  0
    5.0059   -5.4524   -1.4575 H   0  0  0  0  0  0  0  0  0  0  0  0
    4.5083    0.0134   -1.8361 H   0  0  0  0  0  0  0  0  0  0  0  0
    3.7696    0.4473   -3.3136 H   0  0  0  0  0  0  0  0  0  0  0  0
  1  2  1  0
  1 19  1  0
  1 20  1  0
  1 21  1  0
  2 18  2  0
  2  3  1  0
  3  4  2  0
  4  5  1  0
  5  6  1  0
  5 18  1  0
  6  7  1  0
  6 22  1  0
  6 23  1  0
  7 11  1  0
  7  8  2  0
  8  9  1  0
  9 10  2  0
 10 11  1  0
 11 12  1  0
 12 16  1  0
 12 13  2  0
 13 14  1  0
 14 15  1  0
 15 16  2  0
 16 17  1  0
 17 24  1  0
 17 25  1  0
M  END
>  <i_m_ct_stereo_status>  (118) 
1

>  <s_m_source_file>  (118) 
/var/tmp/pbs.5076255.sched01/tmpco4mv84g/486h_uxm9x.sdf

>  <i_m_source_file_index>  (118) 
8

>  <i_lp_mmshare_version>  (118) 
48012

>  <i_f3d_flags>  (118) 
0

>  <s_epik_input>  (118) 
W0NIM11jMW5ubihuMSlbQ0gyXWMybm5ubjItYzNub1tuSF1jXDM9Ti9bSF0=

>  <s_epik_cmdline>  (118) 
J2VwaWtfcHl0aG9uJywgJy1waHQnLCAnMi4wJywgJy1waCcsICc3LjAnLCAnLXRuJywgJzgnLCAnLW1hJywgJzIwMCcsICctaW1hZScsICc8aW5maWxlLm1hZT4nLCAnLW9tYWUnLCAnPG91dGZpbGUubWFlPic=

>  <r_lp_tautomer_probability>  (118) 
1

>  <r_epik_Ionization_Penalty>  (118) 
0.000484005

>  <r_epik_Ionization_Penalty_Charging>  (118) 
0

>  <r_epik_Ionization_Penalty_Neutral>  (118) 
0.000484005

>  <r_epik_State_Penalty>  (118) 
0.000434378

>  <r_epik_Charging_Adjusted_Penalty>  (118) 
0.000434378

>  <i_epik_Tot_Q>  (118) 
0

>  <i_epik_Tot_abs_Q>  (118) 
0

>  <s_lp_Force_Field>  (118) 
OPLS3e

>  <r_lp_Energy>  (118) 
0.54744

>  <b_lp_Chiralities_Consistent>  (118) 
1

>  <s_lp_Variant>  (118) 
30:0-1

>  <s_i_glide_gridfile>  (118) 
pfpi4k_grid

>  <i_i_glide_lignum>  (118) 
8

>  <i_i_glide_rotatable_bonds>  (118) 
3

>  <r_i_docking_score>  (118) 
-3.43104

>  <r_i_glide_ligand_efficiency>  (118) 
-0.190613

>  <r_i_glide_ligand_efficiency_sa>  (118) 
-0.499548

>  <r_i_glide_ligand_efficiency_ln>  (118) 
-0.88193

>  <r_i_glide_gscore>  (118) 
-3.43104

>  <r_i_glide_lipo>  (118) 
-0.0703772

>  <r_i_glide_hbond>  (118) 
-0.0509683

>  <r_i_glide_metal>  (118) 
-0

>  <r_i_glide_rewards>  (118) 
-1.96225

>  <r_i_glide_evdw>  (118) 
-26.693

>  <r_i_glide_ecoul>  (118) 
-4.28995

>  <r_i_glide_erotb>  (118) 
0.844669

>  <r_i_glide_esite>  (118) 
-0.213966

>  <r_i_glide_emodel>  (118) 
-37.748

>  <r_i_glide_energy>  (118) 
-30.983

>  <r_i_glide_einternal>  (118) 
0.940635

>  <r_i_glide_intrahb_reward>  (118) 
-0

>  <i_i_glide_confnum>  (118) 
3

>  <i_i_glide_posenum>  (118) 
37

>  <r_i_glide_eff_state_penalty>  (118) 
0

>  <ligand_id>  (118) 
30

>  <original_smiles>  (118) 
Cc1nnn(Cc2nnnn2-c2no[nH]c2=N)n1

>  <smiles>  (118) 
[H]N([H])c1nonc1-n1nnnc1C([H])([H])n1nnc(C([H])([H])[H])n1

$$$$
31:0:0
     RDKit          3D

 18 20  0  0  1  0  0  0  0  0999 V2000
    2.8608   -4.0395    0.3032 O   0  0  0  0  0  0  0  0  0  0  0  0
    3.5532   -3.1282   -0.1420 C   0  0  0  0  0  0  0  0  0  0  0  0
    4.5714   -2.4496    0.6302 C   0  0  0  0  0  0  0  0  0  0  0  0
    5.3096   -1.4954    0.1234 C   0  0  0  0  0  0  0  0  0  0  0  0
    5.2572   -1.0480   -1.1819 N   0  0  0  0  0  0  0  0  0  0  0  0
    4.2973   -1.5703   -1.9100 C   0  0  0  0  0  0  0  0  0  0  0  0
    3.7827   -1.2051   -3.6265 S   0  0  0  0  0  0  0  0  0  0  0  0
    2.5638   -2.4671   -3.5230 C   0  0  0  0  0  0  0  0  0  0  0  0
    2.5180   -3.0744   -2.3438 C   0  0  0  0  0  0  0  0  0  0  0  0
    3.4568   -2.6084   -1.4122 N   0  0  0  0  0  0  0  0  0  0  0  0
    6.2325   -1.4378    1.3072 C   0  0  0  0  0  0  0  0  0  0  0  0
    5.3025   -2.5616    1.9417 C   0  0  0  0  0  0  0  0  0  0  0  0
    1.8979   -2.6745   -4.3463 H   0  0  0  0  0  0  0  0  0  0  0  0
    1.8152   -3.8574   -2.0654 H   0  0  0  0  0  0  0  0  0  0  0  0
    7.2548   -1.7927    1.1707 H   0  0  0  0  0  0  0  0  0  0  0  0
    6.2107   -0.5178    1.8937 H   0  0  0  0  0  0  0  0  0  0  0  0
    4.7566   -2.2090    2.8291 H   0  0  0  0  0  0  0  0  0  0  0  0
    5.8509   -3.4852    2.1913 H   0  0  0  0  0  0  0  0  0  0  0  0
  1  2  2  0
  2 10  1  0
  2  3  1  0
  3 12  1  0
  3  4  2  0
  4  5  1  0
  4 11  1  0
  5  6  2  0
  6 10  1  0
  6  7  1  0
  7  8  1  0
  8  9  2  0
  8 13  1  0
  9 10  1  0
  9 14  1  0
 11 12  1  0
 11 15  1  0
 11 16  1  0
 12 17  1  0
 12 18  1  0
M  END
>  <i_m_ct_stereo_status>  (119) 
1

>  <s_m_source_file>  (119) 
/var/tmp/pbs.5076255.sched01/tmpco4mv84g/486h_uxm9x.sdf

>  <i_m_source_file_index>  (119) 
9

>  <i_lp_mmshare_version>  (119) 
48012

>  <i_f3d_flags>  (119) 
0

>  <s_epik_input>  (119) 
czFbY0hdW2NIXW4oYzI9TyljMW5jKGMyMylbQ0gyXVtDSDJdMw==

>  <s_epik_cmdline>  (119) 
J2VwaWtfcHl0aG9uJywgJy1waHQnLCAnMi4wJywgJy1waCcsICc3LjAnLCAnLXRuJywgJzgnLCAnLW1hJywgJzIwMCcsICctaW1hZScsICc8aW5maWxlLm1hZT4nLCAnLW9tYWUnLCAnPG91dGZpbGUubWFlPic=

>  <r_lp_tautomer_probability>  (119) 
1

>  <r_epik_Ionization_Penalty>  (119) 
1.55416e-05

>  <r_epik_Ionization_Penalty_Charging>  (119) 
0

>  <r_epik_Ionization_Penalty_Neutral>  (119) 
1.55416e-05

>  <r_epik_State_Penalty>  (119) 
-0

>  <r_epik_Charging_Adjusted_Penalty>  (119) 
0

>  <i_epik_Tot_Q>  (119) 
0

>  <i_epik_Tot_abs_Q>  (119) 
0

>  <s_lp_Force_Field>  (119) 
OPLS3e

>  <r_lp_Energy>  (119) 
41.9037

>  <b_lp_Chiralities_Consistent>  (119) 
1

>  <s_lp_Variant>  (119) 
31:0-1

>  <s_i_glide_gridfile>  (119) 
pfpi4k_grid

>  <i_i_glide_lignum>  (119) 
9

>  <i_i_glide_rotatable_bonds>  (119) 
0

>  <r_i_docking_score>  (119) 
-4.30623

>  <r_i_glide_ligand_efficiency>  (119) 
-0.358852

>  <r_i_glide_ligand_efficiency_sa>  (119) 
-0.821567

>  <r_i_glide_ligand_efficiency_ln>  (119) 
-1.23568

>  <r_i_glide_gscore>  (119) 
-4.30623

>  <r_i_glide_lipo>  (119) 
-0.763705

>  <r_i_glide_hbond>  (119) 
0

>  <r_i_glide_metal>  (119) 
-0

>  <r_i_glide_rewards>  (119) 
-2.19401

>  <r_i_glide_evdw>  (119) 
-22.8699

>  <r_i_glide_ecoul>  (119) 
-0.87509

>  <r_i_glide_erotb>  (119) 
0

>  <r_i_glide_esite>  (119) 
-0.0737574

>  <r_i_glide_emodel>  (119) 
-28.2761

>  <r_i_glide_energy>  (119) 
-23.745

>  <r_i_glide_einternal>  (119) 
0

>  <r_i_glide_intrahb_reward>  (119) 
-0

>  <i_i_glide_confnum>  (119) 
1

>  <i_i_glide_posenum>  (119) 
1

>  <r_i_glide_eff_state_penalty>  (119) 
0

>  <ligand_id>  (119) 
31

>  <original_smiles>  (119) 
O=c1c2c(nc3sccn13)CC2

>  <smiles>  (119) 
[H]c1sc2nc3c(c(=O)n2c1[H])C([H])([H])C3([H])[H]

$$$$
31:0:1
     RDKit          3D

 18 20  0  0  1  0  0  0  0  0999 V2000
    2.2712   -4.4356   -0.1901 O   0  0  0  0  0  0  0  0  0  0  0  0
    3.0513   -3.4932   -0.3036 C   0  0  0  0  0  0  0  0  0  0  0  0
    3.8364   -2.9598    0.8008 C   0  0  0  0  0  0  0  0  0  0  0  0
    4.6624   -1.9555    0.6489 C   0  0  0  0  0  0  0  0  0  0  0  0
    4.9318   -1.2996   -0.5439 N   0  0  0  0  0  0  0  0  0  0  0  0
    4.2091   -1.7008   -1.5538 C   0  0  0  0  0  0  0  0  0  0  0  0
    4.1522   -1.0600   -3.2633 S   0  0  0  0  0  0  0  0  0  0  0  0
    2.9625   -2.2727   -3.6852 C   0  0  0  0  0  0  0  0  0  0  0  0
    2.6176   -3.0546   -2.6569 C   0  0  0  0  0  0  0  0  0  0  0  0
    3.2810   -2.7823   -1.4593 N   0  0  0  0  0  0  0  0  0  0  0  0
    5.2544   -2.0745    2.0313 C   0  0  0  0  0  0  0  0  0  0  0  0
    4.2064   -3.2539    2.2407 C   0  0  0  0  0  0  0  0  0  0  0  0
    2.5752   -2.3247   -4.6885 H   0  0  0  0  0  0  0  0  0  0  0  0
    1.8845   -3.8563   -2.6971 H   0  0  0  0  0  0  0  0  0  0  0  0
    6.2825   -2.4272    2.1058 H   0  0  0  0  0  0  0  0  0  0  0  0
    5.0714   -1.2384    2.7062 H   0  0  0  0  0  0  0  0  0  0  0  0
    3.4430   -3.0171    2.9861 H   0  0  0  0  0  0  0  0  0  0  0  0
    4.6813   -4.2082    2.4858 H   0  0  0  0  0  0  0  0  0  0  0  0
  1  2  2  0
  2 10  1  0
  2  3  1  0
  3 12  1  0
  3  4  2  0
  4  5  1  0
  4 11  1  0
  5  6  2  0
  6 10  1  0
  6  7  1  0
  7  8  1  0
  8  9  2  0
  8 13  1  0
  9 10  1  0
  9 14  1  0
 11 12  1  0
 11 15  1  0
 11 16  1  0
 12 17  1  0
 12 18  1  0
M  END
>  <i_m_ct_stereo_status>  (120) 
1

>  <s_m_source_file>  (120) 
/var/tmp/pbs.5076255.sched01/tmpco4mv84g/486h_uxm9x.sdf

>  <i_m_source_file_index>  (120) 
9

>  <i_lp_mmshare_version>  (120) 
48012

>  <i_f3d_flags>  (120) 
0

>  <s_epik_input>  (120) 
czFbY0hdW2NIXW4oYzI9TyljMW5jKGMyMylbQ0gyXVtDSDJdMw==

>  <s_epik_cmdline>  (120) 
J2VwaWtfcHl0aG9uJywgJy1waHQnLCAnMi4wJywgJy1waCcsICc3LjAnLCAnLXRuJywgJzgnLCAnLW1hJywgJzIwMCcsICctaW1hZScsICc8aW5maWxlLm1hZT4nLCAnLW9tYWUnLCAnPG91dGZpbGUubWFlPic=

>  <r_lp_tautomer_probability>  (120) 
1

>  <r_epik_Ionization_Penalty>  (120) 
1.55416e-05

>  <r_epik_Ionization_Penalty_Charging>  (120) 
0

>  <r_epik_Ionization_Penalty_Neutral>  (120) 
1.55416e-05

>  <r_epik_State_Penalty>  (120) 
-0

>  <r_epik_Charging_Adjusted_Penalty>  (120) 
0

>  <i_epik_Tot_Q>  (120) 
0

>  <i_epik_Tot_abs_Q>  (120) 
0

>  <s_lp_Force_Field>  (120) 
OPLS3e

>  <r_lp_Energy>  (120) 
41.9037

>  <b_lp_Chiralities_Consistent>  (120) 
1

>  <s_lp_Variant>  (120) 
31:0-1

>  <s_i_glide_gridfile>  (120) 
pfpi4k_grid

>  <i_i_glide_lignum>  (120) 
9

>  <i_i_glide_rotatable_bonds>  (120) 
0

>  <r_i_docking_score>  (120) 
-3.93601

>  <r_i_glide_ligand_efficiency>  (120) 
-0.328001

>  <r_i_glide_ligand_efficiency_sa>  (120) 
-0.750935

>  <r_i_glide_ligand_efficiency_ln>  (120) 
-1.12945

>  <r_i_glide_gscore>  (120) 
-3.93601

>  <r_i_glide_lipo>  (120) 
-0.468288

>  <r_i_glide_hbond>  (120) 
0

>  <r_i_glide_metal>  (120) 
-0

>  <r_i_glide_rewards>  (120) 
-2.19401

>  <r_i_glide_evdw>  (120) 
-20.6048

>  <r_i_glide_ecoul>  (120) 
-1.20058

>  <r_i_glide_erotb>  (120) 
0

>  <r_i_glide_esite>  (120) 
-0.0633917

>  <r_i_glide_emodel>  (120) 
-25.4638

>  <r_i_glide_energy>  (120) 
-21.8054

>  <r_i_glide_einternal>  (120) 
0

>  <r_i_glide_intrahb_reward>  (120) 
-0

>  <i_i_glide_confnum>  (120) 
2

>  <i_i_glide_posenum>  (120) 
6

>  <r_i_glide_eff_state_penalty>  (120) 
0

>  <ligand_id>  (120) 
31

>  <original_smiles>  (120) 
O=c1c2c(nc3sccn13)CC2

>  <smiles>  (120) 
[H]c1sc2nc3c(c(=O)n2c1[H])C([H])([H])C3([H])[H]

$$$$
31:0:2
     RDKit          3D

 18 20  0  0  1  0  0  0  0  0999 V2000
   -2.1581   -0.0455    6.0426 O   0  0  0  0  0  0  0  0  0  0  0  0
   -1.5117    0.3561    5.0762 C   0  0  0  0  0  0  0  0  0  0  0  0
   -1.7355    1.6378    4.4155 C   0  0  0  0  0  0  0  0  0  0  0  0
   -1.0212    2.0235    3.3752 C   0  0  0  0  0  0  0  0  0  0  0  0
    0.0383    1.3292    2.8303 N   0  0  0  0  0  0  0  0  0  0  0  0
    0.2659    0.1534    3.3619 C   0  0  0  0  0  0  0  0  0  0  0  0
    1.4948   -1.1087    2.9026 S   0  0  0  0  0  0  0  0  0  0  0  0
    0.9064   -2.1541    4.1832 C   0  0  0  0  0  0  0  0  0  0  0  0
   -0.1015   -1.6228    4.8819 C   0  0  0  0  0  0  0  0  0  0  0  0
   -0.4957   -0.3459    4.4661 N   0  0  0  0  0  0  0  0  0  0  0  0
   -1.6005    3.4139    3.3365 C   0  0  0  0  0  0  0  0  0  0  0  0
   -2.5297    2.9306    4.5330 C   0  0  0  0  0  0  0  0  0  0  0  0
    1.3699   -3.1183    4.3353 H   0  0  0  0  0  0  0  0  0  0  0  0
   -0.6099   -2.0942    5.7196 H   0  0  0  0  0  0  0  0  0  0  0  0
   -0.9361    4.2284    3.6220 H   0  0  0  0  0  0  0  0  0  0  0  0
   -2.1627    3.6586    2.4354 H   0  0  0  0  0  0  0  0  0  0  0  0
   -3.5803    2.8848    4.2354 H   0  0  0  0  0  0  0  0  0  0  0  0
   -2.4199    3.5390    5.4357 H   0  0  0  0  0  0  0  0  0  0  0  0
  1  2  2  0
  2 10  1  0
  2  3  1  0
  3 12  1  0
  3  4  2  0
  4  5  1  0
  4 11  1  0
  5  6  2  0
  6 10  1  0
  6  7  1  0
  7  8  1  0
  8  9  2  0
  8 13  1  0
  9 10  1  0
  9 14  1  0
 11 12  1  0
 11 15  1  0
 11 16  1  0
 12 17  1  0
 12 18  1  0
M  END
>  <i_m_ct_stereo_status>  (121) 
1

>  <s_m_source_file>  (121) 
/var/tmp/pbs.5076255.sched01/tmpco4mv84g/486h_uxm9x.sdf

>  <i_m_source_file_index>  (121) 
9

>  <i_lp_mmshare_version>  (121) 
48012

>  <i_f3d_flags>  (121) 
0

>  <s_epik_input>  (121) 
czFbY0hdW2NIXW4oYzI9TyljMW5jKGMyMylbQ0gyXVtDSDJdMw==

>  <s_epik_cmdline>  (121) 
J2VwaWtfcHl0aG9uJywgJy1waHQnLCAnMi4wJywgJy1waCcsICc3LjAnLCAnLXRuJywgJzgnLCAnLW1hJywgJzIwMCcsICctaW1hZScsICc8aW5maWxlLm1hZT4nLCAnLW9tYWUnLCAnPG91dGZpbGUubWFlPic=

>  <r_lp_tautomer_probability>  (121) 
1

>  <r_epik_Ionization_Penalty>  (121) 
1.55416e-05

>  <r_epik_Ionization_Penalty_Charging>  (121) 
0

>  <r_epik_Ionization_Penalty_Neutral>  (121) 
1.55416e-05

>  <r_epik_State_Penalty>  (121) 
-0

>  <r_epik_Charging_Adjusted_Penalty>  (121) 
0

>  <i_epik_Tot_Q>  (121) 
0

>  <i_epik_Tot_abs_Q>  (121) 
0

>  <s_lp_Force_Field>  (121) 
OPLS3e

>  <r_lp_Energy>  (121) 
41.9037

>  <b_lp_Chiralities_Consistent>  (121) 
1

>  <s_lp_Variant>  (121) 
31:0-1

>  <s_i_glide_gridfile>  (121) 
pfpi4k_grid

>  <i_i_glide_lignum>  (121) 
9

>  <i_i_glide_rotatable_bonds>  (121) 
0

>  <r_i_docking_score>  (121) 
-3.74484

>  <r_i_glide_ligand_efficiency>  (121) 
-0.31207

>  <r_i_glide_ligand_efficiency_sa>  (121) 
-0.714462

>  <r_i_glide_ligand_efficiency_ln>  (121) 
-1.07459

>  <r_i_glide_gscore>  (121) 
-3.74484

>  <r_i_glide_lipo>  (121) 
-0.0188674

>  <r_i_glide_hbond>  (121) 
-0.16

>  <r_i_glide_metal>  (121) 
-0

>  <r_i_glide_rewards>  (121) 
-2.19401

>  <r_i_glide_evdw>  (121) 
-16.9092

>  <r_i_glide_ecoul>  (121) 
-3.23168

>  <r_i_glide_erotb>  (121) 
0

>  <r_i_glide_esite>  (121) 
-0.0417533

>  <r_i_glide_emodel>  (121) 
-23.8131

>  <r_i_glide_energy>  (121) 
-20.1409

>  <r_i_glide_einternal>  (121) 
0

>  <r_i_glide_intrahb_reward>  (121) 
-0

>  <i_i_glide_confnum>  (121) 
1

>  <i_i_glide_posenum>  (121) 
3

>  <r_i_glide_eff_state_penalty>  (121) 
0

>  <ligand_id>  (121) 
31

>  <original_smiles>  (121) 
O=c1c2c(nc3sccn13)CC2

>  <smiles>  (121) 
[H]c1sc2nc3c(c(=O)n2c1[H])C([H])([H])C3([H])[H]

$$$$
32:0:0
     RDKit          3D

 20 21  0  0  1  0  0  0  0  0999 V2000
    5.7870   -4.3357    0.3036 C   0  0  0  0  0  0  0  0  0  0  0  0
    4.3378   -4.4144    0.1620 N   0  0  0  0  0  0  0  0  0  0  0  0
    3.6514   -5.3864    0.8161 N   0  0  0  0  0  0  0  0  0  0  0  0
    2.3990   -5.2398    0.4837 N   0  0  0  0  0  0  0  0  0  0  0  0
    2.2438   -4.1747   -0.3724 N   0  0  0  0  0  0  0  0  0  0  0  0
    3.4595   -3.6807   -0.5475 C   0  0  0  0  0  0  0  0  0  0  0  0
    3.7679   -2.5321   -1.4274 C   0  0  0  0  0  0  0  0  0  0  0  0
    4.5950   -1.4434   -1.2322 C   0  0  0  0  0  0  0  0  0  0  0  0
    5.5081   -1.0119    0.1359 Cl  0  0  0  0  0  0  0  0  0  0  0  0
    4.6197   -0.6486   -2.3624 N   0  0  0  0  0  0  0  0  0  0  0  0
    3.7618   -1.2336   -3.1738 C   0  0  0  0  0  0  0  0  0  0  0  0
    3.3606   -0.6430   -4.7366 Cl  0  0  0  0  0  0  0  0  0  0  0  0
    3.2052   -2.3676   -2.7127 N   0  0  0  0  0  0  0  0  0  0  0  0
    2.2349   -3.2030   -3.4056 C   0  0  0  0  0  0  0  0  0  0  0  0
    6.1596   -3.3652   -0.0263 H   0  0  0  0  0  0  0  0  0  0  0  0
    6.2445   -5.1228   -0.3017 H   0  0  0  0  0  0  0  0  0  0  0  0
    6.0412   -4.4838    1.3525 H   0  0  0  0  0  0  0  0  0  0  0  0
    1.6754   -2.6309   -4.1454 H   0  0  0  0  0  0  0  0  0  0  0  0
    1.4991   -3.6026   -2.7115 H   0  0  0  0  0  0  0  0  0  0  0  0
    2.7384   -4.0240   -3.9141 H   0  0  0  0  0  0  0  0  0  0  0  0
  1  2  1  0
  1 15  1  0
  1 16  1  0
  1 17  1  0
  2  6  1  0
  2  3  1  0
  3  4  2  0
  4  5  1  0
  5  6  2  0
  6  7  1  0
  7 13  1  0
  7  8  2  0
  8  9  1  0
  8 10  1  0
 10 11  2  0
 11 12  1  0
 11 13  1  0
 13 14  1  0
 14 18  1  0
 14 19  1  0
 14 20  1  0
M  END
>  <i_m_ct_stereo_status>  (122) 
1

>  <s_m_source_file>  (122) 
/var/tmp/pbs.5076255.sched01/tmpco4mv84g/486h_uxm9x.sdf

>  <i_m_source_file_index>  (122) 
10

>  <i_lp_mmshare_version>  (122) 
48012

>  <i_f3d_flags>  (122) 
0

>  <s_epik_input>  (122) 
W0NIM11uMW5ubmMxLWMyYyhDbCluYyhDbCluMltDSDNd

>  <s_epik_cmdline>  (122) 
J2VwaWtfcHl0aG9uJywgJy1waHQnLCAnMi4wJywgJy1waCcsICc3LjAnLCAnLXRuJywgJzgnLCAnLW1hJywgJzIwMCcsICctaW1hZScsICc8aW5maWxlLm1hZT4nLCAnLW9tYWUnLCAnPG91dGZpbGUubWFlPic=

>  <r_lp_tautomer_probability>  (122) 
1

>  <r_epik_Ionization_Penalty>  (122) 
4.47211e-08

>  <r_epik_Ionization_Penalty_Charging>  (122) 
4.4226e-08

>  <r_epik_Ionization_Penalty_Neutral>  (122) 
4.9506e-10

>  <r_epik_State_Penalty>  (122) 
-0

>  <r_epik_Charging_Adjusted_Penalty>  (122) 
4.4226e-08

>  <i_epik_Tot_Q>  (122) 
0

>  <i_epik_Tot_abs_Q>  (122) 
0

>  <s_lp_Force_Field>  (122) 
OPLS3e

>  <r_lp_Energy>  (122) 
8.40036

>  <b_lp_Chiralities_Consistent>  (122) 
1

>  <s_lp_Variant>  (122) 
32:0-1

>  <s_i_glide_gridfile>  (122) 
pfpi4k_grid

>  <i_i_glide_lignum>  (122) 
10

>  <i_i_glide_rotatable_bonds>  (122) 
1

>  <r_i_docking_score>  (122) 
-3.6538

>  <r_i_glide_ligand_efficiency>  (122) 
-0.260985

>  <r_i_glide_ligand_efficiency_sa>  (122) 
-0.629012

>  <r_i_glide_ligand_efficiency_ln>  (122) 
-1.00405

>  <r_i_glide_gscore>  (122) 
-3.6538

>  <r_i_glide_lipo>  (122) 
-0.517267

>  <r_i_glide_hbond>  (122) 
0

>  <r_i_glide_metal>  (122) 
-0

>  <r_i_glide_rewards>  (122) 
-1.93065

>  <r_i_glide_evdw>  (122) 
-23.6372

>  <r_i_glide_ecoul>  (122) 
-1.3196

>  <r_i_glide_erotb>  (122) 
0.315634

>  <r_i_glide_esite>  (122) 
-0.141709

>  <r_i_glide_emodel>  (122) 
-30.2625

>  <r_i_glide_energy>  (122) 
-24.9569

>  <r_i_glide_einternal>  (122) 
0.369146

>  <r_i_glide_intrahb_reward>  (122) 
-0

>  <i_i_glide_confnum>  (122) 
3

>  <i_i_glide_posenum>  (122) 
35

>  <r_i_glide_eff_state_penalty>  (122) 
0

>  <ligand_id>  (122) 
32

>  <original_smiles>  (122) 
Cn1nnnc1-c1c(Cl)nc(Cl)n1C

>  <smiles>  (122) 
[H]C([H])([H])n1nnnc1-c1c(Cl)nc(Cl)n1C([H])([H])[H]

$$$$
32:0:1
     RDKit          3D

 20 21  0  0  1  0  0  0  0  0999 V2000
    1.5785   -3.4275   -2.2972 C   0  0  0  0  0  0  0  0  0  0  0  0
    2.9800   -3.0582   -2.3664 N   0  0  0  0  0  0  0  0  0  0  0  0
    3.6119   -3.0203   -3.5616 N   0  0  0  0  0  0  0  0  0  0  0  0
    4.8336   -2.6511   -3.3144 N   0  0  0  0  0  0  0  0  0  0  0  0
    5.0317   -2.4186   -1.9691 N   0  0  0  0  0  0  0  0  0  0  0  0
    3.8651   -2.7187   -1.4098 C   0  0  0  0  0  0  0  0  0  0  0  0
    3.5889   -2.6408    0.0263 C   0  0  0  0  0  0  0  0  0  0  0  0
    2.9604   -3.5424    0.8601 C   0  0  0  0  0  0  0  0  0  0  0  0
    2.3203   -5.0678    0.4531 Cl  0  0  0  0  0  0  0  0  0  0  0  0
    2.9061   -3.0376    2.1534 N   0  0  0  0  0  0  0  0  0  0  0  0
    3.5047   -1.8604    2.0472 C   0  0  0  0  0  0  0  0  0  0  0  0
    3.7802   -0.7611    3.3453 Cl  0  0  0  0  0  0  0  0  0  0  0  0
    3.9490   -1.5423    0.8194 N   0  0  0  0  0  0  0  0  0  0  0  0
    4.6392   -0.3262    0.4101 C   0  0  0  0  0  0  0  0  0  0  0  0
    1.1370   -3.0600   -1.3748 H   0  0  0  0  0  0  0  0  0  0  0  0
    1.4445   -4.5081   -2.3071 H   0  0  0  0  0  0  0  0  0  0  0  0
    1.0463   -3.0131   -3.1519 H   0  0  0  0  0  0  0  0  0  0  0  0
    4.4150    0.5097    1.0744 H   0  0  0  0  0  0  0  0  0  0  0  0
    4.3230   -0.0440   -0.5910 H   0  0  0  0  0  0  0  0  0  0  0  0
    5.7152   -0.4963    0.4055 H   0  0  0  0  0  0  0  0  0  0  0  0
  1  2  1  0
  1 15  1  0
  1 16  1  0
  1 17  1  0
  2  6  1  0
  2  3  1  0
  3  4  2  0
  4  5  1  0
  5  6  2  0
  6  7  1  0
  7 13  1  0
  7  8  2  0
  8  9  1  0
  8 10  1  0
 10 11  2  0
 11 12  1  0
 11 13  1  0
 13 14  1  0
 14 18  1  0
 14 19  1  0
 14 20  1  0
M  END
>  <i_m_ct_stereo_status>  (123) 
1

>  <s_m_source_file>  (123) 
/var/tmp/pbs.5076255.sched01/tmpco4mv84g/486h_uxm9x.sdf

>  <i_m_source_file_index>  (123) 
10

>  <i_lp_mmshare_version>  (123) 
48012

>  <i_f3d_flags>  (123) 
0

>  <s_epik_input>  (123) 
W0NIM11uMW5ubmMxLWMyYyhDbCluYyhDbCluMltDSDNd

>  <s_epik_cmdline>  (123) 
J2VwaWtfcHl0aG9uJywgJy1waHQnLCAnMi4wJywgJy1waCcsICc3LjAnLCAnLXRuJywgJzgnLCAnLW1hJywgJzIwMCcsICctaW1hZScsICc8aW5maWxlLm1hZT4nLCAnLW9tYWUnLCAnPG91dGZpbGUubWFlPic=

>  <r_lp_tautomer_probability>  (123) 
1

>  <r_epik_Ionization_Penalty>  (123) 
4.47211e-08

>  <r_epik_Ionization_Penalty_Charging>  (123) 
4.4226e-08

>  <r_epik_Ionization_Penalty_Neutral>  (123) 
4.9506e-10

>  <r_epik_State_Penalty>  (123) 
-0

>  <r_epik_Charging_Adjusted_Penalty>  (123) 
4.4226e-08

>  <i_epik_Tot_Q>  (123) 
0

>  <i_epik_Tot_abs_Q>  (123) 
0

>  <s_lp_Force_Field>  (123) 
OPLS3e

>  <r_lp_Energy>  (123) 
8.40036

>  <b_lp_Chiralities_Consistent>  (123) 
1

>  <s_lp_Variant>  (123) 
32:0-1

>  <s_i_glide_gridfile>  (123) 
pfpi4k_grid

>  <i_i_glide_lignum>  (123) 
10

>  <i_i_glide_rotatable_bonds>  (123) 
1

>  <r_i_docking_score>  (123) 
-3.29377

>  <r_i_glide_ligand_efficiency>  (123) 
-0.235269

>  <r_i_glide_ligand_efficiency_sa>  (123) 
-0.567033

>  <r_i_glide_ligand_efficiency_ln>  (123) 
-0.905117

>  <r_i_glide_gscore>  (123) 
-3.29377

>  <r_i_glide_lipo>  (123) 
-0.203547

>  <r_i_glide_hbond>  (123) 
0

>  <r_i_glide_metal>  (123) 
-0

>  <r_i_glide_rewards>  (123) 
-1.82006

>  <r_i_glide_evdw>  (123) 
-19.4625

>  <r_i_glide_ecoul>  (123) 
-3.59488

>  <r_i_glide_erotb>  (123) 
0.315634

>  <r_i_glide_esite>  (123) 
-0.0734426

>  <r_i_glide_emodel>  (123) 
-28.5044

>  <r_i_glide_energy>  (123) 
-23.0573

>  <r_i_glide_einternal>  (123) 
0.0617198

>  <r_i_glide_intrahb_reward>  (123) 
-0

>  <i_i_glide_confnum>  (123) 
1

>  <i_i_glide_posenum>  (123) 
22

>  <r_i_glide_eff_state_penalty>  (123) 
0

>  <ligand_id>  (123) 
32

>  <original_smiles>  (123) 
Cn1nnnc1-c1c(Cl)nc(Cl)n1C

>  <smiles>  (123) 
[H]C([H])([H])n1nnnc1-c1c(Cl)nc(Cl)n1C([H])([H])[H]

$$$$
32:0:2
     RDKit          3D

 20 21  0  0  1  0  0  0  0  0999 V2000
    2.4668   -2.8771   -3.0214 C   0  0  0  0  0  0  0  0  0  0  0  0
    3.8355   -2.9014   -2.5512 N   0  0  0  0  0  0  0  0  0  0  0  0
    4.8511   -3.0832   -3.4228 N   0  0  0  0  0  0  0  0  0  0  0  0
    5.9467   -3.0581   -2.7219 N   0  0  0  0  0  0  0  0  0  0  0  0
    5.6874   -2.8246   -1.3924 N   0  0  0  0  0  0  0  0  0  0  0  0
    4.3639   -2.7777   -1.3221 C   0  0  0  0  0  0  0  0  0  0  0  0
    3.6243   -2.5899   -0.0816 C   0  0  0  0  0  0  0  0  0  0  0  0
    2.7372   -3.4290    0.5548 C   0  0  0  0  0  0  0  0  0  0  0  0
    2.2342   -4.9763    0.0550 Cl  0  0  0  0  0  0  0  0  0  0  0  0
    2.2800   -2.8339    1.7256 N   0  0  0  0  0  0  0  0  0  0  0  0
    2.8933   -1.6597    1.7296 C   0  0  0  0  0  0  0  0  0  0  0  0
    2.7257   -0.4599    2.9531 Cl  0  0  0  0  0  0  0  0  0  0  0  0
    3.7276   -1.4348    0.7000 N   0  0  0  0  0  0  0  0  0  0  0  0
    4.5487   -0.2590    0.4516 C   0  0  0  0  0  0  0  0  0  0  0  0
    1.8247   -2.3740   -2.2992 H   0  0  0  0  0  0  0  0  0  0  0  0
    2.1118   -3.8967   -3.1644 H   0  0  0  0  0  0  0  0  0  0  0  0
    2.4058   -2.3428   -3.9720 H   0  0  0  0  0  0  0  0  0  0  0  0
    4.1310    0.6247    0.9353 H   0  0  0  0  0  0  0  0  0  0  0  0
    4.5998   -0.0662   -0.6179 H   0  0  0  0  0  0  0  0  0  0  0  0
    5.5569   -0.4281    0.8297 H   0  0  0  0  0  0  0  0  0  0  0  0
  1  2  1  0
  1 15  1  0
  1 16  1  0
  1 17  1  0
  2  6  1  0
  2  3  1  0
  3  4  2  0
  4  5  1  0
  5  6  2  0
  6  7  1  0
  7 13  1  0
  7  8  2  0
  8  9  1  0
  8 10  1  0
 10 11  2  0
 11 12  1  0
 11 13  1  0
 13 14  1  0
 14 18  1  0
 14 19  1  0
 14 20  1  0
M  END
>  <i_m_ct_stereo_status>  (124) 
1

>  <s_m_source_file>  (124) 
/var/tmp/pbs.5076255.sched01/tmpco4mv84g/486h_uxm9x.sdf

>  <i_m_source_file_index>  (124) 
10

>  <i_lp_mmshare_version>  (124) 
48012

>  <i_f3d_flags>  (124) 
0

>  <s_epik_input>  (124) 
W0NIM11uMW5ubmMxLWMyYyhDbCluYyhDbCluMltDSDNd

>  <s_epik_cmdline>  (124) 
J2VwaWtfcHl0aG9uJywgJy1waHQnLCAnMi4wJywgJy1waCcsICc3LjAnLCAnLXRuJywgJzgnLCAnLW1hJywgJzIwMCcsICctaW1hZScsICc8aW5maWxlLm1hZT4nLCAnLW9tYWUnLCAnPG91dGZpbGUubWFlPic=

>  <r_lp_tautomer_probability>  (124) 
1

>  <r_epik_Ionization_Penalty>  (124) 
4.47211e-08

>  <r_epik_Ionization_Penalty_Charging>  (124) 
4.4226e-08

>  <r_epik_Ionization_Penalty_Neutral>  (124) 
4.9506e-10

>  <r_epik_State_Penalty>  (124) 
-0

>  <r_epik_Charging_Adjusted_Penalty>  (124) 
4.4226e-08

>  <i_epik_Tot_Q>  (124) 
0

>  <i_epik_Tot_abs_Q>  (124) 
0

>  <s_lp_Force_Field>  (124) 
OPLS3e

>  <r_lp_Energy>  (124) 
8.40036

>  <b_lp_Chiralities_Consistent>  (124) 
1

>  <s_lp_Variant>  (124) 
32:0-1

>  <s_i_glide_gridfile>  (124) 
pfpi4k_grid

>  <i_i_glide_lignum>  (124) 
10

>  <i_i_glide_rotatable_bonds>  (124) 
1

>  <r_i_docking_score>  (124) 
-3.28613

>  <r_i_glide_ligand_efficiency>  (124) 
-0.234724

>  <r_i_glide_ligand_efficiency_sa>  (124) 
-0.565717

>  <r_i_glide_ligand_efficiency_ln>  (124) 
-0.903017

>  <r_i_glide_gscore>  (124) 
-3.28613

>  <r_i_glide_lipo>  (124) 
-0.237746

>  <r_i_glide_hbond>  (124) 
0

>  <r_i_glide_metal>  (124) 
-0

>  <r_i_glide_rewards>  (124) 
-1.82006

>  <r_i_glide_evdw>  (124) 
-20.7484

>  <r_i_glide_ecoul>  (124) 
-2.71062

>  <r_i_glide_erotb>  (124) 
0.315634

>  <r_i_glide_esite>  (124) 
-0.099941

>  <r_i_glide_emodel>  (124) 
-28.6033

>  <r_i_glide_energy>  (124) 
-23.4591

>  <r_i_glide_einternal>  (124) 
0.714443

>  <r_i_glide_intrahb_reward>  (124) 
-0

>  <i_i_glide_confnum>  (124) 
5

>  <i_i_glide_posenum>  (124) 
3

>  <r_i_glide_eff_state_penalty>  (124) 
0

>  <ligand_id>  (124) 
32

>  <original_smiles>  (124) 
Cn1nnnc1-c1c(Cl)nc(Cl)n1C

>  <smiles>  (124) 
[H]C([H])([H])n1nnnc1-c1c(Cl)nc(Cl)n1C([H])([H])[H]

$$$$
33:0:0
     RDKit          3D

 42 46  0  0  1  0  0  0  0  0999 V2000
    3.3357   -1.8319    5.4425 C   0  0  0  0  0  0  0  0  0  0  0  0
    4.0425   -1.1957    4.4914 C   0  0  0  0  0  0  0  0  0  0  0  0
    5.1480   -0.2611    4.7661 C   0  0  0  0  0  0  0  0  0  0  0  0
    5.4259    0.2567    5.8450 O   0  0  0  0  0  0  0  0  0  0  0  0
    5.7896   -0.0307    3.5971 O   0  0  0  0  0  0  0  0  0  0  0  0
    5.4087   -0.9768    2.6084 C   0  0  2  0  0  0  0  0  0  0  0  0
    5.5396   -0.6276    1.1089 C   0  0  0  0  0  0  0  0  0  0  0  0
    5.0202   -1.8744    0.3645 C   0  0  1  0  0  0  0  0  0  0  0  0
    3.5689   -2.2194    0.7498 C   0  0  2  0  0  0  0  0  0  0  0  0
    3.3895   -2.5199    2.2634 C   0  0  1  0  0  0  0  0  0  0  0  0
    4.0514   -3.7089    2.6478 O   0  0  0  0  0  0  0  0  0  0  0  0
    3.9584   -1.2786    2.9954 C   0  0  1  0  0  0  0  0  0  0  0  0
    3.1378   -3.2526   -0.2664 C   0  0  2  0  0  0  0  0  0  0  0  0
    4.0178   -4.3188   -0.6984 O   0  0  0  0  0  0  0  0  0  0  0  0
    4.0477   -3.0922   -1.4425 C   0  0  1  0  0  0  0  0  0  0  0  0
    3.5347   -2.8943   -2.8662 C   0  0  1  0  0  0  0  0  0  0  0  0
    2.1435   -3.0531   -3.0094 O   0  0  0  0  0  0  0  0  0  0  0  0
    3.9259   -1.4453   -3.0930 C   0  0  0  0  0  0  0  0  0  0  0  0
    3.4316   -0.6691   -4.3084 C   0  0  0  0  0  0  0  0  0  0  0  0
    4.7478   -0.9993   -2.1349 C   0  0  0  0  0  0  0  0  0  0  0  0
    5.1514   -2.0919   -1.1650 C   0  0  1  0  0  0  0  0  0  0  0  0
    6.5448   -2.6237   -1.5432 C   0  0  0  0  0  0  0  0  0  0  0  0
    2.5504   -2.5288    5.1905 H   0  0  0  0  0  0  0  0  0  0  0  0
    3.5361   -1.6633    6.4962 H   0  0  0  0  0  0  0  0  0  0  0  0
    6.0158   -1.8627    2.8068 H   0  0  0  0  0  0  0  0  0  0  0  0
    4.9595    0.2594    0.8468 H   0  0  0  0  0  0  0  0  0  0  0  0
    6.5799   -0.4378    0.8523 H   0  0  0  0  0  0  0  0  0  0  0  0
    5.6087   -2.6966    0.7630 H   0  0  0  0  0  0  0  0  0  0  0  0
    2.9613   -1.3365    0.5288 H   0  0  0  0  0  0  0  0  0  0  0  0
    2.3314   -2.6351    2.4936 H   0  0  0  0  0  0  0  0  0  0  0  0
    3.7142   -4.4304    2.1339 H   0  0  0  0  0  0  0  0  0  0  0  0
    3.3412   -0.4250    2.7114 H   0  0  0  0  0  0  0  0  0  0  0  0
    2.0723   -3.4121   -0.4125 H   0  0  0  0  0  0  0  0  0  0  0  0
    4.0652   -3.5336   -3.5677 H   0  0  0  0  0  0  0  0  0  0  0  0
    1.9295   -3.9735   -2.9481 H   0  0  0  0  0  0  0  0  0  0  0  0
    3.6918   -1.2139   -5.2109 H   0  0  0  0  0  0  0  0  0  0  0  0
    3.8824    0.3237   -4.3713 H   0  0  0  0  0  0  0  0  0  0  0  0
    2.3467   -0.5570   -4.2938 H   0  0  0  0  0  0  0  0  0  0  0  0
    5.1684   -0.0050   -2.1169 H   0  0  0  0  0  0  0  0  0  0  0  0
    6.7770   -3.5533   -1.0280 H   0  0  0  0  0  0  0  0  0  0  0  0
    7.3138   -1.9071   -1.2694 H   0  0  0  0  0  0  0  0  0  0  0  0
    6.6422   -2.8161   -2.6136 H   0  0  0  0  0  0  0  0  0  0  0  0
  1  2  2  0
  1 23  1  0
  1 24  1  0
  2 12  1  0
  2  3  1  0
  3  4  2  0
  3  5  1  0
  5  6  1  0
  6 12  1  0
  6  7  1  0
  6 25  1  6
  7  8  1  0
  7 26  1  0
  7 27  1  0
  8 21  1  0
  8  9  1  0
  8 28  1  1
  9 10  1  0
  9 13  1  0
  9 29  1  6
 10 11  1  0
 10 12  1  0
 10 30  1  6
 11 31  1  0
 12 32  1  6
 13 15  1  0
 13 14  1  0
 13 33  1  6
 15 14  1  6
 15 21  1  0
 15 16  1  0
 16 17  1  0
 16 18  1  0
 16 34  1  6
 17 35  1  0
 18 19  1  0
 18 20  2  0
 19 36  1  0
 19 37  1  0
 19 38  1  0
 20 21  1  0
 20 39  1  0
 21 22  1  1
 22 40  1  0
 22 41  1  0
 22 42  1  0
M  END
>  <i_m_ct_stereo_status>  (125) 
1

>  <s_m_source_file>  (125) 
/var/tmp/pbs.5076255.sched01/tmpco4mv84g/486h_uxm9x.sdf

>  <i_m_source_file_index>  (125) 
11

>  <i_lp_mmshare_version>  (125) 
48012

>  <i_f3d_flags>  (125) 
0

>  <s_epik_input>  (125) 
Tz1DKE8xKUMoPVtDSDJdKVtDQEhdKFtDQEBIXTJbT0hdKVtDQEhdMVtDSDJdW0NAQEhdKFtDQEhdMltDQEhdKE8zKVtDQEBdMzQ1KVtDQF01KFtDSDNdKVtDSF09QyhbQ0gzXSlbQ0BASF00W09IXQ==

>  <s_epik_cmdline>  (125) 
J2VwaWtfcHl0aG9uJywgJy1waHQnLCAnMi4wJywgJy1waCcsICc3LjAnLCAnLXRuJywgJzgnLCAnLW1hJywgJzIwMCcsICctaW1hZScsICc8aW5maWxlLm1hZT4nLCAnLW9tYWUnLCAnPG91dGZpbGUubWFlPic=

>  <r_lp_tautomer_probability>  (125) 
1

>  <r_epik_Ionization_Penalty>  (125) 
3.31895e-07

>  <r_epik_Ionization_Penalty_Charging>  (125) 
0

>  <r_epik_Ionization_Penalty_Neutral>  (125) 
3.31895e-07

>  <r_epik_State_Penalty>  (125) 
-0

>  <r_epik_Charging_Adjusted_Penalty>  (125) 
0

>  <i_epik_Tot_Q>  (125) 
0

>  <i_epik_Tot_abs_Q>  (125) 
0

>  <s_epik_Chemistry_Notes>  (125) 
This compound has an ester and may undergo hydrolysis at high or low pH.

>  <s_lp_Force_Field>  (125) 
OPLS3e

>  <r_lp_Energy>  (125) 
29.8624

>  <b_lp_Chiralities_Consistent>  (125) 
1

>  <s_lp_Variant>  (125) 
33:0-1

>  <s_i_glide_gridfile>  (125) 
pfpi4k_grid

>  <i_i_glide_lignum>  (125) 
11

>  <i_i_glide_rotatable_bonds>  (125) 
2

>  <r_i_docking_score>  (125) 
-3.73536

>  <r_i_glide_ligand_efficiency>  (125) 
-0.169789

>  <r_i_glide_ligand_efficiency_sa>  (125) 
-0.475756

>  <r_i_glide_ligand_efficiency_ln>  (125) 
-0.913058

>  <r_i_glide_gscore>  (125) 
-3.73536

>  <r_i_glide_lipo>  (125) 
-0.514544

>  <r_i_glide_hbond>  (125) 
0

>  <r_i_glide_metal>  (125) 
-0

>  <r_i_glide_rewards>  (125) 
-1.42608

>  <r_i_glide_evdw>  (125) 
-29.7262

>  <r_i_glide_ecoul>  (125) 
-2.0562

>  <r_i_glide_erotb>  (125) 
0

>  <r_i_glide_esite>  (125) 
0

>  <r_i_glide_emodel>  (125) 
-38.19

>  <r_i_glide_energy>  (125) 
-31.7824

>  <r_i_glide_einternal>  (125) 
0.84851

>  <r_i_glide_intrahb_reward>  (125) 
-0

>  <i_i_glide_confnum>  (125) 
2

>  <i_i_glide_posenum>  (125) 
29

>  <r_i_glide_eff_state_penalty>  (125) 
0

>  <ligand_id>  (125) 
33

>  <original_smiles>  (125) 
C=C1C(=O)OC2CC3C(C(O)C12)C1OC12C(O)C(C)=CC32C

>  <smiles>  (125) 
[H]OC1([H])C(C([H])([H])[H])=C([H])C2(C([H])([H])[H])C3([H])C([H])([H])C4([H])OC(=O)C(=C([H])[H])C4([H])C([H])(O[H])C3([H])C3([H])OC132

$$$$
33:0:1
     RDKit          3D

 42 46  0  0  1  0  0  0  0  0999 V2000
    3.2681   -1.8717    5.4366 C   0  0  0  0  0  0  0  0  0  0  0  0
    3.9825   -1.2283    4.4946 C   0  0  0  0  0  0  0  0  0  0  0  0
    5.0841   -0.2952    4.7810 C   0  0  0  0  0  0  0  0  0  0  0  0
    5.3545    0.2158    5.8652 O   0  0  0  0  0  0  0  0  0  0  0  0
    5.7353   -0.0592    3.6178 O   0  0  0  0  0  0  0  0  0  0  0  0
    5.3610   -0.9985    2.6213 C   0  0  2  0  0  0  0  0  0  0  0  0
    5.5034   -0.6439    1.1247 C   0  0  0  0  0  0  0  0  0  0  0  0
    4.9891   -1.8878    0.3714 C   0  0  1  0  0  0  0  0  0  0  0  0
    3.5370   -2.2377    0.7491 C   0  0  2  0  0  0  0  0  0  0  0  0
    3.3490   -2.5428    2.2632 C   0  0  1  0  0  0  0  0  0  0  0  0
    4.0210   -3.7228    2.6607 O   0  0  0  0  0  0  0  0  0  0  0  0
    3.9072   -1.3003    2.9976 C   0  0  1  0  0  0  0  0  0  0  0  0
    3.1138   -3.2683   -0.2753 C   0  0  2  0  0  0  0  0  0  0  0  0
    4.0008   -4.3294   -0.7112 O   0  0  0  0  0  0  0  0  0  0  0  0
    4.0306   -3.0982   -1.4458 C   0  0  1  0  0  0  0  0  0  0  0  0
    3.5254   -2.8934   -2.8726 C   0  0  1  0  0  0  0  0  0  0  0  0
    2.1353   -3.0514   -3.0250 O   0  0  0  0  0  0  0  0  0  0  0  0
    3.9183   -1.4436   -3.0914 C   0  0  0  0  0  0  0  0  0  0  0  0
    3.4320   -0.6618   -4.3058 C   0  0  0  0  0  0  0  0  0  0  0  0
    4.7338   -1.0010   -2.1267 C   0  0  0  0  0  0  0  0  0  0  0  0
    5.1303   -2.0965   -1.1571 C   0  0  1  0  0  0  0  0  0  0  0  0
    6.5264   -2.6289   -1.5310 C   0  0  0  0  0  0  0  0  0  0  0  0
    2.4796   -2.5635    5.1803 H   0  0  0  0  0  0  0  0  0  0  0  0
    3.4640   -1.7085    6.4920 H   0  0  0  0  0  0  0  0  0  0  0  0
    5.9665   -1.8857    2.8196 H   0  0  0  0  0  0  0  0  0  0  0  0
    4.9234    0.2451    0.8616 H   0  0  0  0  0  0  0  0  0  0  0  0
    6.5462   -0.4538    0.8731 H   0  0  0  0  0  0  0  0  0  0  0  0
    5.5740   -2.7139    0.7692 H   0  0  0  0  0  0  0  0  0  0  0  0
    2.9294   -1.3564    0.5235 H   0  0  0  0  0  0  0  0  0  0  0  0
    2.2870   -2.6610    2.4818 H   0  0  0  0  0  0  0  0  0  0  0  0
    3.9117   -3.8395    3.5950 H   0  0  0  0  0  0  0  0  0  0  0  0
    3.2915   -0.4460    2.7120 H   0  0  0  0  0  0  0  0  0  0  0  0
    2.0501   -3.4281   -0.4293 H   0  0  0  0  0  0  0  0  0  0  0  0
    4.0598   -3.5311   -3.5731 H   0  0  0  0  0  0  0  0  0  0  0  0
    1.9181   -3.9663   -2.9225 H   0  0  0  0  0  0  0  0  0  0  0  0
    3.6961   -1.2022   -5.2101 H   0  0  0  0  0  0  0  0  0  0  0  0
    3.8830    0.3312   -4.3620 H   0  0  0  0  0  0  0  0  0  0  0  0
    2.3472   -0.5506   -4.2955 H   0  0  0  0  0  0  0  0  0  0  0  0
    5.1541   -0.0072   -2.1000 H   0  0  0  0  0  0  0  0  0  0  0  0
    6.7546   -3.5612   -1.0183 H   0  0  0  0  0  0  0  0  0  0  0  0
    7.2935   -1.9136   -1.2489 H   0  0  0  0  0  0  0  0  0  0  0  0
    6.6308   -2.8164   -2.6011 H   0  0  0  0  0  0  0  0  0  0  0  0
  1  2  2  0
  1 23  1  0
  1 24  1  0
  2 12  1  0
  2  3  1  0
  3  4  2  0
  3  5  1  0
  5  6  1  0
  6 12  1  0
  6  7  1  0
  6 25  1  1
  7  8  1  0
  7 26  1  0
  7 27  1  0
  8 21  1  0
  8  9  1  0
  8 28  1  1
  9 10  1  0
  9 13  1  0
  9 29  1  6
 10 11  1  0
 10 12  1  0
 10 30  1  6
 11 31  1  0
 12 32  1  6
 13 15  1  0
 13 14  1  0
 13 33  1  6
 15 14  1  6
 15 21  1  0
 15 16  1  0
 16 17  1  0
 16 18  1  0
 16 34  1  6
 17 35  1  0
 18 19  1  0
 18 20  2  0
 19 36  1  0
 19 37  1  0
 19 38  1  0
 20 21  1  0
 20 39  1  0
 21 22  1  1
 22 40  1  0
 22 41  1  0
 22 42  1  0
M  END
>  <i_m_ct_stereo_status>  (126) 
1

>  <s_m_source_file>  (126) 
/var/tmp/pbs.5076255.sched01/tmpco4mv84g/486h_uxm9x.sdf

>  <i_m_source_file_index>  (126) 
11

>  <i_lp_mmshare_version>  (126) 
48012

>  <i_f3d_flags>  (126) 
0

>  <s_epik_input>  (126) 
Tz1DKE8xKUMoPVtDSDJdKVtDQEhdKFtDQEBIXTJbT0hdKVtDQEhdMVtDSDJdW0NAQEhdKFtDQEhdMltDQEhdKE8zKVtDQEBdMzQ1KVtDQF01KFtDSDNdKVtDSF09QyhbQ0gzXSlbQ0BASF00W09IXQ==

>  <s_epik_cmdline>  (126) 
J2VwaWtfcHl0aG9uJywgJy1waHQnLCAnMi4wJywgJy1waCcsICc3LjAnLCAnLXRuJywgJzgnLCAnLW1hJywgJzIwMCcsICctaW1hZScsICc8aW5maWxlLm1hZT4nLCAnLW9tYWUnLCAnPG91dGZpbGUubWFlPic=

>  <r_lp_tautomer_probability>  (126) 
1

>  <r_epik_Ionization_Penalty>  (126) 
3.31895e-07

>  <r_epik_Ionization_Penalty_Charging>  (126) 
0

>  <r_epik_Ionization_Penalty_Neutral>  (126) 
3.31895e-07

>  <r_epik_State_Penalty>  (126) 
-0

>  <r_epik_Charging_Adjusted_Penalty>  (126) 
0

>  <i_epik_Tot_Q>  (126) 
0

>  <i_epik_Tot_abs_Q>  (126) 
0

>  <s_epik_Chemistry_Notes>  (126) 
This compound has an ester and may undergo hydrolysis at high or low pH.

>  <s_lp_Force_Field>  (126) 
OPLS3e

>  <r_lp_Energy>  (126) 
29.8624

>  <b_lp_Chiralities_Consistent>  (126) 
1

>  <s_lp_Variant>  (126) 
33:0-1

>  <s_i_glide_gridfile>  (126) 
pfpi4k_grid

>  <i_i_glide_lignum>  (126) 
11

>  <i_i_glide_rotatable_bonds>  (126) 
2

>  <r_i_docking_score>  (126) 
-3.69325

>  <r_i_glide_ligand_efficiency>  (126) 
-0.167875

>  <r_i_glide_ligand_efficiency_sa>  (126) 
-0.470392

>  <r_i_glide_ligand_efficiency_ln>  (126) 
-0.902764

>  <r_i_glide_gscore>  (126) 
-3.69325

>  <r_i_glide_lipo>  (126) 
-0.521926

>  <r_i_glide_hbond>  (126) 
0

>  <r_i_glide_metal>  (126) 
-0

>  <r_i_glide_rewards>  (126) 
-1.42318

>  <r_i_glide_evdw>  (126) 
-29.7455

>  <r_i_glide_ecoul>  (126) 
-1.73913

>  <r_i_glide_erotb>  (126) 
0

>  <r_i_glide_esite>  (126) 
0

>  <r_i_glide_emodel>  (126) 
-37.8224

>  <r_i_glide_energy>  (126) 
-31.4847

>  <r_i_glide_einternal>  (126) 
0.840357

>  <r_i_glide_intrahb_reward>  (126) 
-0

>  <i_i_glide_confnum>  (126) 
2

>  <i_i_glide_posenum>  (126) 
8

>  <r_i_glide_eff_state_penalty>  (126) 
0

>  <ligand_id>  (126) 
33

>  <original_smiles>  (126) 
C=C1C(=O)OC2CC3C(C(O)C12)C1OC12C(O)C(C)=CC32C

>  <smiles>  (126) 
[H]OC1([H])C(C([H])([H])[H])=C([H])C2(C([H])([H])[H])C3([H])C([H])([H])C4([H])OC(=O)C(=C([H])[H])C4([H])C([H])(O[H])C3([H])C3([H])OC132

$$$$
33:0:2
     RDKit          3D

 42 46  0  0  1  0  0  0  0  0999 V2000
    3.3600   -1.6696    5.4470 C   0  0  0  0  0  0  0  0  0  0  0  0
    4.0700   -1.0746    4.4715 C   0  0  0  0  0  0  0  0  0  0  0  0
    5.2005   -0.1647    4.7048 C   0  0  0  0  0  0  0  0  0  0  0  0
    5.5170    0.3682    5.7711 O   0  0  0  0  0  0  0  0  0  0  0  0
    5.8185    0.0267    3.5228 O   0  0  0  0  0  0  0  0  0  0  0  0
    5.4104   -0.9374    2.5627 C   0  0  2  0  0  0  0  0  0  0  0  0
    5.5324   -0.6294    1.0544 C   0  0  0  0  0  0  0  0  0  0  0  0
    4.9685   -1.8804    0.3456 C   0  0  1  0  0  0  0  0  0  0  0  0
    3.5177   -2.1823    0.7610 C   0  0  2  0  0  0  0  0  0  0  0  0
    3.3536   -2.4361    2.2855 C   0  0  1  0  0  0  0  0  0  0  0  0
    3.9675   -3.6368    2.7121 O   0  0  0  0  0  0  0  0  0  0  0  0
    3.9613   -1.1911    2.9775 C   0  0  1  0  0  0  0  0  0  0  0  0
    3.0422   -3.2248   -0.2269 C   0  0  2  0  0  0  0  0  0  0  0  0
    3.8902   -4.3182   -0.6547 O   0  0  0  0  0  0  0  0  0  0  0  0
    3.9319   -3.1073   -1.4213 C   0  0  1  0  0  0  0  0  0  0  0  0
    3.4009   -2.9303   -2.8404 C   0  0  1  0  0  0  0  0  0  0  0  0
    2.0001   -3.0503   -2.9601 O   0  0  0  0  0  0  0  0  0  0  0  0
    3.8348   -1.4982   -3.1026 C   0  0  0  0  0  0  0  0  0  0  0  0
    3.3484   -0.7354   -4.3227 C   0  0  0  0  0  0  0  0  0  0  0  0
    4.6849   -1.0514   -2.1688 C   0  0  0  0  0  0  0  0  0  0  0  0
    5.0698   -2.1312   -1.1826 C   0  0  1  0  0  0  0  0  0  0  0  0
    6.4429   -2.7078   -1.5682 C   0  0  0  0  0  0  0  0  0  0  0  0
    2.5544   -2.3501    5.2225 H   0  0  0  0  0  0  0  0  0  0  0  0
    3.5824   -1.4827    6.4933 H   0  0  0  0  0  0  0  0  0  0  0  0
    6.0025   -1.8316    2.7740 H   0  0  0  0  0  0  0  0  0  0  0  0
    4.9729    0.2656    0.7772 H   0  0  0  0  0  0  0  0  0  0  0  0
    6.5758   -0.4748    0.7806 H   0  0  0  0  0  0  0  0  0  0  0  0
    5.5441   -2.7092    0.7508 H   0  0  0  0  0  0  0  0  0  0  0  0
    2.9299   -1.2913    0.5263 H   0  0  0  0  0  0  0  0  0  0  0  0
    2.2932   -2.5114    2.5323 H   0  0  0  0  0  0  0  0  0  0  0  0
    4.8810   -3.6320    2.4634 H   0  0  0  0  0  0  0  0  0  0  0  0
    3.3633   -0.3283    2.6802 H   0  0  0  0  0  0  0  0  0  0  0  0
    1.9692   -3.3602   -0.3522 H   0  0  0  0  0  0  0  0  0  0  0  0
    3.9043   -3.6007   -3.5316 H   0  0  0  0  0  0  0  0  0  0  0  0
    1.7589   -3.9670   -2.9724 H   0  0  0  0  0  0  0  0  0  0  0  0
    3.5732   -1.3152   -5.2136 H   0  0  0  0  0  0  0  0  0  0  0  0
    3.8255    0.2413   -4.4230 H   0  0  0  0  0  0  0  0  0  0  0  0
    2.2676   -0.5937   -4.2970 H   0  0  0  0  0  0  0  0  0  0  0  0
    5.1342   -0.0687   -2.1773 H   0  0  0  0  0  0  0  0  0  0  0  0
    6.6574   -3.6311   -1.0336 H   0  0  0  0  0  0  0  0  0  0  0  0
    7.2375   -2.0070   -1.3265 H   0  0  0  0  0  0  0  0  0  0  0  0
    6.5192   -2.9323   -2.6339 H   0  0  0  0  0  0  0  0  0  0  0  0
  1  2  2  0
  1 23  1  0
  1 24  1  0
  2 12  1  0
  2  3  1  0
  3  4  2  0
  3  5  1  0
  5  6  1  0
  6 12  1  0
  6  7  1  0
  6 25  1  6
  7  8  1  0
  7 26  1  0
  7 27  1  0
  8 21  1  0
  8  9  1  0
  8 28  1  1
  9 10  1  0
  9 13  1  0
  9 29  1  6
 10 11  1  0
 10 12  1  0
 10 30  1  6
 11 31  1  0
 12 32  1  6
 13 15  1  0
 13 14  1  0
 13 33  1  6
 15 14  1  6
 15 21  1  0
 15 16  1  0
 16 17  1  0
 16 18  1  0
 16 34  1  6
 17 35  1  0
 18 19  1  0
 18 20  2  0
 19 36  1  0
 19 37  1  0
 19 38  1  0
 20 21  1  0
 20 39  1  0
 21 22  1  1
 22 40  1  0
 22 41  1  0
 22 42  1  0
M  END
>  <i_m_ct_stereo_status>  (127) 
1

>  <s_m_source_file>  (127) 
/var/tmp/pbs.5076255.sched01/tmpco4mv84g/486h_uxm9x.sdf

>  <i_m_source_file_index>  (127) 
11

>  <i_lp_mmshare_version>  (127) 
48012

>  <i_f3d_flags>  (127) 
0

>  <s_epik_input>  (127) 
Tz1DKE8xKUMoPVtDSDJdKVtDQEhdKFtDQEBIXTJbT0hdKVtDQEhdMVtDSDJdW0NAQEhdKFtDQEhdMltDQEhdKE8zKVtDQEBdMzQ1KVtDQF01KFtDSDNdKVtDSF09QyhbQ0gzXSlbQ0BASF00W09IXQ==

>  <s_epik_cmdline>  (127) 
J2VwaWtfcHl0aG9uJywgJy1waHQnLCAnMi4wJywgJy1waCcsICc3LjAnLCAnLXRuJywgJzgnLCAnLW1hJywgJzIwMCcsICctaW1hZScsICc8aW5maWxlLm1hZT4nLCAnLW9tYWUnLCAnPG91dGZpbGUubWFlPic=

>  <r_lp_tautomer_probability>  (127) 
1

>  <r_epik_Ionization_Penalty>  (127) 
3.31895e-07

>  <r_epik_Ionization_Penalty_Charging>  (127) 
0

>  <r_epik_Ionization_Penalty_Neutral>  (127) 
3.31895e-07

>  <r_epik_State_Penalty>  (127) 
-0

>  <r_epik_Charging_Adjusted_Penalty>  (127) 
0

>  <i_epik_Tot_Q>  (127) 
0

>  <i_epik_Tot_abs_Q>  (127) 
0

>  <s_epik_Chemistry_Notes>  (127) 
This compound has an ester and may undergo hydrolysis at high or low pH.

>  <s_lp_Force_Field>  (127) 
OPLS3e

>  <r_lp_Energy>  (127) 
29.8624

>  <b_lp_Chiralities_Consistent>  (127) 
1

>  <s_lp_Variant>  (127) 
33:0-1

>  <s_i_glide_gridfile>  (127) 
pfpi4k_grid

>  <i_i_glide_lignum>  (127) 
11

>  <i_i_glide_rotatable_bonds>  (127) 
2

>  <r_i_docking_score>  (127) 
-3.6873

>  <r_i_glide_ligand_efficiency>  (127) 
-0.167604

>  <r_i_glide_ligand_efficiency_sa>  (127) 
-0.469634

>  <r_i_glide_ligand_efficiency_ln>  (127) 
-0.90131

>  <r_i_glide_gscore>  (127) 
-3.6873

>  <r_i_glide_lipo>  (127) 
-0.479989

>  <r_i_glide_hbond>  (127) 
-0.0226697

>  <r_i_glide_metal>  (127) 
-0

>  <r_i_glide_rewards>  (127) 
-1.43126

>  <r_i_glide_evdw>  (127) 
-29.4319

>  <r_i_glide_ecoul>  (127) 
-1.87854

>  <r_i_glide_erotb>  (127) 
0

>  <r_i_glide_esite>  (127) 
0

>  <r_i_glide_emodel>  (127) 
-37.7231

>  <r_i_glide_energy>  (127) 
-31.3104

>  <r_i_glide_einternal>  (127) 
0.611358

>  <r_i_glide_intrahb_reward>  (127) 
-0

>  <i_i_glide_confnum>  (127) 
1

>  <i_i_glide_posenum>  (127) 
2

>  <r_i_glide_eff_state_penalty>  (127) 
0

>  <ligand_id>  (127) 
33

>  <original_smiles>  (127) 
C=C1C(=O)OC2CC3C(C(O)C12)C1OC12C(O)C(C)=CC32C

>  <smiles>  (127) 
[H]OC1([H])C(C([H])([H])[H])=C([H])C2(C([H])([H])[H])C3([H])C([H])([H])C4([H])OC(=O)C(=C([H])[H])C4([H])C([H])(O[H])C3([H])C3([H])OC132

$$$$
34:0:0
     RDKit          3D

 47 50  0  0  1  0  0  0  0  0999 V2000
    7.2002   -7.4148    1.7104 C   0  0  0  0  0  0  0  0  0  0  0  0
    6.6405   -6.1631    1.0602 C   0  0  0  0  0  0  0  0  0  0  0  0
    5.3556   -5.7915    0.8001 C   0  0  0  0  0  0  0  0  0  0  0  0
    5.1100   -4.4914    0.1407 C   0  0  0  0  0  0  0  0  0  0  0  0
    6.0578   -3.8531   -0.5895 C   0  0  0  0  0  0  0  0  0  0  0  0
    5.9113   -2.6325   -1.2100 O   0  0  0  0  0  0  0  0  0  0  0  0
    4.7376   -1.8582   -0.9350 C   0  0  1  0  0  0  0  0  0  0  0  0
    4.2629   -1.2525   -2.2594 C   0  0  0  0  0  0  0  0  0  0  0  0
    3.6236   -2.6363   -0.2645 C   0  0  0  0  0  0  0  0  0  0  0  0
    3.7832   -3.8776    0.2122 C   0  0  0  0  0  0  0  0  0  0  0  0
    2.5793   -4.6253    0.7722 C   0  0  1  0  0  0  0  0  0  0  0  0
    1.8345   -5.1564   -0.3162 O   0  0  0  0  0  0  0  0  0  0  0  0
    2.9882   -5.7312    1.7811 C   0  0  1  0  0  0  0  0  0  0  0  0
    3.5552   -5.0806    2.9083 O   0  0  0  0  0  0  0  0  0  0  0  0
    1.7882   -6.5613    2.3244 C   0  0  0  0  0  0  0  0  0  0  0  0
    0.6047   -6.2636    2.1488 O   0  0  0  0  0  0  0  0  0  0  0  0
    2.2682   -7.7344    3.1221 C   0  0  2  0  0  0  0  0  0  0  0  0
    2.8680   -8.5819    2.0029 C   0  0  1  0  0  0  0  0  0  0  0  0
    4.2630   -8.0324    1.8170 C   0  0  0  0  0  0  0  0  0  0  0  0
    4.1027   -6.6337    1.1299 C   0  0  2  0  0  0  0  0  0  0  0  0
    2.0563   -9.2264    3.0886 C   0  0  0  0  0  0  0  0  0  0  0  0
    2.7897  -10.1197    4.0693 C   0  0  0  0  0  0  0  0  0  0  0  0
    0.6604   -9.7531    2.8162 C   0  0  0  0  0  0  0  0  0  0  0  0
    8.2879   -7.3401    1.7469 H   0  0  0  0  0  0  0  0  0  0  0  0
    6.9673   -8.3135    1.1396 H   0  0  0  0  0  0  0  0  0  0  0  0
    6.8618   -7.5216    2.7407 H   0  0  0  0  0  0  0  0  0  0  0  0
    7.4426   -5.4838    0.8191 H   0  0  0  0  0  0  0  0  0  0  0  0
    7.0576   -4.2218   -0.7419 H   0  0  0  0  0  0  0  0  0  0  0  0
    5.0239   -1.0522   -0.2601 H   0  0  0  0  0  0  0  0  0  0  0  0
    3.4193   -0.5822   -2.1046 H   0  0  0  0  0  0  0  0  0  0  0  0
    3.9415   -2.0235   -2.9603 H   0  0  0  0  0  0  0  0  0  0  0  0
    5.0566   -0.6744   -2.7284 H   0  0  0  0  0  0  0  0  0  0  0  0
    2.6557   -2.1511   -0.2278 H   0  0  0  0  0  0  0  0  0  0  0  0
    1.9466   -3.9065    1.2958 H   0  0  0  0  0  0  0  0  0  0  0  0
    2.4345   -5.4536   -0.9966 H   0  0  0  0  0  0  0  0  0  0  0  0
    4.2982   -4.5710    2.6232 H   0  0  0  0  0  0  0  0  0  0  0  0
    2.9146   -7.4431    3.9477 H   0  0  0  0  0  0  0  0  0  0  0  0
    2.3540   -8.6840    1.0471 H   0  0  0  0  0  0  0  0  0  0  0  0
    4.7606   -7.9612    2.7861 H   0  0  0  0  0  0  0  0  0  0  0  0
    4.8158   -8.7294    1.1874 H   0  0  0  0  0  0  0  0  0  0  0  0
    3.7468   -6.8847    0.1316 H   0  0  0  0  0  0  0  0  0  0  0  0
    2.8946  -11.1291    3.6658 H   0  0  0  0  0  0  0  0  0  0  0  0
    2.2615  -10.1664    5.0234 H   0  0  0  0  0  0  0  0  0  0  0  0
    3.7915   -9.7257    4.2516 H   0  0  0  0  0  0  0  0  0  0  0  0
    0.7016  -10.7589    2.3973 H   0  0  0  0  0  0  0  0  0  0  0  0
    0.1514   -9.1107    2.0980 H   0  0  0  0  0  0  0  0  0  0  0  0
    0.0724   -9.7760    3.7341 H   0  0  0  0  0  0  0  0  0  0  0  0
  1  2  1  0
  1 24  1  0
  1 25  1  0
  1 26  1  0
  2  3  2  3
  2 27  1  0
  3 20  1  0
  3  4  1  0
  4 10  1  0
  4  5  2  0
  5  6  1  0
  5 28  1  0
  6  7  1  0
  7  8  1  0
  7  9  1  0
  7 29  1  1
  8 30  1  0
  8 31  1  0
  8 32  1  0
  9 10  2  0
  9 33  1  0
 10 11  1  0
 11 12  1  0
 11 13  1  0
 11 34  1  1
 12 35  1  0
 13 20  1  0
 13 14  1  1
 13 15  1  0
 14 36  1  0
 15 16  2  0
 15 17  1  0
 17 21  1  0
 17 18  1  0
 17 37  1  1
 18 19  1  0
 18 21  1  0
 18 38  1  6
 19 20  1  0
 19 39  1  0
 19 40  1  0
 20 41  1  6
 21 22  1  0
 21 23  1  0
 22 42  1  0
 22 43  1  0
 22 44  1  0
 23 45  1  0
 23 46  1  0
 23 47  1  0
M  END
>  <i_m_ct_stereo_status>  (128) 
1

>  <s_m_source_file>  (128) 
/var/tmp/pbs.5076255.sched01/tmpco4mv84g/486h_uxm9x.sdf

>  <i_m_source_file_index>  (128) 
12

>  <i_lp_mmshare_version>  (128) 
48012

>  <i_f3d_flags>  (128) 
0

>  <s_epik_input>  (128) 
Tz1DMVtDQEBIXShDMihbQ0gzXSlbQ0gzXSlbQ0BIXTJbQ0gyXVtDQEBIXShbQ0BdMTNbT0hdKUMoPVtDSF1cW0NIM10pL0M9NEMoW0NASF0zW09IXSk9W0NIXVtDQEhdKFtDSDNdKU9bQ0hdNA==

>  <s_epik_cmdline>  (128) 
J2VwaWtfcHl0aG9uJywgJy1waHQnLCAnMi4wJywgJy1waCcsICc3LjAnLCAnLXRuJywgJzgnLCAnLW1hJywgJzIwMCcsICctaW1hZScsICc8aW5maWxlLm1hZT4nLCAnLW9tYWUnLCAnPG91dGZpbGUubWFlPic=

>  <r_epik_Ionization_Penalty>  (128) 
0.000309151

>  <r_epik_Ionization_Penalty_Charging>  (128) 
0

>  <r_epik_Ionization_Penalty_Neutral>  (128) 
0.000309151

>  <r_epik_State_Penalty>  (128) 
0.000186075

>  <r_epik_Charging_Adjusted_Penalty>  (128) 
0.000186075

>  <i_epik_Tot_Q>  (128) 
0

>  <i_epik_Tot_abs_Q>  (128) 
0

>  <s_lp_Force_Field>  (128) 
OPLS3e

>  <r_lp_Energy>  (128) 
70.4818

>  <b_lp_Chiralities_Consistent>  (128) 
1

>  <s_lp_Variant>  (128) 
34:0-1

>  <s_i_glide_gridfile>  (128) 
pfpi4k_grid

>  <i_i_glide_lignum>  (128) 
12

>  <i_i_glide_rotatable_bonds>  (128) 
2

>  <r_i_docking_score>  (128) 
-4.18371

>  <r_i_glide_ligand_efficiency>  (128) 
-0.181901

>  <r_i_glide_ligand_efficiency_sa>  (128) 
-0.517301

>  <r_i_glide_ligand_efficiency_ln>  (128) 
-1.01166

>  <r_i_glide_gscore>  (128) 
-4.18371

>  <r_i_glide_lipo>  (128) 
-0.449578

>  <r_i_glide_hbond>  (128) 
-0.0888103

>  <r_i_glide_metal>  (128) 
-0

>  <r_i_glide_rewards>  (128) 
-1.25188

>  <r_i_glide_evdw>  (128) 
-23.787

>  <r_i_glide_ecoul>  (128) 
-7.87241

>  <r_i_glide_erotb>  (128) 
0

>  <r_i_glide_esite>  (128) 
-0.0232362

>  <r_i_glide_emodel>  (128) 
-40.5839

>  <r_i_glide_energy>  (128) 
-31.6594

>  <r_i_glide_einternal>  (128) 
0.424835

>  <r_i_glide_intrahb_reward>  (128) 
-0

>  <i_i_glide_confnum>  (128) 
1

>  <i_i_glide_posenum>  (128) 
19

>  <r_i_glide_eff_state_penalty>  (128) 
0

>  <ligand_id>  (128) 
34

>  <original_smiles>  (128) 
CC=C1C2=COC(C)C=C2C(O)C2(O)C(=O)C3C(CC12)C3(C)C

>  <smiles>  (128) 
[H]OC1([H])C2=C([H])C([H])(C([H])([H])[H])OC([H])=C2C(=C([H])C([H])([H])[H])C2([H])C([H])([H])C3([H])C([H])(C(=O)C12O[H])C3(C([H])([H])[H])C([H])([H])[H]

$$$$
34:0:1
     RDKit          3D

 47 50  0  0  1  0  0  0  0  0999 V2000
    7.1906   -7.4914    1.6960 C   0  0  0  0  0  0  0  0  0  0  0  0
    6.6592   -6.2131    1.0678 C   0  0  0  0  0  0  0  0  0  0  0  0
    5.3865   -5.8093    0.8078 C   0  0  0  0  0  0  0  0  0  0  0  0
    5.1710   -4.4877    0.1753 C   0  0  0  0  0  0  0  0  0  0  0  0
    6.1351   -3.8569   -0.5408 C   0  0  0  0  0  0  0  0  0  0  0  0
    6.0184   -2.6185   -1.1313 O   0  0  0  0  0  0  0  0  0  0  0  0
    4.8621   -1.8261   -0.8428 C   0  0  1  0  0  0  0  0  0  0  0  0
    4.4147   -1.1816   -2.1585 C   0  0  0  0  0  0  0  0  0  0  0  0
    3.7264   -2.5929   -0.1947 C   0  0  0  0  0  0  0  0  0  0  0  0
    3.8542   -3.8486    0.2583 C   0  0  0  0  0  0  0  0  0  0  0  0
    2.6257   -4.5816    0.7923 C   0  0  1  0  0  0  0  0  0  0  0  0
    1.8860   -5.0753   -0.3152 O   0  0  0  0  0  0  0  0  0  0  0  0
    3.0077   -5.7216    1.7766 C   0  0  1  0  0  0  0  0  0  0  0  0
    3.5871   -5.1025    2.9167 O   0  0  0  0  0  0  0  0  0  0  0  0
    1.7909   -6.5474    2.2960 C   0  0  0  0  0  0  0  0  0  0  0  0
    0.6096   -6.2526    2.1100 O   0  0  0  0  0  0  0  0  0  0  0  0
    2.2478   -7.7408    3.0724 C   0  0  2  0  0  0  0  0  0  0  0  0
    2.8348   -8.5764    1.9373 C   0  0  1  0  0  0  0  0  0  0  0  0
    4.2398   -8.0490    1.7707 C   0  0  0  0  0  0  0  0  0  0  0  0
    4.1105   -6.6315    1.1128 C   0  0  2  0  0  0  0  0  0  0  0  0
    2.0032   -9.2258    3.0060 C   0  0  0  0  0  0  0  0  0  0  0  0
    2.7139  -10.1520    3.9728 C   0  0  0  0  0  0  0  0  0  0  0  0
    0.5971   -9.7141    2.7161 C   0  0  0  0  0  0  0  0  0  0  0  0
    8.2786   -7.4417    1.7424 H   0  0  0  0  0  0  0  0  0  0  0  0
    6.9434   -8.3712    1.1045 H   0  0  0  0  0  0  0  0  0  0  0  0
    6.8428   -7.6132    2.7212 H   0  0  0  0  0  0  0  0  0  0  0  0
    7.4761   -5.5445    0.8448 H   0  0  0  0  0  0  0  0  0  0  0  0
    7.1251   -4.2481   -0.7170 H   0  0  0  0  0  0  0  0  0  0  0  0
    5.1651   -1.0415   -0.1497 H   0  0  0  0  0  0  0  0  0  0  0  0
    3.5930   -0.4878   -1.9941 H   0  0  0  0  0  0  0  0  0  0  0  0
    4.0750   -1.9301   -2.8745 H   0  0  0  0  0  0  0  0  0  0  0  0
    5.2276   -0.6194   -2.6150 H   0  0  0  0  0  0  0  0  0  0  0  0
    2.7692   -2.0886   -0.1540 H   0  0  0  0  0  0  0  0  0  0  0  0
    2.0042   -3.8619    1.3265 H   0  0  0  0  0  0  0  0  0  0  0  0
    2.4896   -5.4004   -0.9790 H   0  0  0  0  0  0  0  0  0  0  0  0
    3.9238   -5.7752    3.4899 H   0  0  0  0  0  0  0  0  0  0  0  0
    2.8882   -7.4808    3.9119 H   0  0  0  0  0  0  0  0  0  0  0  0
    2.3233   -8.6474    0.9765 H   0  0  0  0  0  0  0  0  0  0  0  0
    4.7334   -8.0141    2.7441 H   0  0  0  0  0  0  0  0  0  0  0  0
    4.7847   -8.7443    1.1304 H   0  0  0  0  0  0  0  0  0  0  0  0
    3.7552   -6.8549    0.1073 H   0  0  0  0  0  0  0  0  0  0  0  0
    2.8009  -11.1542    3.5489 H   0  0  0  0  0  0  0  0  0  0  0  0
    2.1785  -10.2090    4.9216 H   0  0  0  0  0  0  0  0  0  0  0  0
    3.7229   -9.7821    4.1695 H   0  0  0  0  0  0  0  0  0  0  0  0
    0.6176  -10.7062    2.2673 H   0  0  0  0  0  0  0  0  0  0  0  0
    0.1026   -9.0398    2.0184 H   0  0  0  0  0  0  0  0  0  0  0  0
    0.0044   -9.7469    3.6299 H   0  0  0  0  0  0  0  0  0  0  0  0
  1  2  1  0
  1 24  1  0
  1 25  1  0
  1 26  1  0
  2  3  2  3
  2 27  1  0
  3 20  1  0
  3  4  1  0
  4 10  1  0
  4  5  2  0
  5  6  1  0
  5 28  1  0
  6  7  1  0
  7  8  1  0
  7  9  1  0
  7 29  1  1
  8 30  1  0
  8 31  1  0
  8 32  1  0
  9 10  2  0
  9 33  1  0
 10 11  1  0
 11 12  1  0
 11 13  1  0
 11 34  1  1
 12 35  1  0
 13 20  1  0
 13 14  1  1
 13 15  1  0
 14 36  1  0
 15 16  2  0
 15 17  1  0
 17 21  1  0
 17 18  1  0
 17 37  1  1
 18 19  1  0
 18 21  1  0
 18 38  1  6
 19 20  1  0
 19 39  1  0
 19 40  1  0
 20 41  1  6
 21 22  1  0
 21 23  1  0
 22 42  1  0
 22 43  1  0
 22 44  1  0
 23 45  1  0
 23 46  1  0
 23 47  1  0
M  END
>  <i_m_ct_stereo_status>  (129) 
1

>  <s_m_source_file>  (129) 
/var/tmp/pbs.5076255.sched01/tmpco4mv84g/486h_uxm9x.sdf

>  <i_m_source_file_index>  (129) 
12

>  <i_lp_mmshare_version>  (129) 
48012

>  <i_f3d_flags>  (129) 
0

>  <s_epik_input>  (129) 
Tz1DMVtDQEBIXShDMihbQ0gzXSlbQ0gzXSlbQ0BIXTJbQ0gyXVtDQEBIXShbQ0BdMTNbT0hdKUMoPVtDSF1cW0NIM10pL0M9NEMoW0NASF0zW09IXSk9W0NIXVtDQEhdKFtDSDNdKU9bQ0hdNA==

>  <s_epik_cmdline>  (129) 
J2VwaWtfcHl0aG9uJywgJy1waHQnLCAnMi4wJywgJy1waCcsICc3LjAnLCAnLXRuJywgJzgnLCAnLW1hJywgJzIwMCcsICctaW1hZScsICc8aW5maWxlLm1hZT4nLCAnLW9tYWUnLCAnPG91dGZpbGUubWFlPic=

>  <r_epik_Ionization_Penalty>  (129) 
0.000309151

>  <r_epik_Ionization_Penalty_Charging>  (129) 
0

>  <r_epik_Ionization_Penalty_Neutral>  (129) 
0.000309151

>  <r_epik_State_Penalty>  (129) 
0.000186075

>  <r_epik_Charging_Adjusted_Penalty>  (129) 
0.000186075

>  <i_epik_Tot_Q>  (129) 
0

>  <i_epik_Tot_abs_Q>  (129) 
0

>  <s_lp_Force_Field>  (129) 
OPLS3e

>  <r_lp_Energy>  (129) 
70.4818

>  <b_lp_Chiralities_Consistent>  (129) 
1

>  <s_lp_Variant>  (129) 
34:0-1

>  <s_i_glide_gridfile>  (129) 
pfpi4k_grid

>  <i_i_glide_lignum>  (129) 
12

>  <i_i_glide_rotatable_bonds>  (129) 
2

>  <r_i_docking_score>  (129) 
-4.15687

>  <r_i_glide_ligand_efficiency>  (129) 
-0.180734

>  <r_i_glide_ligand_efficiency_sa>  (129) 
-0.513982

>  <r_i_glide_ligand_efficiency_ln>  (129) 
-1.00517

>  <r_i_glide_gscore>  (129) 
-4.15687

>  <r_i_glide_lipo>  (129) 
-0.468104

>  <r_i_glide_hbond>  (129) 
-0.098196

>  <r_i_glide_metal>  (129) 
-0

>  <r_i_glide_rewards>  (129) 
-1.25188

>  <r_i_glide_evdw>  (129) 
-23.6846

>  <r_i_glide_ecoul>  (129) 
-7.53815

>  <r_i_glide_erotb>  (129) 
0

>  <r_i_glide_esite>  (129) 
-0.0237454

>  <r_i_glide_emodel>  (129) 
-39.2859

>  <r_i_glide_energy>  (129) 
-31.2227

>  <r_i_glide_einternal>  (129) 
2.01394

>  <r_i_glide_intrahb_reward>  (129) 
-0

>  <i_i_glide_confnum>  (129) 
2

>  <i_i_glide_posenum>  (129) 
26

>  <r_i_glide_eff_state_penalty>  (129) 
0

>  <ligand_id>  (129) 
34

>  <original_smiles>  (129) 
CC=C1C2=COC(C)C=C2C(O)C2(O)C(=O)C3C(CC12)C3(C)C

>  <smiles>  (129) 
[H]OC1([H])C2=C([H])C([H])(C([H])([H])[H])OC([H])=C2C(=C([H])C([H])([H])[H])C2([H])C([H])([H])C3([H])C([H])(C(=O)C12O[H])C3(C([H])([H])[H])C([H])([H])[H]

$$$$
34:0:2
     RDKit          3D

 47 50  0  0  1  0  0  0  0  0999 V2000
    7.7980   -6.5852    1.2534 C   0  0  0  0  0  0  0  0  0  0  0  0
    7.0587   -5.4539    0.5610 C   0  0  0  0  0  0  0  0  0  0  0  0
    5.7243   -5.2122    0.4185 C   0  0  0  0  0  0  0  0  0  0  0  0
    5.2940   -4.0039   -0.3193 C   0  0  0  0  0  0  0  0  0  0  0  0
    6.0913   -3.3753   -1.2186 C   0  0  0  0  0  0  0  0  0  0  0  0
    5.7754   -2.2305   -1.9119 O   0  0  0  0  0  0  0  0  0  0  0  0
    4.5770   -1.5229   -1.5662 C   0  0  1  0  0  0  0  0  0  0  0  0
    3.9044   -1.0788   -2.8719 C   0  0  0  0  0  0  0  0  0  0  0  0
    3.6179   -2.3077   -0.7004 C   0  0  0  0  0  0  0  0  0  0  0  0
    3.9347   -3.4885   -0.1343 C   0  0  0  0  0  0  0  0  0  0  0  0
    2.8667   -4.2682    0.6234 C   0  0  1  0  0  0  0  0  0  0  0  0
    2.0711   -4.9738   -0.3170 O   0  0  0  0  0  0  0  0  0  0  0  0
    3.4825   -5.2333    1.6702 C   0  0  1  0  0  0  0  0  0  0  0  0
    4.1186   -4.4355    2.6632 O   0  0  0  0  0  0  0  0  0  0  0  0
    2.4340   -6.1014    2.4279 C   0  0  0  0  0  0  0  0  0  0  0  0
    1.2132   -5.9299    2.3641 O   0  0  0  0  0  0  0  0  0  0  0  0
    3.1058   -7.1479    3.2606 C   0  0  2  0  0  0  0  0  0  0  0  0
    3.6441   -8.0533    2.1533 C   0  0  1  0  0  0  0  0  0  0  0  0
    4.9547   -7.4174    1.7550 C   0  0  0  0  0  0  0  0  0  0  0  0
    4.5930   -6.1122    0.9704 C   0  0  2  0  0  0  0  0  0  0  0  0
    3.0209   -8.6499    3.3809 C   0  0  0  0  0  0  0  0  0  0  0  0
    3.9398   -9.3796    4.3426 C   0  0  0  0  0  0  0  0  0  0  0  0
    1.6549   -9.3061    3.3174 C   0  0  0  0  0  0  0  0  0  0  0  0
    8.8701   -6.4250    1.1498 H   0  0  0  0  0  0  0  0  0  0  0  0
    7.5884   -7.5541    0.8025 H   0  0  0  0  0  0  0  0  0  0  0  0
    7.5875   -6.6176    2.3204 H   0  0  0  0  0  0  0  0  0  0  0  0
    7.7607   -4.7397    0.1620 H   0  0  0  0  0  0  0  0  0  0  0  0
    7.0877   -3.6892   -1.4823 H   0  0  0  0  0  0  0  0  0  0  0  0
    4.8659   -0.6364   -1.0021 H   0  0  0  0  0  0  0  0  0  0  0  0
    3.0372   -0.4447   -2.6804 H   0  0  0  0  0  0  0  0  0  0  0  0
    3.5658   -1.9359   -3.4535 H   0  0  0  0  0  0  0  0  0  0  0  0
    4.5948   -0.5058   -3.4887 H   0  0  0  0  0  0  0  0  0  0  0  0
    2.6206   -1.9040   -0.5839 H   0  0  0  0  0  0  0  0  0  0  0  0
    2.2253   -3.5539    1.1458 H   0  0  0  0  0  0  0  0  0  0  0  0
    2.6194   -5.3139   -1.0199 H   0  0  0  0  0  0  0  0  0  0  0  0
    4.7699   -3.8930    2.2443 H   0  0  0  0  0  0  0  0  0  0  0  0
    3.8119   -6.7256    3.9737 H   0  0  0  0  0  0  0  0  0  0  0  0
    3.0359   -8.2835    1.2762 H   0  0  0  0  0  0  0  0  0  0  0  0
    5.5514   -7.2135    2.6489 H   0  0  0  0  0  0  0  0  0  0  0  0
    5.4955   -8.1259    1.1280 H   0  0  0  0  0  0  0  0  0  0  0  0
    4.1400   -6.4895    0.0523 H   0  0  0  0  0  0  0  0  0  0  0  0
    4.0863  -10.4126    4.0223 H   0  0  0  0  0  0  0  0  0  0  0  0
    3.5263   -9.3745    5.3544 H   0  0  0  0  0  0  0  0  0  0  0  0
    4.9154   -8.8931    4.3686 H   0  0  0  0  0  0  0  0  0  0  0  0
    1.7378  -10.3427    2.9879 H   0  0  0  0  0  0  0  0  0  0  0  0
    1.0120   -8.7769    2.6175 H   0  0  0  0  0  0  0  0  0  0  0  0
    1.1808   -9.2842    4.2973 H   0  0  0  0  0  0  0  0  0  0  0  0
  1  2  1  0
  1 24  1  0
  1 25  1  0
  1 26  1  0
  2  3  2  3
  2 27  1  0
  3 20  1  0
  3  4  1  0
  4 10  1  0
  4  5  2  0
  5  6  1  0
  5 28  1  0
  6  7  1  0
  7  8  1  0
  7  9  1  0
  7 29  1  1
  8 30  1  0
  8 31  1  0
  8 32  1  0
  9 10  2  0
  9 33  1  0
 10 11  1  0
 11 12  1  0
 11 13  1  0
 11 34  1  1
 12 35  1  0
 13 20  1  0
 13 14  1  1
 13 15  1  0
 14 36  1  0
 15 16  2  0
 15 17  1  0
 17 21  1  0
 17 18  1  0
 17 37  1  1
 18 19  1  0
 18 21  1  0
 18 38  1  6
 19 20  1  0
 19 39  1  0
 19 40  1  0
 20 41  1  6
 21 22  1  0
 21 23  1  0
 22 42  1  0
 22 43  1  0
 22 44  1  0
 23 45  1  0
 23 46  1  0
 23 47  1  0
M  END
>  <i_m_ct_stereo_status>  (130) 
1

>  <s_m_source_file>  (130) 
/var/tmp/pbs.5076255.sched01/tmpco4mv84g/486h_uxm9x.sdf

>  <i_m_source_file_index>  (130) 
12

>  <i_lp_mmshare_version>  (130) 
48012

>  <i_f3d_flags>  (130) 
0

>  <s_epik_input>  (130) 
Tz1DMVtDQEBIXShDMihbQ0gzXSlbQ0gzXSlbQ0BIXTJbQ0gyXVtDQEBIXShbQ0BdMTNbT0hdKUMoPVtDSF1cW0NIM10pL0M9NEMoW0NASF0zW09IXSk9W0NIXVtDQEhdKFtDSDNdKU9bQ0hdNA==

>  <s_epik_cmdline>  (130) 
J2VwaWtfcHl0aG9uJywgJy1waHQnLCAnMi4wJywgJy1waCcsICc3LjAnLCAnLXRuJywgJzgnLCAnLW1hJywgJzIwMCcsICctaW1hZScsICc8aW5maWxlLm1hZT4nLCAnLW9tYWUnLCAnPG91dGZpbGUubWFlPic=

>  <r_epik_Ionization_Penalty>  (130) 
0.000309151

>  <r_epik_Ionization_Penalty_Charging>  (130) 
0

>  <r_epik_Ionization_Penalty_Neutral>  (130) 
0.000309151

>  <r_epik_State_Penalty>  (130) 
0.000186075

>  <r_epik_Charging_Adjusted_Penalty>  (130) 
0.000186075

>  <i_epik_Tot_Q>  (130) 
0

>  <i_epik_Tot_abs_Q>  (130) 
0

>  <s_lp_Force_Field>  (130) 
OPLS3e

>  <r_lp_Energy>  (130) 
70.4818

>  <b_lp_Chiralities_Consistent>  (130) 
1

>  <s_lp_Variant>  (130) 
34:0-1

>  <s_i_glide_gridfile>  (130) 
pfpi4k_grid

>  <i_i_glide_lignum>  (130) 
12

>  <i_i_glide_rotatable_bonds>  (130) 
2

>  <r_i_docking_score>  (130) 
-4.01559

>  <r_i_glide_ligand_efficiency>  (130) 
-0.174591

>  <r_i_glide_ligand_efficiency_sa>  (130) 
-0.496513

>  <r_i_glide_ligand_efficiency_ln>  (130) 
-0.971005

>  <r_i_glide_gscore>  (130) 
-4.01559

>  <r_i_glide_lipo>  (130) 
-0.585045

>  <r_i_glide_hbond>  (130) 
0

>  <r_i_glide_metal>  (130) 
-0

>  <r_i_glide_rewards>  (130) 
-1.25188

>  <r_i_glide_evdw>  (130) 
-22.8825

>  <r_i_glide_ecoul>  (130) 
-6.84119

>  <r_i_glide_erotb>  (130) 
0

>  <r_i_glide_esite>  (130) 
-0.00835866

>  <r_i_glide_emodel>  (130) 
-38.3241

>  <r_i_glide_energy>  (130) 
-29.7237

>  <r_i_glide_einternal>  (130) 
0.34925

>  <r_i_glide_intrahb_reward>  (130) 
-0

>  <i_i_glide_confnum>  (130) 
2

>  <i_i_glide_posenum>  (130) 
31

>  <r_i_glide_eff_state_penalty>  (130) 
0

>  <ligand_id>  (130) 
34

>  <original_smiles>  (130) 
CC=C1C2=COC(C)C=C2C(O)C2(O)C(=O)C3C(CC12)C3(C)C

>  <smiles>  (130) 
[H]OC1([H])C2=C([H])C([H])(C([H])([H])[H])OC([H])=C2C(=C([H])C([H])([H])[H])C2([H])C([H])([H])C3([H])C([H])(C(=O)C12O[H])C3(C([H])([H])[H])C([H])([H])[H]

$$$$
34:1:0
     RDKit          3D

 47 50  0  0  1  0  0  0  0  0999 V2000
    8.0830   -4.7801    0.5582 C   0  0  0  0  0  0  0  0  0  0  0  0
    6.7864   -5.5518    0.7333 C   0  0  0  0  0  0  0  0  0  0  0  0
    5.5214   -5.2084    0.3772 C   0  0  0  0  0  0  0  0  0  0  0  0
    5.1880   -3.9945   -0.3876 C   0  0  0  0  0  0  0  0  0  0  0  0
    6.0178   -3.4502   -1.3061 C   0  0  0  0  0  0  0  0  0  0  0  0
    5.7642   -2.3050   -2.0274 O   0  0  0  0  0  0  0  0  0  0  0  0
    4.6328   -1.5033   -1.6578 C   0  0  1  0  0  0  0  0  0  0  0  0
    4.0057   -0.9660   -2.9478 C   0  0  0  0  0  0  0  0  0  0  0  0
    3.6021   -2.2424   -0.8311 C   0  0  0  0  0  0  0  0  0  0  0  0
    3.8450   -3.4246   -0.2533 C   0  0  0  0  0  0  0  0  0  0  0  0
    2.6974   -4.1733    0.4295 C   0  0  1  0  0  0  0  0  0  0  0  0
    1.8809   -4.7528   -0.5784 O   0  0  0  0  0  0  0  0  0  0  0  0
    3.2128   -5.2277    1.4491 C   0  0  1  0  0  0  0  0  0  0  0  0
    3.8091   -4.5023    2.5159 O   0  0  0  0  0  0  0  0  0  0  0  0
    2.1134   -6.1130    2.1023 C   0  0  0  0  0  0  0  0  0  0  0  0
    0.8966   -5.9338    1.9685 O   0  0  0  0  0  0  0  0  0  0  0  0
    2.7233   -7.1911    2.9485 C   0  0  2  0  0  0  0  0  0  0  0  0
    3.3244   -8.0740    1.8542 C   0  0  1  0  0  0  0  0  0  0  0  0
    4.6587   -7.4291    1.5464 C   0  0  0  0  0  0  0  0  0  0  0  0
    4.3374   -6.1010    0.7750 C   0  0  2  0  0  0  0  0  0  0  0  0
    2.6189   -8.6882    3.0267 C   0  0  0  0  0  0  0  0  0  0  0  0
    3.4646   -9.4537    4.0220 C   0  0  0  0  0  0  0  0  0  0  0  0
    1.2526   -9.3298    2.8670 C   0  0  0  0  0  0  0  0  0  0  0  0
    8.7171   -4.9485    1.4292 H   0  0  0  0  0  0  0  0  0  0  0  0
    7.9249   -3.7041    0.4895 H   0  0  0  0  0  0  0  0  0  0  0  0
    8.6234   -5.1337   -0.3205 H   0  0  0  0  0  0  0  0  0  0  0  0
    6.9492   -6.4862    1.2442 H   0  0  0  0  0  0  0  0  0  0  0  0
    6.9891   -3.8441   -1.5608 H   0  0  0  0  0  0  0  0  0  0  0  0
    4.9983   -0.6683   -1.0606 H   0  0  0  0  0  0  0  0  0  0  0  0
    3.2004   -0.2657   -2.7310 H   0  0  0  0  0  0  0  0  0  0  0  0
    3.6058   -1.7691   -3.5684 H   0  0  0  0  0  0  0  0  0  0  0  0
    4.7406   -0.4310   -3.5411 H   0  0  0  0  0  0  0  0  0  0  0  0
    2.6178   -1.8049   -0.7740 H   0  0  0  0  0  0  0  0  0  0  0  0
    2.0880   -3.4404    0.9615 H   0  0  0  0  0  0  0  0  0  0  0  0
    2.4333   -5.1584   -1.2451 H   0  0  0  0  0  0  0  0  0  0  0  0
    4.5000   -3.9627    2.1617 H   0  0  0  0  0  0  0  0  0  0  0  0
    3.3876   -6.7960    3.7136 H   0  0  0  0  0  0  0  0  0  0  0  0
    2.7703   -8.2776    0.9420 H   0  0  0  0  0  0  0  0  0  0  0  0
    5.2163   -7.2457    2.4702 H   0  0  0  0  0  0  0  0  0  0  0  0
    5.2433   -8.1120    0.9290 H   0  0  0  0  0  0  0  0  0  0  0  0
    3.9364   -6.4311   -0.1831 H   0  0  0  0  0  0  0  0  0  0  0  0
    3.6186  -10.4806    3.6832 H   0  0  0  0  0  0  0  0  0  0  0  0
    2.9918   -9.4642    5.0062 H   0  0  0  0  0  0  0  0  0  0  0  0
    4.4411   -8.9788    4.1141 H   0  0  0  0  0  0  0  0  0  0  0  0
    1.3464  -10.3597    2.5174 H   0  0  0  0  0  0  0  0  0  0  0  0
    0.6572   -8.7781    2.1417 H   0  0  0  0  0  0  0  0  0  0  0  0
    0.7200   -9.3268    3.8188 H   0  0  0  0  0  0  0  0  0  0  0  0
  1  2  1  0
  1 24  1  0
  1 25  1  0
  1 26  1  0
  2  3  2  3
  2 27  1  0
  3 20  1  0
  3  4  1  0
  4 10  1  0
  4  5  2  0
  5  6  1  0
  5 28  1  0
  6  7  1  0
  7  8  1  0
  7  9  1  0
  7 29  1  1
  8 30  1  0
  8 31  1  0
  8 32  1  0
  9 10  2  0
  9 33  1  0
 10 11  1  0
 11 12  1  0
 11 13  1  0
 11 34  1  1
 12 35  1  0
 13 20  1  0
 13 14  1  1
 13 15  1  0
 14 36  1  0
 15 16  2  0
 15 17  1  0
 17 21  1  0
 17 18  1  0
 17 37  1  1
 18 19  1  0
 18 21  1  0
 18 38  1  6
 19 20  1  0
 19 39  1  0
 19 40  1  0
 20 41  1  6
 21 22  1  0
 21 23  1  0
 22 42  1  0
 22 43  1  0
 22 44  1  0
 23 45  1  0
 23 46  1  0
 23 47  1  0
M  END
>  <i_m_ct_stereo_status>  (131) 
1

>  <s_m_source_file>  (131) 
/var/tmp/pbs.5076255.sched01/tmpco4mv84g/486h_uxm9x.sdf

>  <i_m_source_file_index>  (131) 
13

>  <i_lp_mmshare_version>  (131) 
48012

>  <i_f3d_flags>  (131) 
0

>  <s_epik_input>  (131) 
Tz1DMVtDQEBIXShDMihbQ0gzXSlbQ0gzXSlbQ0BIXTJbQ0gyXVtDQEBIXShbQ0BdMTNbT0hdKUMoPVtDSF1cW0NIM10pL0M9NEMoW0NASF0zW09IXSk9W0NIXVtDQEhdKFtDSDNdKU9bQ0hdNA==

>  <s_epik_cmdline>  (131) 
J2VwaWtfcHl0aG9uJywgJy1waHQnLCAnMi4wJywgJy1waCcsICc3LjAnLCAnLXRuJywgJzgnLCAnLW1hJywgJzIwMCcsICctaW1hZScsICc8aW5maWxlLm1hZT4nLCAnLW9tYWUnLCAnPG91dGZpbGUubWFlPic=

>  <r_epik_Ionization_Penalty>  (131) 
0.000309151

>  <r_epik_Ionization_Penalty_Charging>  (131) 
0

>  <r_epik_Ionization_Penalty_Neutral>  (131) 
0.000309151

>  <r_epik_State_Penalty>  (131) 
0.000186075

>  <r_epik_Charging_Adjusted_Penalty>  (131) 
0.000186075

>  <i_epik_Tot_Q>  (131) 
0

>  <i_epik_Tot_abs_Q>  (131) 
0

>  <s_lp_Force_Field>  (131) 
OPLS3e

>  <r_lp_Energy>  (131) 
68.6102

>  <b_lp_Chiralities_Consistent>  (131) 
1

>  <s_lp_Variant>  (131) 
34:0-2

>  <s_i_glide_gridfile>  (131) 
pfpi4k_grid

>  <i_i_glide_lignum>  (131) 
13

>  <i_i_glide_rotatable_bonds>  (131) 
2

>  <r_i_docking_score>  (131) 
-4.55986

>  <r_i_glide_ligand_efficiency>  (131) 
-0.198255

>  <r_i_glide_ligand_efficiency_sa>  (131) 
-0.56381

>  <r_i_glide_ligand_efficiency_ln>  (131) 
-1.10262

>  <r_i_glide_gscore>  (131) 
-4.55986

>  <r_i_glide_lipo>  (131) 
-0.844378

>  <r_i_glide_hbond>  (131) 
-0.12163

>  <r_i_glide_metal>  (131) 
-0

>  <r_i_glide_rewards>  (131) 
-1.25188

>  <r_i_glide_evdw>  (131) 
-21.7913

>  <r_i_glide_ecoul>  (131) 
-8.23433

>  <r_i_glide_erotb>  (131) 
0

>  <r_i_glide_esite>  (131) 
-0.0172646

>  <r_i_glide_emodel>  (131) 
-39.6017

>  <r_i_glide_energy>  (131) 
-30.0256

>  <r_i_glide_einternal>  (131) 
0.303992

>  <r_i_glide_intrahb_reward>  (131) 
-0

>  <i_i_glide_confnum>  (131) 
1

>  <i_i_glide_posenum>  (131) 
1

>  <r_i_glide_eff_state_penalty>  (131) 
0

>  <ligand_id>  (131) 
34

>  <original_smiles>  (131) 
CC=C1C2=COC(C)C=C2C(O)C2(O)C(=O)C3C(CC12)C3(C)C

>  <smiles>  (131) 
[H]OC1([H])C2=C([H])C([H])(C([H])([H])[H])OC([H])=C2C(=C([H])C([H])([H])[H])C2([H])C([H])([H])C3([H])C([H])(C(=O)C12O[H])C3(C([H])([H])[H])C([H])([H])[H]

$$$$
34:1:1
     RDKit          3D

 47 50  0  0  1  0  0  0  0  0999 V2000
    8.2500   -3.7819   -0.2955 C   0  0  0  0  0  0  0  0  0  0  0  0
    7.0952   -4.6401    0.1969 C   0  0  0  0  0  0  0  0  0  0  0  0
    5.7699   -4.5400   -0.0792 C   0  0  0  0  0  0  0  0  0  0  0  0
    5.2089   -3.5839   -1.0460 C   0  0  0  0  0  0  0  0  0  0  0  0
    5.8705   -3.2015   -2.1652 C   0  0  0  0  0  0  0  0  0  0  0  0
    5.3918   -2.3174   -3.0959 O   0  0  0  0  0  0  0  0  0  0  0  0
    4.2183   -1.5588   -2.7815 C   0  0  1  0  0  0  0  0  0  0  0  0
    3.4265   -1.3879   -4.0762 C   0  0  0  0  0  0  0  0  0  0  0  0
    3.3675   -2.1922   -1.7185 C   0  0  0  0  0  0  0  0  0  0  0  0
    3.8179   -3.1550   -0.8953 C   0  0  0  0  0  0  0  0  0  0  0  0
    2.8393   -3.8367    0.0571 C   0  0  1  0  0  0  0  0  0  0  0  0
    1.9936   -4.6560   -0.7143 O   0  0  0  0  0  0  0  0  0  0  0  0
    3.5687   -4.5890    1.2100 C   0  0  1  0  0  0  0  0  0  0  0  0
    4.1473   -3.5736    2.0213 O   0  0  0  0  0  0  0  0  0  0  0  0
    2.6644   -5.4289    2.1597 C   0  0  0  0  0  0  0  0  0  0  0  0
    1.4286   -5.4565    2.1128 O   0  0  0  0  0  0  0  0  0  0  0  0
    3.4943   -6.1948    3.1483 C   0  0  2  0  0  0  0  0  0  0  0  0
    4.1221   -7.2286    2.2131 C   0  0  1  0  0  0  0  0  0  0  0  0
    5.3209   -6.5196    1.6269 C   0  0  0  0  0  0  0  0  0  0  0  0
    4.7527   -5.4542    0.6249 C   0  0  2  0  0  0  0  0  0  0  0  0
    3.6081   -7.6349    3.5636 C   0  0  0  0  0  0  0  0  0  0  0  0
    4.6324   -8.0418    4.6014 C   0  0  0  0  0  0  0  0  0  0  0  0
    2.3409   -8.4531    3.7006 C   0  0  0  0  0  0  0  0  0  0  0  0
    8.9694   -3.6685    0.5127 H   0  0  0  0  0  0  0  0  0  0  0  0
    7.9339   -2.7799   -0.5785 H   0  0  0  0  0  0  0  0  0  0  0  0
    8.7570   -4.2575   -1.1361 H   0  0  0  0  0  0  0  0  0  0  0  0
    7.4251   -5.4111    0.8758 H   0  0  0  0  0  0  0  0  0  0  0  0
    6.8621   -3.5186   -2.4433 H   0  0  0  0  0  0  0  0  0  0  0  0
    4.5070   -0.5749   -2.4120 H   0  0  0  0  0  0  0  0  0  0  0  0
    2.5615   -0.7439   -3.9328 H   0  0  0  0  0  0  0  0  0  0  0  0
    3.0730   -2.3493   -4.4506 H   0  0  0  0  0  0  0  0  0  0  0  0
    4.0418   -0.9268   -4.8450 H   0  0  0  0  0  0  0  0  0  0  0  0
    2.3365   -1.8912   -1.6858 H   0  0  0  0  0  0  0  0  0  0  0  0
    2.1878   -3.0747    0.4895 H   0  0  0  0  0  0  0  0  0  0  0  0
    2.5300   -5.1755   -1.3245 H   0  0  0  0  0  0  0  0  0  0  0  0
    4.6787   -3.0225    1.4677 H   0  0  0  0  0  0  0  0  0  0  0  0
    4.1580   -5.5546    3.7290 H   0  0  0  0  0  0  0  0  0  0  0  0
    3.5266   -7.6950    1.4281 H   0  0  0  0  0  0  0  0  0  0  0  0
    5.9269   -6.0562    2.4177 H   0  0  0  0  0  0  0  0  0  0  0  0
    5.9422   -7.2494    1.1090 H   0  0  0  0  0  0  0  0  0  0  0  0
    4.3263   -6.0373   -0.1951 H   0  0  0  0  0  0  0  0  0  0  0  0
    4.8972   -9.0952    4.4790 H   0  0  0  0  0  0  0  0  0  0  0  0
    4.2425   -7.8791    5.6103 H   0  0  0  0  0  0  0  0  0  0  0  0
    5.5335   -7.4454    4.4753 H   0  0  0  0  0  0  0  0  0  0  0  0
    2.5530   -9.5173    3.5792 H   0  0  0  0  0  0  0  0  0  0  0  0
    1.6188   -8.1569    2.9458 H   0  0  0  0  0  0  0  0  0  0  0  0
    1.8966   -8.2913    4.6822 H   0  0  0  0  0  0  0  0  0  0  0  0
  1  2  1  0
  1 24  1  0
  1 25  1  0
  1 26  1  0
  2  3  2  3
  2 27  1  0
  3 20  1  0
  3  4  1  0
  4 10  1  0
  4  5  2  0
  5  6  1  0
  5 28  1  0
  6  7  1  0
  7  8  1  0
  7  9  1  0
  7 29  1  1
  8 30  1  0
  8 31  1  0
  8 32  1  0
  9 10  2  0
  9 33  1  0
 10 11  1  0
 11 12  1  0
 11 13  1  0
 11 34  1  1
 12 35  1  0
 13 20  1  0
 13 14  1  1
 13 15  1  0
 14 36  1  0
 15 16  2  0
 15 17  1  0
 17 21  1  0
 17 18  1  0
 17 37  1  1
 18 19  1  0
 18 21  1  0
 18 38  1  6
 19 20  1  0
 19 39  1  0
 19 40  1  0
 20 41  1  6
 21 22  1  0
 21 23  1  0
 22 42  1  0
 22 43  1  0
 22 44  1  0
 23 45  1  0
 23 46  1  0
 23 47  1  0
M  END
>  <i_m_ct_stereo_status>  (132) 
1

>  <s_m_source_file>  (132) 
/var/tmp/pbs.5076255.sched01/tmpco4mv84g/486h_uxm9x.sdf

>  <i_m_source_file_index>  (132) 
13

>  <i_lp_mmshare_version>  (132) 
48012

>  <i_f3d_flags>  (132) 
0

>  <s_epik_input>  (132) 
Tz1DMVtDQEBIXShDMihbQ0gzXSlbQ0gzXSlbQ0BIXTJbQ0gyXVtDQEBIXShbQ0BdMTNbT0hdKUMoPVtDSF1cW0NIM10pL0M9NEMoW0NASF0zW09IXSk9W0NIXVtDQEhdKFtDSDNdKU9bQ0hdNA==

>  <s_epik_cmdline>  (132) 
J2VwaWtfcHl0aG9uJywgJy1waHQnLCAnMi4wJywgJy1waCcsICc3LjAnLCAnLXRuJywgJzgnLCAnLW1hJywgJzIwMCcsICctaW1hZScsICc8aW5maWxlLm1hZT4nLCAnLW9tYWUnLCAnPG91dGZpbGUubWFlPic=

>  <r_epik_Ionization_Penalty>  (132) 
0.000309151

>  <r_epik_Ionization_Penalty_Charging>  (132) 
0

>  <r_epik_Ionization_Penalty_Neutral>  (132) 
0.000309151

>  <r_epik_State_Penalty>  (132) 
0.000186075

>  <r_epik_Charging_Adjusted_Penalty>  (132) 
0.000186075

>  <i_epik_Tot_Q>  (132) 
0

>  <i_epik_Tot_abs_Q>  (132) 
0

>  <s_lp_Force_Field>  (132) 
OPLS3e

>  <r_lp_Energy>  (132) 
68.6102

>  <b_lp_Chiralities_Consistent>  (132) 
1

>  <s_lp_Variant>  (132) 
34:0-2

>  <s_i_glide_gridfile>  (132) 
pfpi4k_grid

>  <i_i_glide_lignum>  (132) 
13

>  <i_i_glide_rotatable_bonds>  (132) 
2

>  <r_i_docking_score>  (132) 
-4.21814

>  <r_i_glide_ligand_efficiency>  (132) 
-0.183397

>  <r_i_glide_ligand_efficiency_sa>  (132) 
-0.521557

>  <r_i_glide_ligand_efficiency_ln>  (132) 
-1.01998

>  <r_i_glide_gscore>  (132) 
-4.21814

>  <r_i_glide_lipo>  (132) 
-0.730078

>  <r_i_glide_hbond>  (132) 
-0.0485068

>  <r_i_glide_metal>  (132) 
-0

>  <r_i_glide_rewards>  (132) 
-1.25188

>  <r_i_glide_evdw>  (132) 
-20.208

>  <r_i_glide_ecoul>  (132) 
-7.78643

>  <r_i_glide_erotb>  (132) 
0

>  <r_i_glide_esite>  (132) 
-0.00931091

>  <r_i_glide_emodel>  (132) 
-36.6659

>  <r_i_glide_energy>  (132) 
-27.9944

>  <r_i_glide_einternal>  (132) 
0.379711

>  <r_i_glide_intrahb_reward>  (132) 
-0

>  <i_i_glide_confnum>  (132) 
1

>  <i_i_glide_posenum>  (132) 
16

>  <r_i_glide_eff_state_penalty>  (132) 
0

>  <ligand_id>  (132) 
34

>  <original_smiles>  (132) 
CC=C1C2=COC(C)C=C2C(O)C2(O)C(=O)C3C(CC12)C3(C)C

>  <smiles>  (132) 
[H]OC1([H])C2=C([H])C([H])(C([H])([H])[H])OC([H])=C2C(=C([H])C([H])([H])[H])C2([H])C([H])([H])C3([H])C([H])(C(=O)C12O[H])C3(C([H])([H])[H])C([H])([H])[H]

$$$$
34:1:2
     RDKit          3D

 47 50  0  0  1  0  0  0  0  0999 V2000
    7.9989   -5.2210    0.9791 C   0  0  0  0  0  0  0  0  0  0  0  0
    6.6838   -5.9774    1.0855 C   0  0  0  0  0  0  0  0  0  0  0  0
    5.4329   -5.5964    0.7166 C   0  0  0  0  0  0  0  0  0  0  0  0
    5.1314   -4.3398    0.0066 C   0  0  0  0  0  0  0  0  0  0  0  0
    5.9957   -3.7623   -0.8583 C   0  0  0  0  0  0  0  0  0  0  0  0
    5.7847   -2.5862   -1.5367 O   0  0  0  0  0  0  0  0  0  0  0  0
    4.6618   -1.7810   -1.1611 C   0  0  1  0  0  0  0  0  0  0  0  0
    4.1009   -1.1697   -2.4500 C   0  0  0  0  0  0  0  0  0  0  0  0
    3.5906   -2.5366   -0.3999 C   0  0  0  0  0  0  0  0  0  0  0  0
    3.7947   -3.7571    0.1229 C   0  0  0  0  0  0  0  0  0  0  0  0
    2.6225   -4.5241    0.7368 C   0  0  1  0  0  0  0  0  0  0  0  0
    1.8518   -5.0727   -0.3156 O   0  0  0  0  0  0  0  0  0  0  0  0
    3.0931   -5.6286    1.7241 C   0  0  1  0  0  0  0  0  0  0  0  0
    3.6712   -4.9521    2.8325 O   0  0  0  0  0  0  0  0  0  0  0  0
    1.9601   -6.5207    2.3026 C   0  0  0  0  0  0  0  0  0  0  0  0
    0.7510   -6.2970    2.1519 O   0  0  0  0  0  0  0  0  0  0  0  0
    2.5284   -7.6507    3.1093 C   0  0  2  0  0  0  0  0  0  0  0  0
    3.1499   -8.4887    1.9917 C   0  0  1  0  0  0  0  0  0  0  0  0
    4.5043   -7.8570    1.7553 C   0  0  0  0  0  0  0  0  0  0  0  0
    4.2234   -6.4871    1.0429 C   0  0  2  0  0  0  0  0  0  0  0  0
    2.4033   -9.1504    3.1133 C   0  0  0  0  0  0  0  0  0  0  0  0
    3.2127   -9.9750    4.0948 C   0  0  0  0  0  0  0  0  0  0  0  0
    1.0333   -9.7604    2.8867 C   0  0  0  0  0  0  0  0  0  0  0  0
    8.6076   -5.4421    1.8563 H   0  0  0  0  0  0  0  0  0  0  0  0
    7.8578   -4.1407    0.9643 H   0  0  0  0  0  0  0  0  0  0  0  0
    8.5553   -5.5394    0.0961 H   0  0  0  0  0  0  0  0  0  0  0  0
    6.8214   -6.9374    1.5555 H   0  0  0  0  0  0  0  0  0  0  0  0
    6.9732   -4.1408   -1.0868 H   0  0  0  0  0  0  0  0  0  0  0  0
    5.0259   -0.9838   -0.5141 H   0  0  0  0  0  0  0  0  0  0  0  0
    3.2918   -0.4725   -2.2423 H   0  0  0  0  0  0  0  0  0  0  0  0
    3.7023   -1.9364   -3.1152 H   0  0  0  0  0  0  0  0  0  0  0  0
    4.8729   -0.6214   -2.9878 H   0  0  0  0  0  0  0  0  0  0  0  0
    2.6162   -2.0727   -0.3413 H   0  0  0  0  0  0  0  0  0  0  0  0
    2.0045   -3.8135    1.2879 H   0  0  0  0  0  0  0  0  0  0  0  0
    2.4397   -5.3977   -1.0006 H   0  0  0  0  0  0  0  0  0  0  0  0
    4.0746   -5.5898    3.4019 H   0  0  0  0  0  0  0  0  0  0  0  0
    3.1734   -7.3091    3.9174 H   0  0  0  0  0  0  0  0  0  0  0  0
    2.6185   -8.6410    1.0529 H   0  0  0  0  0  0  0  0  0  0  0  0
    5.0426   -7.7297    2.7010 H   0  0  0  0  0  0  0  0  0  0  0  0
    5.0971   -8.5178    1.1195 H   0  0  0  0  0  0  0  0  0  0  0  0
    3.8489   -6.7649    0.0570 H   0  0  0  0  0  0  0  0  0  0  0  0
    3.3614  -10.9878    3.7127 H   0  0  0  0  0  0  0  0  0  0  0  0
    2.7134  -10.0260    5.0653 H   0  0  0  0  0  0  0  0  0  0  0  0
    4.1954   -9.5222    4.2377 H   0  0  0  0  0  0  0  0  0  0  0  0
    1.1223  -10.7733    2.4916 H   0  0  0  0  0  0  0  0  0  0  0  0
    0.4681   -9.1630    2.1737 H   0  0  0  0  0  0  0  0  0  0  0  0
    0.4764   -9.7933    3.8233 H   0  0  0  0  0  0  0  0  0  0  0  0
  1  2  1  0
  1 24  1  0
  1 25  1  0
  1 26  1  0
  2  3  2  3
  2 27  1  0
  3 20  1  0
  3  4  1  0
  4 10  1  0
  4  5  2  0
  5  6  1  0
  5 28  1  0
  6  7  1  0
  7  8  1  0
  7  9  1  0
  7 29  1  1
  8 30  1  0
  8 31  1  0
  8 32  1  0
  9 10  2  0
  9 33  1  0
 10 11  1  0
 11 12  1  0
 11 13  1  0
 11 34  1  1
 12 35  1  0
 13 20  1  0
 13 14  1  1
 13 15  1  0
 14 36  1  0
 15 16  2  0
 15 17  1  0
 17 21  1  0
 17 18  1  0
 17 37  1  1
 18 19  1  0
 18 21  1  0
 18 38  1  6
 19 20  1  0
 19 39  1  0
 19 40  1  0
 20 41  1  6
 21 22  1  0
 21 23  1  0
 22 42  1  0
 22 43  1  0
 22 44  1  0
 23 45  1  0
 23 46  1  0
 23 47  1  0
M  END
>  <i_m_ct_stereo_status>  (133) 
1

>  <s_m_source_file>  (133) 
/var/tmp/pbs.5076255.sched01/tmpco4mv84g/486h_uxm9x.sdf

>  <i_m_source_file_index>  (133) 
13

>  <i_lp_mmshare_version>  (133) 
48012

>  <i_f3d_flags>  (133) 
0

>  <s_epik_input>  (133) 
Tz1DMVtDQEBIXShDMihbQ0gzXSlbQ0gzXSlbQ0BIXTJbQ0gyXVtDQEBIXShbQ0BdMTNbT0hdKUMoPVtDSF1cW0NIM10pL0M9NEMoW0NASF0zW09IXSk9W0NIXVtDQEhdKFtDSDNdKU9bQ0hdNA==

>  <s_epik_cmdline>  (133) 
J2VwaWtfcHl0aG9uJywgJy1waHQnLCAnMi4wJywgJy1waCcsICc3LjAnLCAnLXRuJywgJzgnLCAnLW1hJywgJzIwMCcsICctaW1hZScsICc8aW5maWxlLm1hZT4nLCAnLW9tYWUnLCAnPG91dGZpbGUubWFlPic=

>  <r_epik_Ionization_Penalty>  (133) 
0.000309151

>  <r_epik_Ionization_Penalty_Charging>  (133) 
0

>  <r_epik_Ionization_Penalty_Neutral>  (133) 
0.000309151

>  <r_epik_State_Penalty>  (133) 
0.000186075

>  <r_epik_Charging_Adjusted_Penalty>  (133) 
0.000186075

>  <i_epik_Tot_Q>  (133) 
0

>  <i_epik_Tot_abs_Q>  (133) 
0

>  <s_lp_Force_Field>  (133) 
OPLS3e

>  <r_lp_Energy>  (133) 
68.6102

>  <b_lp_Chiralities_Consistent>  (133) 
1

>  <s_lp_Variant>  (133) 
34:0-2

>  <s_i_glide_gridfile>  (133) 
pfpi4k_grid

>  <i_i_glide_lignum>  (133) 
13

>  <i_i_glide_rotatable_bonds>  (133) 
2

>  <r_i_docking_score>  (133) 
-4.19951

>  <r_i_glide_ligand_efficiency>  (133) 
-0.182587

>  <r_i_glide_ligand_efficiency_sa>  (133) 
-0.519254

>  <r_i_glide_ligand_efficiency_ln>  (133) 
-1.01548

>  <r_i_glide_gscore>  (133) 
-4.19951

>  <r_i_glide_lipo>  (133) 
-0.632852

>  <r_i_glide_hbond>  (133) 
-0.0354973

>  <r_i_glide_metal>  (133) 
-0

>  <r_i_glide_rewards>  (133) 
-1.25188

>  <r_i_glide_evdw>  (133) 
-23.484

>  <r_i_glide_ecoul>  (133) 
-7.24782

>  <r_i_glide_erotb>  (133) 
0

>  <r_i_glide_esite>  (133) 
-0.0179062

>  <r_i_glide_emodel>  (133) 
-38.6464

>  <r_i_glide_energy>  (133) 
-30.7319

>  <r_i_glide_einternal>  (133) 
2.00745

>  <r_i_glide_intrahb_reward>  (133) 
-0

>  <i_i_glide_confnum>  (133) 
1

>  <i_i_glide_posenum>  (133) 
38

>  <r_i_glide_eff_state_penalty>  (133) 
0

>  <ligand_id>  (133) 
34

>  <original_smiles>  (133) 
CC=C1C2=COC(C)C=C2C(O)C2(O)C(=O)C3C(CC12)C3(C)C

>  <smiles>  (133) 
[H]OC1([H])C2=C([H])C([H])(C([H])([H])[H])OC([H])=C2C(=C([H])C([H])([H])[H])C2([H])C([H])([H])C3([H])C([H])(C(=O)C12O[H])C3(C([H])([H])[H])C([H])([H])[H]

$$$$
35:0:0
     RDKit          3D

 14 15  0  0  1  0  0  0  0  0999 V2000
    2.6124   -5.4613    1.3109 S   0  0  0  0  0  0  0  0  0  0  0  0
    4.2699   -4.9032    1.0935 C   0  0  0  0  0  0  0  0  0  0  0  0
    5.2516   -5.0657    1.9803 N   0  0  0  0  0  0  0  0  0  0  0  0
    6.4146   -4.5136    1.4680 N   0  0  0  0  0  0  0  0  0  0  0  0
    6.1214   -4.0135    0.2722 C   0  0  0  0  0  0  0  0  0  0  0  0
    6.8906   -3.3443   -0.7179 C   0  0  0  0  0  0  0  0  0  0  0  0
    6.2915   -2.9632   -1.8950 C   0  0  0  0  0  0  0  0  0  0  0  0
    4.9153   -3.2091   -2.1205 C   0  0  0  0  0  0  0  0  0  0  0  0
    4.1858   -2.7153   -3.6015 Cl  0  0  0  0  0  0  0  0  0  0  0  0
    4.1652   -3.8506   -1.1658 C   0  0  0  0  0  0  0  0  0  0  0  0
    4.7607   -4.2476   -0.0020 N   0  0  0  0  0  0  0  0  0  0  0  0
    7.9434   -3.1652   -0.5340 H   0  0  0  0  0  0  0  0  0  0  0  0
    6.8884   -2.4859   -2.6641 H   0  0  0  0  0  0  0  0  0  0  0  0
    3.1115   -4.0835   -1.2985 H   0  0  0  0  0  0  0  0  0  0  0  0
  1  2  1  0
  2 11  1  0
  2  3  2  0
  3  4  1  0
  4  5  2  0
  5 11  1  0
  5  6  1  0
  6  7  2  0
  6 12  1  0
  7  8  1  0
  7 13  1  0
  8  9  1  0
  8 10  2  0
 10 11  1  0
 10 14  1  0
M  CHG  1   1  -1
M  END
>  <i_m_ct_stereo_status>  (134) 
1

>  <s_m_source_file>  (134) 
/var/tmp/pbs.5076255.sched01/tmpco4mv84g/486h_uxm9x.sdf

>  <i_m_source_file_index>  (134) 
14

>  <i_lp_mmshare_version>  (134) 
48012

>  <i_f3d_flags>  (134) 
0

>  <s_epik_input>  (134) 
bjFbbkhdYyg9UyluKGMxMilbY0hdYyhDbClbY0hdW2NIXTI=

>  <s_epik_cmdline>  (134) 
J2VwaWtfcHl0aG9uJywgJy1waHQnLCAnMi4wJywgJy1waCcsICc3LjAnLCAnLXRuJywgJzgnLCAnLW1hJywgJzIwMCcsICctaW1hZScsICc8aW5maWxlLm1hZT4nLCAnLW9tYWUnLCAnPG91dGZpbGUubWFlPic=

>  <r_epik_Ionization_Penalty>  (134) 
0.00815163

>  <r_epik_Ionization_Penalty_Charging>  (134) 
0.000492603

>  <r_epik_Ionization_Penalty_Neutral>  (134) 
0.00765903

>  <r_epik_State_Penalty>  (134) 
0.00562783

>  <r_epik_Charging_Adjusted_Penalty>  (134) 
0.00612044

>  <i_epik_Tot_Q>  (134) 
-1

>  <i_epik_Tot_abs_Q>  (134) 
1

>  <s_lp_Force_Field>  (134) 
OPLS3e

>  <r_lp_Energy>  (134) 
12.925

>  <b_lp_Chiralities_Consistent>  (134) 
1

>  <s_lp_Variant>  (134) 
35:0-1

>  <s_i_glide_gridfile>  (134) 
pfpi4k_grid

>  <i_i_glide_lignum>  (134) 
14

>  <i_i_glide_rotatable_bonds>  (134) 
0

>  <r_i_docking_score>  (134) 
-3.60945

>  <r_i_glide_ligand_efficiency>  (134) 
-0.328132

>  <r_i_glide_ligand_efficiency_sa>  (134) 
-0.72976

>  <r_i_glide_ligand_efficiency_ln>  (134) 
-1.06226

>  <r_i_glide_gscore>  (134) 
-3.60945

>  <r_i_glide_lipo>  (134) 
-0.497841

>  <r_i_glide_hbond>  (134) 
0

>  <r_i_glide_metal>  (134) 
-0

>  <r_i_glide_rewards>  (134) 
-2.35002

>  <r_i_glide_evdw>  (134) 
-14.6606

>  <r_i_glide_ecoul>  (134) 
-0.190395

>  <r_i_glide_erotb>  (134) 
0

>  <r_i_glide_esite>  (134) 
0

>  <r_i_glide_emodel>  (134) 
-21.0868

>  <r_i_glide_energy>  (134) 
-14.851

>  <r_i_glide_einternal>  (134) 
0

>  <r_i_glide_intrahb_reward>  (134) 
-0

>  <i_i_glide_confnum>  (134) 
1

>  <i_i_glide_posenum>  (134) 
24

>  <r_i_glide_eff_state_penalty>  (134) 
0

>  <ligand_id>  (134) 
35

>  <original_smiles>  (134) 
S=c1[nH]nc2ccc(Cl)cn12

>  <smiles>  (134) 
[H]c1c(Cl)c([H])n2c([S-])nnc2c1[H]

$$$$
35:0:1
     RDKit          3D

 14 15  0  0  1  0  0  0  0  0999 V2000
    2.4168   -5.6766    1.0852 S   0  0  0  0  0  0  0  0  0  0  0  0
    2.9904   -4.0097    1.2809 C   0  0  0  0  0  0  0  0  0  0  0  0
    3.1219   -3.3884    2.4535 N   0  0  0  0  0  0  0  0  0  0  0  0
    3.6057   -2.1092    2.2312 N   0  0  0  0  0  0  0  0  0  0  0  0
    3.7622   -1.9668    0.9160 C   0  0  0  0  0  0  0  0  0  0  0  0
    4.2272   -0.9000    0.1028 C   0  0  0  0  0  0  0  0  0  0  0  0
    4.2740   -1.0581   -1.2615 C   0  0  0  0  0  0  0  0  0  0  0  0
    3.8658   -2.2724   -1.8600 C   0  0  0  0  0  0  0  0  0  0  0  0
    3.9292   -2.4470   -3.5739 Cl  0  0  0  0  0  0  0  0  0  0  0  0
    3.4197   -3.3116   -1.0811 C   0  0  0  0  0  0  0  0  0  0  0  0
    3.3736   -3.1586    0.2777 N   0  0  0  0  0  0  0  0  0  0  0  0
    4.5230    0.0334    0.5677 H   0  0  0  0  0  0  0  0  0  0  0  0
    4.6114   -0.2334   -1.8834 H   0  0  0  0  0  0  0  0  0  0  0  0
    3.0903   -4.2559   -1.4966 H   0  0  0  0  0  0  0  0  0  0  0  0
  1  2  1  0
  2 11  1  0
  2  3  2  0
  3  4  1  0
  4  5  2  0
  5 11  1  0
  5  6  1  0
  6  7  2  0
  6 12  1  0
  7  8  1  0
  7 13  1  0
  8  9  1  0
  8 10  2  0
 10 11  1  0
 10 14  1  0
M  CHG  1   1  -1
M  END
>  <i_m_ct_stereo_status>  (135) 
1

>  <s_m_source_file>  (135) 
/var/tmp/pbs.5076255.sched01/tmpco4mv84g/486h_uxm9x.sdf

>  <i_m_source_file_index>  (135) 
14

>  <i_lp_mmshare_version>  (135) 
48012

>  <i_f3d_flags>  (135) 
0

>  <s_epik_input>  (135) 
bjFbbkhdYyg9UyluKGMxMilbY0hdYyhDbClbY0hdW2NIXTI=

>  <s_epik_cmdline>  (135) 
J2VwaWtfcHl0aG9uJywgJy1waHQnLCAnMi4wJywgJy1waCcsICc3LjAnLCAnLXRuJywgJzgnLCAnLW1hJywgJzIwMCcsICctaW1hZScsICc8aW5maWxlLm1hZT4nLCAnLW9tYWUnLCAnPG91dGZpbGUubWFlPic=

>  <r_epik_Ionization_Penalty>  (135) 
0.00815163

>  <r_epik_Ionization_Penalty_Charging>  (135) 
0.000492603

>  <r_epik_Ionization_Penalty_Neutral>  (135) 
0.00765903

>  <r_epik_State_Penalty>  (135) 
0.00562783

>  <r_epik_Charging_Adjusted_Penalty>  (135) 
0.00612044

>  <i_epik_Tot_Q>  (135) 
-1

>  <i_epik_Tot_abs_Q>  (135) 
1

>  <s_lp_Force_Field>  (135) 
OPLS3e

>  <r_lp_Energy>  (135) 
12.925

>  <b_lp_Chiralities_Consistent>  (135) 
1

>  <s_lp_Variant>  (135) 
35:0-1

>  <s_i_glide_gridfile>  (135) 
pfpi4k_grid

>  <i_i_glide_lignum>  (135) 
14

>  <i_i_glide_rotatable_bonds>  (135) 
0

>  <r_i_docking_score>  (135) 
-3.37287

>  <r_i_glide_ligand_efficiency>  (135) 
-0.306625

>  <r_i_glide_ligand_efficiency_sa>  (135) 
-0.681928

>  <r_i_glide_ligand_efficiency_ln>  (135) 
-0.992636

>  <r_i_glide_gscore>  (135) 
-3.37287

>  <r_i_glide_lipo>  (135) 
-0.272232

>  <r_i_glide_hbond>  (135) 
0

>  <r_i_glide_metal>  (135) 
-0

>  <r_i_glide_rewards>  (135) 
-2.15027

>  <r_i_glide_evdw>  (135) 
-14.7242

>  <r_i_glide_ecoul>  (135) 
-1.16739

>  <r_i_glide_erotb>  (135) 
0

>  <r_i_glide_esite>  (135) 
-0.0390521

>  <r_i_glide_emodel>  (135) 
-21.7209

>  <r_i_glide_energy>  (135) 
-15.8916

>  <r_i_glide_einternal>  (135) 
0

>  <r_i_glide_intrahb_reward>  (135) 
-0

>  <i_i_glide_confnum>  (135) 
1

>  <i_i_glide_posenum>  (135) 
3

>  <r_i_glide_eff_state_penalty>  (135) 
0

>  <ligand_id>  (135) 
35

>  <original_smiles>  (135) 
S=c1[nH]nc2ccc(Cl)cn12

>  <smiles>  (135) 
[H]c1c(Cl)c([H])n2c([S-])nnc2c1[H]

$$$$
35:0:2
     RDKit          3D

 14 15  0  0  1  0  0  0  0  0999 V2000
   -0.0081    0.6790    8.2083 S   0  0  0  0  0  0  0  0  0  0  0  0
   -0.6693    0.5258    6.5789 C   0  0  0  0  0  0  0  0  0  0  0  0
   -1.2346   -0.5736    6.0732 N   0  0  0  0  0  0  0  0  0  0  0  0
   -1.6096   -0.3248    4.7663 N   0  0  0  0  0  0  0  0  0  0  0  0
   -1.2680    0.9366    4.4840 C   0  0  0  0  0  0  0  0  0  0  0  0
   -1.3870    1.7531    3.3293 C   0  0  0  0  0  0  0  0  0  0  0  0
   -0.9380    3.0515    3.3623 C   0  0  0  0  0  0  0  0  0  0  0  0
   -0.3490    3.5831    4.5348 C   0  0  0  0  0  0  0  0  0  0  0  0
    0.2081    5.2179    4.5529 Cl  0  0  0  0  0  0  0  0  0  0  0  0
   -0.2180    2.7987    5.6575 C   0  0  0  0  0  0  0  0  0  0  0  0
   -0.6718    1.5068    5.6270 N   0  0  0  0  0  0  0  0  0  0  0  0
   -1.8396    1.3453    2.4321 H   0  0  0  0  0  0  0  0  0  0  0  0
   -1.0321    3.6723    2.4787 H   0  0  0  0  0  0  0  0  0  0  0  0
    0.2303    3.1518    6.5814 H   0  0  0  0  0  0  0  0  0  0  0  0
  1  2  1  0
  2 11  1  0
  2  3  2  0
  3  4  1  0
  4  5  2  0
  5 11  1  0
  5  6  1  0
  6  7  2  0
  6 12  1  0
  7  8  1  0
  7 13  1  0
  8  9  1  0
  8 10  2  0
 10 11  1  0
 10 14  1  0
M  CHG  1   1  -1
M  END
>  <i_m_ct_stereo_status>  (136) 
1

>  <s_m_source_file>  (136) 
/var/tmp/pbs.5076255.sched01/tmpco4mv84g/486h_uxm9x.sdf

>  <i_m_source_file_index>  (136) 
14

>  <i_lp_mmshare_version>  (136) 
48012

>  <i_f3d_flags>  (136) 
0

>  <s_epik_input>  (136) 
bjFbbkhdYyg9UyluKGMxMilbY0hdYyhDbClbY0hdW2NIXTI=

>  <s_epik_cmdline>  (136) 
J2VwaWtfcHl0aG9uJywgJy1waHQnLCAnMi4wJywgJy1waCcsICc3LjAnLCAnLXRuJywgJzgnLCAnLW1hJywgJzIwMCcsICctaW1hZScsICc8aW5maWxlLm1hZT4nLCAnLW9tYWUnLCAnPG91dGZpbGUubWFlPic=

>  <r_epik_Ionization_Penalty>  (136) 
0.00815163

>  <r_epik_Ionization_Penalty_Charging>  (136) 
0.000492603

>  <r_epik_Ionization_Penalty_Neutral>  (136) 
0.00765903

>  <r_epik_State_Penalty>  (136) 
0.00562783

>  <r_epik_Charging_Adjusted_Penalty>  (136) 
0.00612044

>  <i_epik_Tot_Q>  (136) 
-1

>  <i_epik_Tot_abs_Q>  (136) 
1

>  <s_lp_Force_Field>  (136) 
OPLS3e

>  <r_lp_Energy>  (136) 
12.925

>  <b_lp_Chiralities_Consistent>  (136) 
1

>  <s_lp_Variant>  (136) 
35:0-1

>  <s_i_glide_gridfile>  (136) 
pfpi4k_grid

>  <i_i_glide_lignum>  (136) 
14

>  <i_i_glide_rotatable_bonds>  (136) 
0

>  <r_i_docking_score>  (136) 
-3.31681

>  <r_i_glide_ligand_efficiency>  (136) 
-0.301528

>  <r_i_glide_ligand_efficiency_sa>  (136) 
-0.670592

>  <r_i_glide_ligand_efficiency_ln>  (136) 
-0.976136

>  <r_i_glide_gscore>  (136) 
-3.31681

>  <r_i_glide_lipo>  (136) 
0

>  <r_i_glide_hbond>  (136) 
0

>  <r_i_glide_metal>  (136) 
-0

>  <r_i_glide_rewards>  (136) 
-2.15027

>  <r_i_glide_evdw>  (136) 
-10.5732

>  <r_i_glide_ecoul>  (136) 
-2.84555

>  <r_i_glide_erotb>  (136) 
0

>  <r_i_glide_esite>  (136) 
-0.211041

>  <r_i_glide_emodel>  (136) 
-19.1482

>  <r_i_glide_energy>  (136) 
-13.4188

>  <r_i_glide_einternal>  (136) 
0

>  <r_i_glide_intrahb_reward>  (136) 
-0

>  <i_i_glide_confnum>  (136) 
2

>  <i_i_glide_posenum>  (136) 
25

>  <r_i_glide_eff_state_penalty>  (136) 
0

>  <ligand_id>  (136) 
35

>  <original_smiles>  (136) 
S=c1[nH]nc2ccc(Cl)cn12

>  <smiles>  (136) 
[H]c1c(Cl)c([H])n2c([S-])nnc2c1[H]

$$$$
36:0:0
     RDKit          3D

 30 32  0  0  1  0  0  0  0  0999 V2000
    6.0301   -1.8086   -1.3905 O   0  0  0  0  0  0  0  0  0  0  0  0
    4.9040   -1.4898   -0.9833 C   0  0  0  0  0  0  0  0  0  0  0  0
    3.7196   -1.5528   -1.9972 C   0  0  2  0  0  0  0  0  0  0  0  0
    3.3237   -3.0023   -2.3090 C   0  0  0  0  0  0  0  0  0  0  0  0
    3.3784   -3.0829   -3.8329 C   0  0  0  0  0  0  0  0  0  0  0  0
    3.2285   -1.7438   -4.2586 O   0  0  0  0  0  0  0  0  0  0  0  0
    3.9861   -0.9360   -3.3691 C   0  0  0  0  0  0  0  0  0  0  0  0
    4.6970   -1.1421    0.3076 N   0  0  0  0  0  0  0  0  0  0  0  0
    5.7247   -1.3262    1.3515 C   0  0  0  0  0  0  0  0  0  0  0  0
    5.3062   -2.4911    2.2841 C   0  0  0  0  0  0  0  0  0  0  0  0
    3.9077   -2.3516    2.6222 N   0  0  0  0  0  0  0  0  0  0  0  0
    3.2843   -3.0683    3.5796 N   0  0  0  0  0  0  0  0  0  0  0  0
    2.0269   -2.6349    3.4753 C   0  0  0  0  0  0  0  0  0  0  0  0
    1.7950   -1.7026    2.5061 N   0  0  0  0  0  0  0  0  0  0  0  0
    3.0171   -1.5664    2.0169 C   0  0  0  0  0  0  0  0  0  0  0  0
    3.4372   -0.6612    0.9020 C   0  0  0  0  0  0  0  0  0  0  0  0
    2.8143   -1.0268   -1.7315 H   0  0  0  0  0  0  0  0  0  0  0  0
    3.9527   -3.7697   -1.8521 H   0  0  0  0  0  0  0  0  0  0  0  0
    2.3049   -3.1711   -1.9539 H   0  0  0  0  0  0  0  0  0  0  0  0
    4.3557   -3.4489   -4.1492 H   0  0  0  0  0  0  0  0  0  0  0  0
    2.6090   -3.7371   -4.2570 H   0  0  0  0  0  0  0  0  0  0  0  0
    3.7199    0.1136   -3.4292 H   0  0  0  0  0  0  0  0  0  0  0  0
    5.0173   -1.0299   -3.6780 H   0  0  0  0  0  0  0  0  0  0  0  0
    6.7285   -1.4954    0.9551 H   0  0  0  0  0  0  0  0  0  0  0  0
    5.7887   -0.4060    1.9342 H   0  0  0  0  0  0  0  0  0  0  0  0
    5.4507   -3.4541    1.7881 H   0  0  0  0  0  0  0  0  0  0  0  0
    5.8786   -2.4920    3.2124 H   0  0  0  0  0  0  0  0  0  0  0  0
    1.2405   -2.9974    4.1215 H   0  0  0  0  0  0  0  0  0  0  0  0
    3.5454    0.3591    1.2736 H   0  0  0  0  0  0  0  0  0  0  0  0
    2.6149   -0.6438    0.2015 H   0  0  0  0  0  0  0  0  0  0  0  0
  1  2  2  0
  2  3  1  0
  2  8  1  0
  3  7  1  0
  3  4  1  0
  3 17  1  1
  4  5  1  0
  4 18  1  0
  4 19  1  0
  5  6  1  0
  5 20  1  0
  5 21  1  0
  6  7  1  0
  7 22  1  0
  7 23  1  0
  8 16  1  0
  8  9  1  0
  9 10  1  0
  9 24  1  0
  9 25  1  0
 10 11  1  0
 10 26  1  0
 10 27  1  0
 11 15  1  0
 11 12  1  0
 12 13  2  0
 13 14  1  0
 13 28  1  0
 14 15  2  0
 15 16  1  0
 16 29  1  0
 16 30  1  0
M  END
>  <i_m_ct_stereo_status>  (137) 
1

>  <s_m_source_file>  (137) 
/var/tmp/pbs.5076255.sched01/tmpco4mv84g/486h_uxm9x.sdf

>  <i_m_source_file_index>  (137) 
15

>  <i_lp_mmshare_version>  (137) 
48012

>  <i_f3d_flags>  (137) 
0

>  <s_epik_input>  (137) 
W0NIMl0xT1tDSDJdW0NIMl1bQ0BIXTFDKD1PKU4oW0NIMl1bQ0gyXTIpW0NIMl1jKG4yMyluW2NIXW4z

>  <s_epik_cmdline>  (137) 
J2VwaWtfcHl0aG9uJywgJy1waHQnLCAnMi4wJywgJy1waCcsICc3LjAnLCAnLXRuJywgJzgnLCAnLW1hJywgJzIwMCcsICctaW1hZScsICc8aW5maWxlLm1hZT4nLCAnLW9tYWUnLCAnPG91dGZpbGUubWFlPic=

>  <r_lp_tautomer_probability>  (137) 
1

>  <r_epik_Ionization_Penalty>  (137) 
0.000106148

>  <r_epik_Ionization_Penalty_Charging>  (137) 
0

>  <r_epik_Ionization_Penalty_Neutral>  (137) 
0.000106148

>  <r_epik_State_Penalty>  (137) 
-0

>  <r_epik_Charging_Adjusted_Penalty>  (137) 
0

>  <i_epik_Tot_Q>  (137) 
0

>  <i_epik_Tot_abs_Q>  (137) 
0

>  <s_lp_Force_Field>  (137) 
OPLS3e

>  <r_lp_Energy>  (137) 
30.0476

>  <b_lp_Chiralities_Consistent>  (137) 
1

>  <s_lp_Variant>  (137) 
36:0-1

>  <s_i_glide_gridfile>  (137) 
pfpi4k_grid

>  <i_i_glide_lignum>  (137) 
15

>  <i_i_glide_rotatable_bonds>  (137) 
2

>  <r_i_docking_score>  (137) 
-3.71053

>  <r_i_glide_ligand_efficiency>  (137) 
-0.231908

>  <r_i_glide_ligand_efficiency_sa>  (137) 
-0.584372

>  <r_i_glide_ligand_efficiency_ln>  (137) 
-0.983551

>  <r_i_glide_gscore>  (137) 
-3.71053

>  <r_i_glide_lipo>  (137) 
-0.527565

>  <r_i_glide_hbond>  (137) 
-0.275213

>  <r_i_glide_metal>  (137) 
-0

>  <r_i_glide_rewards>  (137) 
-1.939

>  <r_i_glide_evdw>  (137) 
-24.0848

>  <r_i_glide_ecoul>  (137) 
-2.63664

>  <r_i_glide_erotb>  (137) 
0.684198

>  <r_i_glide_esite>  (137) 
-0.0532239

>  <r_i_glide_emodel>  (137) 
-33.3376

>  <r_i_glide_energy>  (137) 
-26.7214

>  <r_i_glide_einternal>  (137) 
0.814185

>  <r_i_glide_intrahb_reward>  (137) 
-0

>  <i_i_glide_confnum>  (137) 
5

>  <i_i_glide_posenum>  (137) 
18

>  <r_i_glide_eff_state_penalty>  (137) 
0

>  <ligand_id>  (137) 
36

>  <original_smiles>  (137) 
O=C(C1CCOC1)N1CCn2ncnc2C1

>  <smiles>  (137) 
[H]c1nc2n(n1)C([H])([H])C([H])([H])N(C(=O)C1([H])C([H])([H])OC([H])([H])C1([H])[H])C2([H])[H]

$$$$
36:0:1
     RDKit          3D

 30 32  0  0  1  0  0  0  0  0999 V2000
    6.0447   -1.8097   -1.3709 O   0  0  0  0  0  0  0  0  0  0  0  0
    4.9031   -2.0944   -0.9992 C   0  0  0  0  0  0  0  0  0  0  0  0
    3.6985   -1.7488   -1.9093 C   0  0  2  0  0  0  0  0  0  0  0  0
    2.9630   -2.9994   -2.4135 C   0  0  0  0  0  0  0  0  0  0  0  0
    2.9863   -2.8917   -3.9240 C   0  0  0  0  0  0  0  0  0  0  0  0
    3.1019   -1.4991   -4.1555 O   0  0  0  0  0  0  0  0  0  0  0  0
    4.0463   -1.0143   -3.2162 C   0  0  0  0  0  0  0  0  0  0  0  0
    4.6722   -2.7196    0.1825 N   0  0  0  0  0  0  0  0  0  0  0  0
    5.7732   -3.2482    1.0149 C   0  0  0  0  0  0  0  0  0  0  0  0
    5.7882   -4.7893    0.9215 C   0  0  0  0  0  0  0  0  0  0  0  0
    4.4310   -5.2774    1.0570 N   0  0  0  0  0  0  0  0  0  0  0  0
    4.1291   -6.5755    1.2627 N   0  0  0  0  0  0  0  0  0  0  0  0
    2.7951   -6.5488    1.2826 C   0  0  0  0  0  0  0  0  0  0  0  0
    2.2142   -5.3289    1.0719 N   0  0  0  0  0  0  0  0  0  0  0  0
    3.2989   -4.5747    0.9451 C   0  0  0  0  0  0  0  0  0  0  0  0
    3.3389   -3.0857    0.7186 C   0  0  0  0  0  0  0  0  0  0  0  0
    3.0162   -1.1143   -1.3412 H   0  0  0  0  0  0  0  0  0  0  0  0
    3.4307   -3.9276   -2.0908 H   0  0  0  0  0  0  0  0  0  0  0  0
    1.9267   -3.0068   -2.0715 H   0  0  0  0  0  0  0  0  0  0  0  0
    3.8539   -3.4180   -4.3275 H   0  0  0  0  0  0  0  0  0  0  0  0
    2.0913   -3.3156   -4.3844 H   0  0  0  0  0  0  0  0  0  0  0  0
    4.0049    0.0710   -3.1299 H   0  0  0  0  0  0  0  0  0  0  0  0
    5.0230   -1.2904   -3.5907 H   0  0  0  0  0  0  0  0  0  0  0  0
    6.7492   -2.8401    0.7472 H   0  0  0  0  0  0  0  0  0  0  0  0
    5.5985   -2.9456    2.0490 H   0  0  0  0  0  0  0  0  0  0  0  0
    6.1792   -5.1170   -0.0436 H   0  0  0  0  0  0  0  0  0  0  0  0
    6.4110   -5.2260    1.7042 H   0  0  0  0  0  0  0  0  0  0  0  0
    2.2146   -7.4455    1.4342 H   0  0  0  0  0  0  0  0  0  0  0  0
    3.1702   -2.5724    1.6663 H   0  0  0  0  0  0  0  0  0  0  0  0
    2.4885   -2.8176    0.0947 H   0  0  0  0  0  0  0  0  0  0  0  0
  1  2  2  0
  2  3  1  0
  2  8  1  0
  3  7  1  0
  3  4  1  0
  3 17  1  1
  4  5  1  0
  4 18  1  0
  4 19  1  0
  5  6  1  0
  5 20  1  0
  5 21  1  0
  6  7  1  0
  7 22  1  0
  7 23  1  0
  8 16  1  0
  8  9  1  0
  9 10  1  0
  9 24  1  0
  9 25  1  0
 10 11  1  0
 10 26  1  0
 10 27  1  0
 11 15  1  0
 11 12  1  0
 12 13  2  0
 13 14  1  0
 13 28  1  0
 14 15  2  0
 15 16  1  0
 16 29  1  0
 16 30  1  0
M  END
>  <i_m_ct_stereo_status>  (138) 
1

>  <s_m_source_file>  (138) 
/var/tmp/pbs.5076255.sched01/tmpco4mv84g/486h_uxm9x.sdf

>  <i_m_source_file_index>  (138) 
15

>  <i_lp_mmshare_version>  (138) 
48012

>  <i_f3d_flags>  (138) 
0

>  <s_epik_input>  (138) 
W0NIMl0xT1tDSDJdW0NIMl1bQ0BIXTFDKD1PKU4oW0NIMl1bQ0gyXTIpW0NIMl1jKG4yMyluW2NIXW4z

>  <s_epik_cmdline>  (138) 
J2VwaWtfcHl0aG9uJywgJy1waHQnLCAnMi4wJywgJy1waCcsICc3LjAnLCAnLXRuJywgJzgnLCAnLW1hJywgJzIwMCcsICctaW1hZScsICc8aW5maWxlLm1hZT4nLCAnLW9tYWUnLCAnPG91dGZpbGUubWFlPic=

>  <r_lp_tautomer_probability>  (138) 
1

>  <r_epik_Ionization_Penalty>  (138) 
0.000106148

>  <r_epik_Ionization_Penalty_Charging>  (138) 
0

>  <r_epik_Ionization_Penalty_Neutral>  (138) 
0.000106148

>  <r_epik_State_Penalty>  (138) 
-0

>  <r_epik_Charging_Adjusted_Penalty>  (138) 
0

>  <i_epik_Tot_Q>  (138) 
0

>  <i_epik_Tot_abs_Q>  (138) 
0

>  <s_lp_Force_Field>  (138) 
OPLS3e

>  <r_lp_Energy>  (138) 
30.0476

>  <b_lp_Chiralities_Consistent>  (138) 
1

>  <s_lp_Variant>  (138) 
36:0-1

>  <s_i_glide_gridfile>  (138) 
pfpi4k_grid

>  <i_i_glide_lignum>  (138) 
15

>  <i_i_glide_rotatable_bonds>  (138) 
2

>  <r_i_docking_score>  (138) 
-3.67239

>  <r_i_glide_ligand_efficiency>  (138) 
-0.229524

>  <r_i_glide_ligand_efficiency_sa>  (138) 
-0.578365

>  <r_i_glide_ligand_efficiency_ln>  (138) 
-0.973439

>  <r_i_glide_gscore>  (138) 
-3.67239

>  <r_i_glide_lipo>  (138) 
-0.395769

>  <r_i_glide_hbond>  (138) 
-0.114858

>  <r_i_glide_metal>  (138) 
-0

>  <r_i_glide_rewards>  (138) 
-1.96636

>  <r_i_glide_evdw>  (138) 
-24.4456

>  <r_i_glide_ecoul>  (138) 
-4.2004

>  <r_i_glide_erotb>  (138) 
0.684198

>  <r_i_glide_esite>  (138) 
-0.0272556

>  <r_i_glide_emodel>  (138) 
-34.4474

>  <r_i_glide_energy>  (138) 
-28.646

>  <r_i_glide_einternal>  (138) 
2.4341

>  <r_i_glide_intrahb_reward>  (138) 
-0

>  <i_i_glide_confnum>  (138) 
5

>  <i_i_glide_posenum>  (138) 
15

>  <r_i_glide_eff_state_penalty>  (138) 
0

>  <ligand_id>  (138) 
36

>  <original_smiles>  (138) 
O=C(C1CCOC1)N1CCn2ncnc2C1

>  <smiles>  (138) 
[H]c1nc2n(n1)C([H])([H])C([H])([H])N(C(=O)C1([H])C([H])([H])OC([H])([H])C1([H])[H])C2([H])[H]

$$$$
36:0:2
     RDKit          3D

 30 32  0  0  1  0  0  0  0  0999 V2000
    0.7818  -10.1673    4.5322 O   0  0  0  0  0  0  0  0  0  0  0  0
    1.1964   -9.6364    3.4969 C   0  0  0  0  0  0  0  0  0  0  0  0
    0.5135   -8.3141    3.0527 C   0  0  2  0  0  0  0  0  0  0  0  0
    0.8097   -7.1761    4.0356 C   0  0  0  0  0  0  0  0  0  0  0  0
   -0.5725   -6.6487    4.3938 C   0  0  0  0  0  0  0  0  0  0  0  0
   -1.3841   -7.0435    3.3004 O   0  0  0  0  0  0  0  0  0  0  0  0
   -1.0195   -8.3864    2.9925 C   0  0  0  0  0  0  0  0  0  0  0  0
    2.2361  -10.1435    2.8143 N   0  0  0  0  0  0  0  0  0  0  0  0
    3.0044  -11.3163    3.3051 C   0  0  0  0  0  0  0  0  0  0  0  0
    4.4092  -10.8605    3.7589 C   0  0  0  0  0  0  0  0  0  0  0  0
    4.9568   -9.9631    2.7638 N   0  0  0  0  0  0  0  0  0  0  0  0
    6.2351   -9.5403    2.7420 N   0  0  0  0  0  0  0  0  0  0  0  0
    6.2357   -8.6949    1.7091 C   0  0  0  0  0  0  0  0  0  0  0  0
    5.0414   -8.5212    1.0755 N   0  0  0  0  0  0  0  0  0  0  0  0
    4.2888   -9.3419    1.7879 C   0  0  0  0  0  0  0  0  0  0  0  0
    2.8277   -9.5636    1.5835 C   0  0  0  0  0  0  0  0  0  0  0  0
    0.7714   -7.9513    2.0594 H   0  0  0  0  0  0  0  0  0  0  0  0
    1.3654   -7.4604    4.9311 H   0  0  0  0  0  0  0  0  0  0  0  0
    1.3946   -6.4118    3.5279 H   0  0  0  0  0  0  0  0  0  0  0  0
   -0.9427   -7.1302    5.2970 H   0  0  0  0  0  0  0  0  0  0  0  0
   -0.5716   -5.5660    4.5551 H   0  0  0  0  0  0  0  0  0  0  0  0
   -1.3723   -8.6575    1.9996 H   0  0  0  0  0  0  0  0  0  0  0  0
   -1.4617   -9.0736    3.7120 H   0  0  0  0  0  0  0  0  0  0  0  0
    2.5078  -11.8668    4.1053 H   0  0  0  0  0  0  0  0  0  0  0  0
    3.1111  -12.0341    2.4976 H   0  0  0  0  0  0  0  0  0  0  0  0
    4.3508  -10.3312    4.7140 H   0  0  0  0  0  0  0  0  0  0  0  0
    5.0899  -11.7071    3.8840 H   0  0  0  0  0  0  0  0  0  0  0  0
    7.1254   -8.1715    1.3937 H   0  0  0  0  0  0  0  0  0  0  0  0
    2.6855  -10.2518    0.7603 H   0  0  0  0  0  0  0  0  0  0  0  0
    2.4273   -8.6148    1.2282 H   0  0  0  0  0  0  0  0  0  0  0  0
  1  2  2  0
  2  3  1  0
  2  8  1  0
  3  7  1  0
  3  4  1  0
  3 17  1  6
  4  5  1  0
  4 18  1  0
  4 19  1  0
  5  6  1  0
  5 20  1  0
  5 21  1  0
  6  7  1  0
  7 22  1  0
  7 23  1  0
  8 16  1  0
  8  9  1  0
  9 10  1  0
  9 24  1  0
  9 25  1  0
 10 11  1  0
 10 26  1  0
 10 27  1  0
 11 15  1  0
 11 12  1  0
 12 13  2  0
 13 14  1  0
 13 28  1  0
 14 15  2  0
 15 16  1  0
 16 29  1  0
 16 30  1  0
M  END
>  <i_m_ct_stereo_status>  (139) 
1

>  <s_m_source_file>  (139) 
/var/tmp/pbs.5076255.sched01/tmpco4mv84g/486h_uxm9x.sdf

>  <i_m_source_file_index>  (139) 
15

>  <i_lp_mmshare_version>  (139) 
48012

>  <i_f3d_flags>  (139) 
0

>  <s_epik_input>  (139) 
W0NIMl0xT1tDSDJdW0NIMl1bQ0BIXTFDKD1PKU4oW0NIMl1bQ0gyXTIpW0NIMl1jKG4yMyluW2NIXW4z

>  <s_epik_cmdline>  (139) 
J2VwaWtfcHl0aG9uJywgJy1waHQnLCAnMi4wJywgJy1waCcsICc3LjAnLCAnLXRuJywgJzgnLCAnLW1hJywgJzIwMCcsICctaW1hZScsICc8aW5maWxlLm1hZT4nLCAnLW9tYWUnLCAnPG91dGZpbGUubWFlPic=

>  <r_lp_tautomer_probability>  (139) 
1

>  <r_epik_Ionization_Penalty>  (139) 
0.000106148

>  <r_epik_Ionization_Penalty_Charging>  (139) 
0

>  <r_epik_Ionization_Penalty_Neutral>  (139) 
0.000106148

>  <r_epik_State_Penalty>  (139) 
-0

>  <r_epik_Charging_Adjusted_Penalty>  (139) 
0

>  <i_epik_Tot_Q>  (139) 
0

>  <i_epik_Tot_abs_Q>  (139) 
0

>  <s_lp_Force_Field>  (139) 
OPLS3e

>  <r_lp_Energy>  (139) 
30.0476

>  <b_lp_Chiralities_Consistent>  (139) 
1

>  <s_lp_Variant>  (139) 
36:0-1

>  <s_i_glide_gridfile>  (139) 
pfpi4k_grid

>  <i_i_glide_lignum>  (139) 
15

>  <i_i_glide_rotatable_bonds>  (139) 
2

>  <r_i_docking_score>  (139) 
-3.13749

>  <r_i_glide_ligand_efficiency>  (139) 
-0.196093

>  <r_i_glide_ligand_efficiency_sa>  (139) 
-0.494124

>  <r_i_glide_ligand_efficiency_ln>  (139) 
-0.831655

>  <r_i_glide_gscore>  (139) 
-3.13749

>  <r_i_glide_lipo>  (139) 
0

>  <r_i_glide_hbond>  (139) 
-0.136993

>  <r_i_glide_metal>  (139) 
-0

>  <r_i_glide_rewards>  (139) 
-2.06799

>  <r_i_glide_evdw>  (139) 
-22.116

>  <r_i_glide_ecoul>  (139) 
-2.77615

>  <r_i_glide_erotb>  (139) 
0.684198

>  <r_i_glide_esite>  (139) 
-0.0944917

>  <r_i_glide_emodel>  (139) 
-30.423

>  <r_i_glide_energy>  (139) 
-24.8921

>  <r_i_glide_einternal>  (139) 
0.846444

>  <r_i_glide_intrahb_reward>  (139) 
-0

>  <i_i_glide_confnum>  (139) 
5

>  <i_i_glide_posenum>  (139) 
4

>  <r_i_glide_eff_state_penalty>  (139) 
0

>  <ligand_id>  (139) 
36

>  <original_smiles>  (139) 
O=C(C1CCOC1)N1CCn2ncnc2C1

>  <smiles>  (139) 
[H]c1nc2n(n1)C([H])([H])C([H])([H])N(C(=O)C1([H])C([H])([H])OC([H])([H])C1([H])[H])C2([H])[H]

$$$$
38:0:0
     RDKit          3D

 17 18  0  0  1  0  0  0  0  0999 V2000
    4.1010   -4.2624    1.8379 O   0  0  0  0  0  0  0  0  0  0  0  0
    4.1361   -3.4695    0.8998 C   0  0  0  0  0  0  0  0  0  0  0  0
    4.9847   -2.2535    0.9315 C   0  0  0  0  0  0  0  0  0  0  0  0
    5.0187   -1.3879   -0.0966 C   0  0  0  0  0  0  0  0  0  0  0  0
    4.2165   -1.6205   -1.2916 C   0  0  0  0  0  0  0  0  0  0  0  0
    4.2231   -0.7441   -2.3957 C   0  0  0  0  0  0  0  0  0  0  0  0
    3.4201   -1.0263   -3.5182 C   0  0  0  0  0  0  0  0  0  0  0  0
    3.4146    0.1550   -5.0112 Br  0  0  0  0  0  0  0  0  0  0  0  0
    2.6235   -2.1870   -3.5324 C   0  0  0  0  0  0  0  0  0  0  0  0
    2.6190   -3.0549   -2.4296 C   0  0  0  0  0  0  0  0  0  0  0  0
    3.4161   -2.7816   -1.3043 C   0  0  0  0  0  0  0  0  0  0  0  0
    3.3909   -3.6551   -0.2358 O   0  0  0  0  0  0  0  0  0  0  0  0
    5.5740   -2.0850    1.8199 H   0  0  0  0  0  0  0  0  0  0  0  0
    5.6358   -0.4987   -0.0496 H   0  0  0  0  0  0  0  0  0  0  0  0
    4.8334    0.1421   -2.3780 H   0  0  0  0  0  0  0  0  0  0  0  0
    1.9927   -2.4126   -4.3734 H   0  0  0  0  0  0  0  0  0  0  0  0
    1.9934   -3.9374   -2.4476 H   0  0  0  0  0  0  0  0  0  0  0  0
  1  2  2  0
  2 12  1  0
  2  3  1  0
  3  4  2  0
  3 13  1  0
  4  5  1  0
  4 14  1  0
  5 11  2  0
  5  6  1  0
  6  7  2  0
  6 15  1  0
  7  8  1  0
  7  9  1  0
  9 10  2  0
  9 16  1  0
 10 11  1  0
 10 17  1  0
 11 12  1  0
M  END
>  <i_m_ct_stereo_status>  (140) 
1

>  <s_m_source_file>  (140) 
/var/tmp/pbs.5076255.sched01/tmpco4mv84g/486h_uxm9x.sdf

>  <i_m_source_file_index>  (140) 
17

>  <i_lp_mmshare_version>  (140) 
48012

>  <i_f3d_flags>  (140) 
0

>  <s_epik_input>  (140) 
W2NIXTFbY0hdYyg9TylvYyhjMTIpW2NIXVtjSF1jKEJyKVtjSF0y

>  <s_epik_cmdline>  (140) 
J2VwaWtfcHl0aG9uJywgJy1waHQnLCAnMi4wJywgJy1waCcsICc3LjAnLCAnLXRuJywgJzgnLCAnLW1hJywgJzIwMCcsICctaW1hZScsICc8aW5maWxlLm1hZT4nLCAnLW9tYWUnLCAnPG91dGZpbGUubWFlPic=

>  <r_lp_tautomer_probability>  (140) 
1

>  <r_epik_Ionization_Penalty>  (140) 
4.87121e-09

>  <r_epik_Ionization_Penalty_Charging>  (140) 
0

>  <r_epik_Ionization_Penalty_Neutral>  (140) 
4.87121e-09

>  <r_epik_State_Penalty>  (140) 
-0

>  <r_epik_Charging_Adjusted_Penalty>  (140) 
0

>  <i_epik_Tot_Q>  (140) 
0

>  <i_epik_Tot_abs_Q>  (140) 
0

>  <s_lp_Force_Field>  (140) 
OPLS3e

>  <r_lp_Energy>  (140) 
20.6355

>  <b_lp_Chiralities_Consistent>  (140) 
1

>  <s_lp_Variant>  (140) 
38:0-1

>  <s_i_glide_gridfile>  (140) 
pfpi4k_grid

>  <i_i_glide_lignum>  (140) 
17

>  <i_i_glide_rotatable_bonds>  (140) 
0

>  <r_i_docking_score>  (140) 
-3.89551

>  <r_i_glide_ligand_efficiency>  (140) 
-0.324626

>  <r_i_glide_ligand_efficiency_sa>  (140) 
-0.743208

>  <r_i_glide_ligand_efficiency_ln>  (140) 
-1.11782

>  <r_i_glide_gscore>  (140) 
-3.89551

>  <r_i_glide_lipo>  (140) 
-0.618111

>  <r_i_glide_hbond>  (140) 
0

>  <r_i_glide_metal>  (140) 
-0

>  <r_i_glide_rewards>  (140) 
-1.87474

>  <r_i_glide_evdw>  (140) 
-23.0911

>  <r_i_glide_ecoul>  (140) 
-1.65407

>  <r_i_glide_erotb>  (140) 
0

>  <r_i_glide_esite>  (140) 
0

>  <r_i_glide_emodel>  (140) 
-30.5378

>  <r_i_glide_energy>  (140) 
-24.7451

>  <r_i_glide_einternal>  (140) 
0

>  <r_i_glide_intrahb_reward>  (140) 
-0

>  <i_i_glide_confnum>  (140) 
1

>  <i_i_glide_posenum>  (140) 
1

>  <r_i_glide_eff_state_penalty>  (140) 
0

>  <ligand_id>  (140) 
38

>  <original_smiles>  (140) 
O=c1ccc2cc(Br)ccc2o1

>  <smiles>  (140) 
[H]c1c(Br)c([H])c2c([H])c([H])c(=O)oc2c1[H]

$$$$
38:0:1
     RDKit          3D

 17 18  0  0  1  0  0  0  0  0999 V2000
   -0.1860   -6.7003    1.1570 O   0  0  0  0  0  0  0  0  0  0  0  0
   -0.0858   -7.2178    2.2690 C   0  0  0  0  0  0  0  0  0  0  0  0
   -0.3015   -8.6608    2.5106 C   0  0  0  0  0  0  0  0  0  0  0  0
   -0.1831   -9.2003    3.7362 C   0  0  0  0  0  0  0  0  0  0  0  0
    0.1477   -8.3722    4.8879 C   0  0  0  0  0  0  0  0  0  0  0  0
    0.2786   -8.8990    6.1893 C   0  0  0  0  0  0  0  0  0  0  0  0
    0.6029   -8.0351    7.2557 C   0  0  0  0  0  0  0  0  0  0  0  0
    0.7514   -8.7095    9.0285 Br  0  0  0  0  0  0  0  0  0  0  0  0
    0.7872   -6.6585    7.0182 C   0  0  0  0  0  0  0  0  0  0  0  0
    0.6516   -6.1400    5.7151 C   0  0  0  0  0  0  0  0  0  0  0  0
    0.3334   -6.9981    4.6453 C   0  0  0  0  0  0  0  0  0  0  0  0
    0.2136   -6.4660    3.3747 O   0  0  0  0  0  0  0  0  0  0  0  0
   -0.5659   -9.2905    1.6823 H   0  0  0  0  0  0  0  0  0  0  0  0
   -0.3426  -10.2575    3.8938 H   0  0  0  0  0  0  0  0  0  0  0  0
    0.1251   -9.9542    6.3721 H   0  0  0  0  0  0  0  0  0  0  0  0
    1.0339   -5.9962    7.8341 H   0  0  0  0  0  0  0  0  0  0  0  0
    0.7986   -5.0859    5.5311 H   0  0  0  0  0  0  0  0  0  0  0  0
  1  2  2  0
  2 12  1  0
  2  3  1  0
  3  4  2  0
  3 13  1  0
  4  5  1  0
  4 14  1  0
  5 11  2  0
  5  6  1  0
  6  7  2  0
  6 15  1  0
  7  8  1  0
  7  9  1  0
  9 10  2  0
  9 16  1  0
 10 11  1  0
 10 17  1  0
 11 12  1  0
M  END
>  <i_m_ct_stereo_status>  (141) 
1

>  <s_m_source_file>  (141) 
/var/tmp/pbs.5076255.sched01/tmpco4mv84g/486h_uxm9x.sdf

>  <i_m_source_file_index>  (141) 
17

>  <i_lp_mmshare_version>  (141) 
48012

>  <i_f3d_flags>  (141) 
0

>  <s_epik_input>  (141) 
W2NIXTFbY0hdYyg9TylvYyhjMTIpW2NIXVtjSF1jKEJyKVtjSF0y

>  <s_epik_cmdline>  (141) 
J2VwaWtfcHl0aG9uJywgJy1waHQnLCAnMi4wJywgJy1waCcsICc3LjAnLCAnLXRuJywgJzgnLCAnLW1hJywgJzIwMCcsICctaW1hZScsICc8aW5maWxlLm1hZT4nLCAnLW9tYWUnLCAnPG91dGZpbGUubWFlPic=

>  <r_lp_tautomer_probability>  (141) 
1

>  <r_epik_Ionization_Penalty>  (141) 
4.87121e-09

>  <r_epik_Ionization_Penalty_Charging>  (141) 
0

>  <r_epik_Ionization_Penalty_Neutral>  (141) 
4.87121e-09

>  <r_epik_State_Penalty>  (141) 
-0

>  <r_epik_Charging_Adjusted_Penalty>  (141) 
0

>  <i_epik_Tot_Q>  (141) 
0

>  <i_epik_Tot_abs_Q>  (141) 
0

>  <s_lp_Force_Field>  (141) 
OPLS3e

>  <r_lp_Energy>  (141) 
20.6355

>  <b_lp_Chiralities_Consistent>  (141) 
1

>  <s_lp_Variant>  (141) 
38:0-1

>  <s_i_glide_gridfile>  (141) 
pfpi4k_grid

>  <i_i_glide_lignum>  (141) 
17

>  <i_i_glide_rotatable_bonds>  (141) 
0

>  <r_i_docking_score>  (141) 
-3.42253

>  <r_i_glide_ligand_efficiency>  (141) 
-0.285211

>  <r_i_glide_ligand_efficiency_sa>  (141) 
-0.65297

>  <r_i_glide_ligand_efficiency_ln>  (141) 
-0.982101

>  <r_i_glide_gscore>  (141) 
-3.42253

>  <r_i_glide_lipo>  (141) 
0

>  <r_i_glide_hbond>  (141) 
-0.214465

>  <r_i_glide_metal>  (141) 
-0

>  <r_i_glide_rewards>  (141) 
-1.87474

>  <r_i_glide_evdw>  (141) 
-15.5719

>  <r_i_glide_ecoul>  (141) 
-3.69823

>  <r_i_glide_erotb>  (141) 
0

>  <r_i_glide_esite>  (141) 
0

>  <r_i_glide_emodel>  (141) 
-24.356

>  <r_i_glide_energy>  (141) 
-19.2702

>  <r_i_glide_einternal>  (141) 
0

>  <r_i_glide_intrahb_reward>  (141) 
-0

>  <i_i_glide_confnum>  (141) 
2

>  <i_i_glide_posenum>  (141) 
40

>  <r_i_glide_eff_state_penalty>  (141) 
0

>  <ligand_id>  (141) 
38

>  <original_smiles>  (141) 
O=c1ccc2cc(Br)ccc2o1

>  <smiles>  (141) 
[H]c1c(Br)c([H])c2c([H])c([H])c(=O)oc2c1[H]

$$$$
38:0:2
     RDKit          3D

 17 18  0  0  1  0  0  0  0  0999 V2000
    4.0258   -4.4057    3.1598 O   0  0  0  0  0  0  0  0  0  0  0  0
    3.8285   -4.0534    1.9986 C   0  0  0  0  0  0  0  0  0  0  0  0
    2.8439   -4.7352    1.1246 C   0  0  0  0  0  0  0  0  0  0  0  0
    2.6321   -4.3366   -0.1423 C   0  0  0  0  0  0  0  0  0  0  0  0
    3.3737   -3.2191   -0.7107 C   0  0  0  0  0  0  0  0  0  0  0  0
    3.1858   -2.7789   -2.0376 C   0  0  0  0  0  0  0  0  0  0  0  0
    3.9386   -1.6879   -2.5166 C   0  0  0  0  0  0  0  0  0  0  0  0
    3.7142   -1.0556   -4.2965 Br  0  0  0  0  0  0  0  0  0  0  0  0
    4.8707   -1.0548   -1.6735 C   0  0  0  0  0  0  0  0  0  0  0  0
    5.0573   -1.4975   -0.3514 C   0  0  0  0  0  0  0  0  0  0  0  0
    4.3080   -2.5829    0.1360 C   0  0  0  0  0  0  0  0  0  0  0  0
    4.5065   -3.0017    1.4368 O   0  0  0  0  0  0  0  0  0  0  0  0
    2.3000   -5.5710    1.5382 H   0  0  0  0  0  0  0  0  0  0  0  0
    1.9168   -4.8503   -0.7694 H   0  0  0  0  0  0  0  0  0  0  0  0
    2.4691   -3.2681   -2.6841 H   0  0  0  0  0  0  0  0  0  0  0  0
    5.4315   -0.2152   -2.0423 H   0  0  0  0  0  0  0  0  0  0  0  0
    5.7650   -1.0008    0.2972 H   0  0  0  0  0  0  0  0  0  0  0  0
  1  2  2  0
  2 12  1  0
  2  3  1  0
  3  4  2  0
  3 13  1  0
  4  5  1  0
  4 14  1  0
  5 11  2  0
  5  6  1  0
  6  7  2  0
  6 15  1  0
  7  8  1  0
  7  9  1  0
  9 10  2  0
  9 16  1  0
 10 11  1  0
 10 17  1  0
 11 12  1  0
M  END
>  <i_m_ct_stereo_status>  (142) 
1

>  <s_m_source_file>  (142) 
/var/tmp/pbs.5076255.sched01/tmpco4mv84g/486h_uxm9x.sdf

>  <i_m_source_file_index>  (142) 
17

>  <i_lp_mmshare_version>  (142) 
48012

>  <i_f3d_flags>  (142) 
0

>  <s_epik_input>  (142) 
W2NIXTFbY0hdYyg9TylvYyhjMTIpW2NIXVtjSF1jKEJyKVtjSF0y

>  <s_epik_cmdline>  (142) 
J2VwaWtfcHl0aG9uJywgJy1waHQnLCAnMi4wJywgJy1waCcsICc3LjAnLCAnLXRuJywgJzgnLCAnLW1hJywgJzIwMCcsICctaW1hZScsICc8aW5maWxlLm1hZT4nLCAnLW9tYWUnLCAnPG91dGZpbGUubWFlPic=

>  <r_lp_tautomer_probability>  (142) 
1

>  <r_epik_Ionization_Penalty>  (142) 
4.87121e-09

>  <r_epik_Ionization_Penalty_Charging>  (142) 
0

>  <r_epik_Ionization_Penalty_Neutral>  (142) 
4.87121e-09

>  <r_epik_State_Penalty>  (142) 
-0

>  <r_epik_Charging_Adjusted_Penalty>  (142) 
0

>  <i_epik_Tot_Q>  (142) 
0

>  <i_epik_Tot_abs_Q>  (142) 
0

>  <s_lp_Force_Field>  (142) 
OPLS3e

>  <r_lp_Energy>  (142) 
20.6355

>  <b_lp_Chiralities_Consistent>  (142) 
1

>  <s_lp_Variant>  (142) 
38:0-1

>  <s_i_glide_gridfile>  (142) 
pfpi4k_grid

>  <i_i_glide_lignum>  (142) 
17

>  <i_i_glide_rotatable_bonds>  (142) 
0

>  <r_i_docking_score>  (142) 
-3.09542

>  <r_i_glide_ligand_efficiency>  (142) 
-0.257952

>  <r_i_glide_ligand_efficiency_sa>  (142) 
-0.590563

>  <r_i_glide_ligand_efficiency_ln>  (142) 
-0.888237

>  <r_i_glide_gscore>  (142) 
-3.09542

>  <r_i_glide_lipo>  (142) 
-0.0743535

>  <r_i_glide_hbond>  (142) 
0

>  <r_i_glide_metal>  (142) 
-0

>  <r_i_glide_rewards>  (142) 
-1.87474

>  <r_i_glide_evdw>  (142) 
-18.7053

>  <r_i_glide_ecoul>  (142) 
-1.40713

>  <r_i_glide_erotb>  (142) 
0

>  <r_i_glide_esite>  (142) 
0

>  <r_i_glide_emodel>  (142) 
-24.7146

>  <r_i_glide_energy>  (142) 
-20.1124

>  <r_i_glide_einternal>  (142) 
0

>  <r_i_glide_intrahb_reward>  (142) 
-0

>  <i_i_glide_confnum>  (142) 
2

>  <i_i_glide_posenum>  (142) 
10

>  <r_i_glide_eff_state_penalty>  (142) 
0

>  <ligand_id>  (142) 
38

>  <original_smiles>  (142) 
O=c1ccc2cc(Br)ccc2o1

>  <smiles>  (142) 
[H]c1c(Br)c([H])c2c([H])c([H])c(=O)oc2c1[H]

$$$$
39:0:0
     RDKit          3D

 44 48  0  0  1  0  0  0  0  0999 V2000
    3.8956   -2.7798   -3.8829 C   0  0  0  0  0  0  0  0  0  0  0  0
    4.1771   -2.8389   -2.5737 C   0  0  0  0  0  0  0  0  0  0  0  0
    5.1766   -3.8380   -1.9715 C   0  0  0  0  0  0  0  0  0  0  0  0
    5.9359   -3.2633   -0.7259 C   0  0  2  0  0  0  0  0  0  0  0  0
    7.2697   -2.6622   -1.2149 C   0  0  0  0  0  0  0  0  0  0  0  0
    6.2623   -4.3709    0.3285 C   0  0  0  0  0  0  0  0  0  0  0  0
    5.2979   -4.4367    1.5356 C   0  0  0  0  0  0  0  0  0  0  0  0
    5.1940   -3.0728    2.2677 C   0  0  1  0  0  0  0  0  0  0  0  0
    5.3680   -1.8889    1.3547 C   0  0  0  0  0  0  0  0  0  0  0  0
    5.4015   -0.6733    1.9102 C   0  0  0  0  0  0  0  0  0  0  0  0
    5.0569   -0.5652    3.3815 C   0  0  0  0  0  0  0  0  0  0  0  0
    4.0126   -1.4933    3.7467 O   0  0  0  0  0  0  0  0  0  0  0  0
    3.9000   -2.7615    3.0598 C   0  0  2  0  0  0  0  0  0  0  0  0
    3.7032   -3.7770    4.1998 C   0  0  0  0  0  0  0  0  0  0  0  0
    2.6355   -2.6799    2.1339 C   0  0  0  0  0  0  0  0  0  0  0  0
    2.7489   -1.9176    0.9122 O   0  0  0  0  0  0  0  0  0  0  0  0
    3.5042   -2.5457   -0.1373 C   0  0  1  0  0  0  0  0  0  0  0  0
    3.5471   -1.8984   -1.5412 C   0  0  1  0  0  0  0  0  0  0  0  0
    4.6219   -0.9793   -0.9632 C   0  0  0  0  0  0  0  0  0  0  0  0
    5.0209   -2.1892   -0.0876 C   0  0  2  0  0  0  0  0  0  0  0  0
    3.1968   -2.0550   -4.2757 H   0  0  0  0  0  0  0  0  0  0  0  0
    4.3651   -3.4528   -4.5809 H   0  0  0  0  0  0  0  0  0  0  0  0
    4.5920   -4.7007   -1.6622 H   0  0  0  0  0  0  0  0  0  0  0  0
    5.8509   -4.2060   -2.7427 H   0  0  0  0  0  0  0  0  0  0  0  0
    7.7781   -2.1238   -0.4149 H   0  0  0  0  0  0  0  0  0  0  0  0
    7.1196   -1.9860   -2.0530 H   0  0  0  0  0  0  0  0  0  0  0  0
    7.9389   -3.4489   -1.5637 H   0  0  0  0  0  0  0  0  0  0  0  0
    6.3200   -5.3451   -0.1493 H   0  0  0  0  0  0  0  0  0  0  0  0
    7.2576   -4.1839    0.7358 H   0  0  0  0  0  0  0  0  0  0  0  0
    4.3269   -4.8024    1.2140 H   0  0  0  0  0  0  0  0  0  0  0  0
    5.6551   -5.1896    2.2375 H   0  0  0  0  0  0  0  0  0  0  0  0
    6.0330   -3.0377    2.9598 H   0  0  0  0  0  0  0  0  0  0  0  0
    5.3938    0.2275    1.3199 H   0  0  0  0  0  0  0  0  0  0  0  0
    5.9504   -0.7360    3.9794 H   0  0  0  0  0  0  0  0  0  0  0  0
    4.7060    0.4448    3.5932 H   0  0  0  0  0  0  0  0  0  0  0  0
    3.5798   -4.7907    3.8201 H   0  0  0  0  0  0  0  0  0  0  0  0
    2.8248   -3.5293    4.7970 H   0  0  0  0  0  0  0  0  0  0  0  0
    4.5655   -3.7728    4.8686 H   0  0  0  0  0  0  0  0  0  0  0  0
    2.2971   -3.6857    1.8874 H   0  0  0  0  0  0  0  0  0  0  0  0
    1.8214   -2.2430    2.7140 H   0  0  0  0  0  0  0  0  0  0  0  0
    3.2414   -3.5988   -0.2144 H   0  0  0  0  0  0  0  0  0  0  0  0
    2.6338   -1.3978   -1.8801 H   0  0  0  0  0  0  0  0  0  0  0  0
    5.3620   -0.6414   -1.6887 H   0  0  0  0  0  0  0  0  0  0  0  0
    4.1980   -0.1383   -0.4156 H   0  0  0  0  0  0  0  0  0  0  0  0
  1  2  2  0
  1 21  1  0
  1 22  1  0
  2 18  1  0
  2  3  1  0
  3  4  1  0
  3 23  1  0
  3 24  1  0
  4 20  1  0
  4  5  1  6
  4  6  1  0
  5 25  1  0
  5 26  1  0
  5 27  1  0
  6  7  1  0
  6 28  1  0
  6 29  1  0
  7  8  1  0
  7 30  1  0
  7 31  1  0
  8 13  1  0
  8  9  1  0
  8 32  1  1
  9 20  1  0
  9 10  2  0
 10 11  1  0
 10 33  1  0
 11 12  1  0
 11 34  1  0
 11 35  1  0
 12 13  1  0
 13 14  1  1
 13 15  1  0
 14 36  1  0
 14 37  1  0
 14 38  1  0
 15 16  1  0
 15 39  1  0
 15 40  1  0
 16 17  1  0
 17 20  1  0
 17 18  1  0
 17 41  1  6
 18 19  1  0
 18 42  1  6
 20 19  1  6
 19 43  1  0
 19 44  1  0
M  END
>  <i_m_ct_stereo_status>  (143) 
1

>  <s_m_source_file>  (143) 
/var/tmp/pbs.5076255.sched01/tmpco4mv84g/486h_uxm9x.sdf

>  <i_m_source_file_index>  (143) 
18

>  <i_lp_mmshare_version>  (143) 
48012

>  <i_f3d_flags>  (143) 
0

>  <s_epik_input>  (143) 
W0NIM11bQ0BAXTEoW0NAXTIzNClbQ0gyXUMoPVtDSDJdKVtDQEhdKFtDSDJdNClbQ0BASF0zT1tDSDJdW0NAQF01KFtDSDNdKVtDQEBIXShbQ0gyXVtDSDJdMSlDMj1bQ0hdW0NIMl1PNQ==

>  <s_epik_cmdline>  (143) 
J2VwaWtfcHl0aG9uJywgJy1waHQnLCAnMi4wJywgJy1waCcsICc3LjAnLCAnLXRuJywgJzgnLCAnLW1hJywgJzIwMCcsICctaW1hZScsICc8aW5maWxlLm1hZT4nLCAnLW9tYWUnLCAnPG91dGZpbGUubWFlPic=

>  <r_lp_tautomer_probability>  (143) 
1

>  <r_epik_Ionization_Penalty>  (143) 
8.63522e-12

>  <r_epik_Ionization_Penalty_Charging>  (143) 
0

>  <r_epik_Ionization_Penalty_Neutral>  (143) 
8.63522e-12

>  <r_epik_State_Penalty>  (143) 
-0

>  <r_epik_Charging_Adjusted_Penalty>  (143) 
0

>  <i_epik_Tot_Q>  (143) 
0

>  <i_epik_Tot_abs_Q>  (143) 
0

>  <s_lp_Force_Field>  (143) 
OPLS3e

>  <r_lp_Energy>  (143) 
73.3285

>  <b_lp_Chiralities_Consistent>  (143) 
1

>  <s_lp_Variant>  (143) 
39:0-1

>  <s_i_glide_gridfile>  (143) 
pfpi4k_grid

>  <i_i_glide_lignum>  (143) 
18

>  <i_i_glide_rotatable_bonds>  (143) 
0

>  <r_i_docking_score>  (143) 
-3.18041

>  <r_i_glide_ligand_efficiency>  (143) 
-0.15902

>  <r_i_glide_ligand_efficiency_sa>  (143) 
-0.431648

>  <r_i_glide_ligand_efficiency_ln>  (143) 
-0.795952

>  <r_i_glide_gscore>  (143) 
-3.18041

>  <r_i_glide_lipo>  (143) 
-0.689418

>  <r_i_glide_hbond>  (143) 
0

>  <r_i_glide_metal>  (143) 
-0

>  <r_i_glide_rewards>  (143) 
-1.55194

>  <r_i_glide_evdw>  (143) 
-23.8174

>  <r_i_glide_ecoul>  (143) 
1.6788

>  <r_i_glide_erotb>  (143) 
0

>  <r_i_glide_esite>  (143) 
0

>  <r_i_glide_emodel>  (143) 
-26.6973

>  <r_i_glide_energy>  (143) 
-22.1386

>  <r_i_glide_einternal>  (143) 
0

>  <r_i_glide_intrahb_reward>  (143) 
-0

>  <i_i_glide_confnum>  (143) 
1

>  <i_i_glide_posenum>  (143) 
7

>  <r_i_glide_eff_state_penalty>  (143) 
0

>  <ligand_id>  (143) 
39

>  <original_smiles>  (143) 
C=C1CC2(C)CCC3C4=CCOC3(C)COC3C1CC432

>  <smiles>  (143) 
[H]C([H])=C1C([H])([H])C2(C([H])([H])[H])C([H])([H])C([H])([H])C3([H])C4=C([H])C([H])([H])OC3(C([H])([H])[H])C([H])([H])OC3([H])C1([H])C([H])([H])C432

$$$$
39:0:1
     RDKit          3D

 44 48  0  0  1  0  0  0  0  0999 V2000
    4.2072   -1.7355   -3.1941 C   0  0  0  0  0  0  0  0  0  0  0  0
    4.4357   -2.4252   -2.0662 C   0  0  0  0  0  0  0  0  0  0  0  0
    5.8371   -2.8475   -1.6022 C   0  0  0  0  0  0  0  0  0  0  0  0
    5.9709   -2.8510   -0.0377 C   0  0  2  0  0  0  0  0  0  0  0  0
    6.5381   -1.4839    0.4070 C   0  0  0  0  0  0  0  0  0  0  0  0
    6.9547   -3.9595    0.4581 C   0  0  0  0  0  0  0  0  0  0  0  0
    6.2767   -5.2512    0.9785 C   0  0  0  0  0  0  0  0  0  0  0  0
    5.2570   -4.9523    2.1107 C   0  0  1  0  0  0  0  0  0  0  0  0
    4.5837   -3.6124    1.9758 C   0  0  0  0  0  0  0  0  0  0  0  0
    3.7716   -3.2166    2.9614 C   0  0  0  0  0  0  0  0  0  0  0  0
    3.4336   -4.2352    4.0289 C   0  0  0  0  0  0  0  0  0  0  0  0
    3.2867   -5.5556    3.4649 O   0  0  0  0  0  0  0  0  0  0  0  0
    4.0853   -5.9421    2.3216 C   0  0  2  0  0  0  0  0  0  0  0  0
    4.6160   -7.3370    2.7016 C   0  0  0  0  0  0  0  0  0  0  0  0
    3.1148   -6.0093    1.0871 C   0  0  0  0  0  0  0  0  0  0  0  0
    2.6830   -4.7620    0.4923 O   0  0  0  0  0  0  0  0  0  0  0  0
    3.6950   -4.0912   -0.2830 C   0  0  1  0  0  0  0  0  0  0  0  0
    3.3140   -2.8384   -1.1060 C   0  0  1  0  0  0  0  0  0  0  0  0
    3.4438   -2.0754    0.2118 C   0  0  0  0  0  0  0  0  0  0  0  0
    4.5578   -3.0993    0.5515 C   0  0  2  0  0  0  0  0  0  0  0  0
    3.2040   -1.4429   -3.4745 H   0  0  0  0  0  0  0  0  0  0  0  0
    5.0089   -1.4399   -3.8501 H   0  0  0  0  0  0  0  0  0  0  0  0
    5.9837   -3.8556   -1.9889 H   0  0  0  0  0  0  0  0  0  0  0  0
    6.6045   -2.2442   -2.0837 H   0  0  0  0  0  0  0  0  0  0  0  0
    6.5258   -1.3833    1.4934 H   0  0  0  0  0  0  0  0  0  0  0  0
    5.9797   -0.6463   -0.0093 H   0  0  0  0  0  0  0  0  0  0  0  0
    7.5736   -1.3778    0.0831 H   0  0  0  0  0  0  0  0  0  0  0  0
    7.6783   -4.2008   -0.3180 H   0  0  0  0  0  0  0  0  0  0  0  0
    7.5450   -3.5618    1.2842 H   0  0  0  0  0  0  0  0  0  0  0  0
    5.8207   -5.7929    0.1541 H   0  0  0  0  0  0  0  0  0  0  0  0
    7.0424   -5.9289    1.3581 H   0  0  0  0  0  0  0  0  0  0  0  0
    5.8368   -4.9055    3.0328 H   0  0  0  0  0  0  0  0  0  0  0  0
    3.1550   -2.3332    2.8957 H   0  0  0  0  0  0  0  0  0  0  0  0
    4.2047   -4.2269    4.8004 H   0  0  0  0  0  0  0  0  0  0  0  0
    2.4889   -3.9596    4.4955 H   0  0  0  0  0  0  0  0  0  0  0  0
    5.2249   -7.7699    1.9080 H   0  0  0  0  0  0  0  0  0  0  0  0
    3.7967   -8.0270    2.9108 H   0  0  0  0  0  0  0  0  0  0  0  0
    5.2328   -7.2826    3.6007 H   0  0  0  0  0  0  0  0  0  0  0  0
    3.5630   -6.6270    0.3095 H   0  0  0  0  0  0  0  0  0  0  0  0
    2.2183   -6.5504    1.3931 H   0  0  0  0  0  0  0  0  0  0  0  0
    4.2247   -4.8025   -0.9140 H   0  0  0  0  0  0  0  0  0  0  0  0
    2.3087   -2.8325   -1.5382 H   0  0  0  0  0  0  0  0  0  0  0  0
    3.7614   -1.0381    0.0988 H   0  0  0  0  0  0  0  0  0  0  0  0
    2.5277   -2.1482    0.8025 H   0  0  0  0  0  0  0  0  0  0  0  0
  1  2  2  0
  1 21  1  0
  1 22  1  0
  2 18  1  0
  2  3  1  0
  3  4  1  0
  3 23  1  0
  3 24  1  0
  4 20  1  0
  4  5  1  1
  4  6  1  0
  5 25  1  0
  5 26  1  0
  5 27  1  0
  6  7  1  0
  6 28  1  0
  6 29  1  0
  7  8  1  0
  7 30  1  0
  7 31  1  0
  8 13  1  0
  8  9  1  0
  8 32  1  1
  9 20  1  0
  9 10  2  0
 10 11  1  0
 10 33  1  0
 11 12  1  0
 11 34  1  0
 11 35  1  0
 12 13  1  0
 13 14  1  1
 13 15  1  0
 14 36  1  0
 14 37  1  0
 14 38  1  0
 15 16  1  0
 15 39  1  0
 15 40  1  0
 16 17  1  0
 17 20  1  0
 17 18  1  0
 17 41  1  6
 18 19  1  0
 18 42  1  6
 20 19  1  1
 19 43  1  0
 19 44  1  0
M  END
>  <i_m_ct_stereo_status>  (144) 
1

>  <s_m_source_file>  (144) 
/var/tmp/pbs.5076255.sched01/tmpco4mv84g/486h_uxm9x.sdf

>  <i_m_source_file_index>  (144) 
18

>  <i_lp_mmshare_version>  (144) 
48012

>  <i_f3d_flags>  (144) 
0

>  <s_epik_input>  (144) 
W0NIM11bQ0BAXTEoW0NAXTIzNClbQ0gyXUMoPVtDSDJdKVtDQEhdKFtDSDJdNClbQ0BASF0zT1tDSDJdW0NAQF01KFtDSDNdKVtDQEBIXShbQ0gyXVtDSDJdMSlDMj1bQ0hdW0NIMl1PNQ==

>  <s_epik_cmdline>  (144) 
J2VwaWtfcHl0aG9uJywgJy1waHQnLCAnMi4wJywgJy1waCcsICc3LjAnLCAnLXRuJywgJzgnLCAnLW1hJywgJzIwMCcsICctaW1hZScsICc8aW5maWxlLm1hZT4nLCAnLW9tYWUnLCAnPG91dGZpbGUubWFlPic=

>  <r_lp_tautomer_probability>  (144) 
1

>  <r_epik_Ionization_Penalty>  (144) 
8.63522e-12

>  <r_epik_Ionization_Penalty_Charging>  (144) 
0

>  <r_epik_Ionization_Penalty_Neutral>  (144) 
8.63522e-12

>  <r_epik_State_Penalty>  (144) 
-0

>  <r_epik_Charging_Adjusted_Penalty>  (144) 
0

>  <i_epik_Tot_Q>  (144) 
0

>  <i_epik_Tot_abs_Q>  (144) 
0

>  <s_lp_Force_Field>  (144) 
OPLS3e

>  <r_lp_Energy>  (144) 
73.3285

>  <b_lp_Chiralities_Consistent>  (144) 
1

>  <s_lp_Variant>  (144) 
39:0-1

>  <s_i_glide_gridfile>  (144) 
pfpi4k_grid

>  <i_i_glide_lignum>  (144) 
18

>  <i_i_glide_rotatable_bonds>  (144) 
0

>  <r_i_docking_score>  (144) 
-3.162

>  <r_i_glide_ligand_efficiency>  (144) 
-0.1581

>  <r_i_glide_ligand_efficiency_sa>  (144) 
-0.429149

>  <r_i_glide_ligand_efficiency_ln>  (144) 
-0.791344

>  <r_i_glide_gscore>  (144) 
-3.162

>  <r_i_glide_lipo>  (144) 
-0.471503

>  <r_i_glide_hbond>  (144) 
0

>  <r_i_glide_metal>  (144) 
-0

>  <r_i_glide_rewards>  (144) 
-1.55194

>  <r_i_glide_evdw>  (144) 
-23.1955

>  <r_i_glide_ecoul>  (144) 
0.141473

>  <r_i_glide_erotb>  (144) 
0

>  <r_i_glide_esite>  (144) 
0

>  <r_i_glide_emodel>  (144) 
-27.6246

>  <r_i_glide_energy>  (144) 
-23.054

>  <r_i_glide_einternal>  (144) 
0

>  <r_i_glide_intrahb_reward>  (144) 
-0

>  <i_i_glide_confnum>  (144) 
2

>  <i_i_glide_posenum>  (144) 
1

>  <r_i_glide_eff_state_penalty>  (144) 
0

>  <ligand_id>  (144) 
39

>  <original_smiles>  (144) 
C=C1CC2(C)CCC3C4=CCOC3(C)COC3C1CC432

>  <smiles>  (144) 
[H]C([H])=C1C([H])([H])C2(C([H])([H])[H])C([H])([H])C([H])([H])C3([H])C4=C([H])C([H])([H])OC3(C([H])([H])[H])C([H])([H])OC3([H])C1([H])C([H])([H])C432

$$$$
39:0:2
     RDKit          3D

 44 48  0  0  1  0  0  0  0  0999 V2000
    1.8036   -5.0354    3.8664 C   0  0  0  0  0  0  0  0  0  0  0  0
    2.4564   -4.2728    2.9786 C   0  0  0  0  0  0  0  0  0  0  0  0
    2.6854   -2.7651    3.1690 C   0  0  0  0  0  0  0  0  0  0  0  0
    4.0504   -2.2926    2.5603 C   0  0  2  0  0  0  0  0  0  0  0  0
    5.1055   -2.3204    3.6762 C   0  0  0  0  0  0  0  0  0  0  0  0
    3.9792   -0.8311    2.0163 C   0  0  0  0  0  0  0  0  0  0  0  0
    3.8012   -0.7158    0.4885 C   0  0  0  0  0  0  0  0  0  0  0  0
    4.9030   -1.4702   -0.2961 C   0  0  1  0  0  0  0  0  0  0  0  0
    5.4189   -2.6889    0.4255 C   0  0  0  0  0  0  0  0  0  0  0  0
    6.4495   -3.3471   -0.1191 C   0  0  0  0  0  0  0  0  0  0  0  0
    6.8743   -2.9382   -1.5140 C   0  0  0  0  0  0  0  0  0  0  0  0
    5.7376   -2.5755   -2.3280 O   0  0  0  0  0  0  0  0  0  0  0  0
    4.5657   -1.9840   -1.7190 C   0  0  2  0  0  0  0  0  0  0  0  0
    4.2116   -0.8222   -2.6655 C   0  0  0  0  0  0  0  0  0  0  0  0
    3.4335   -3.0715   -1.7164 C   0  0  0  0  0  0  0  0  0  0  0  0
    3.5185   -4.1324   -0.7373 O   0  0  0  0  0  0  0  0  0  0  0  0
    3.1853   -3.7443    0.5995 C   0  0  1  0  0  0  0  0  0  0  0  0
    3.0689   -4.8339    1.6874 C   0  0  1  0  0  0  0  0  0  0  0  0
    4.5944   -4.7677    1.7580 C   0  0  0  0  0  0  0  0  0  0  0  0
    4.4216   -3.2665    1.4099 C   0  0  2  0  0  0  0  0  0  0  0  0
    1.6782   -6.0979    3.7073 H   0  0  0  0  0  0  0  0  0  0  0  0
    1.4003   -4.6214    4.7769 H   0  0  0  0  0  0  0  0  0  0  0  0
    1.8628   -2.2641    2.6591 H   0  0  0  0  0  0  0  0  0  0  0  0
    2.5924   -2.4944    4.2201 H   0  0  0  0  0  0  0  0  0  0  0  0
    6.0888   -2.1227    3.2523 H   0  0  0  0  0  0  0  0  0  0  0  0
    5.1467   -3.2788    4.1935 H   0  0  0  0  0  0  0  0  0  0  0  0
    4.9040   -1.5509    4.4215 H   0  0  0  0  0  0  0  0  0  0  0  0
    3.1975   -0.2741    2.5249 H   0  0  0  0  0  0  0  0  0  0  0  0
    4.9083   -0.3132    2.2581 H   0  0  0  0  0  0  0  0  0  0  0  0
    2.8058   -1.0457    0.2081 H   0  0  0  0  0  0  0  0  0  0  0  0
    3.8335    0.3356    0.2188 H   0  0  0  0  0  0  0  0  0  0  0  0
    5.7425   -0.7789   -0.3692 H   0  0  0  0  0  0  0  0  0  0  0  0
    6.8044   -4.2942    0.2596 H   0  0  0  0  0  0  0  0  0  0  0  0
    7.5801   -2.1124   -1.4406 H   0  0  0  0  0  0  0  0  0  0  0  0
    7.3865   -3.7656   -2.0010 H   0  0  0  0  0  0  0  0  0  0  0  0
    3.3145   -0.2941   -2.3444 H   0  0  0  0  0  0  0  0  0  0  0  0
    4.0522   -1.1747   -3.6861 H   0  0  0  0  0  0  0  0  0  0  0  0
    5.0209   -0.0948   -2.6933 H   0  0  0  0  0  0  0  0  0  0  0  0
    2.4603   -2.5900   -1.6249 H   0  0  0  0  0  0  0  0  0  0  0  0
    3.4189   -3.5413   -2.7012 H   0  0  0  0  0  0  0  0  0  0  0  0
    2.3046   -3.1058    0.6057 H   0  0  0  0  0  0  0  0  0  0  0  0
    2.6726   -5.8004    1.3650 H   0  0  0  0  0  0  0  0  0  0  0  0
    5.0164   -4.9871    2.7389 H   0  0  0  0  0  0  0  0  0  0  0  0
    5.0521   -5.3848    0.9815 H   0  0  0  0  0  0  0  0  0  0  0  0
  1  2  2  0
  1 21  1  0
  1 22  1  0
  2 18  1  0
  2  3  1  0
  3  4  1  0
  3 23  1  0
  3 24  1  0
  4 20  1  0
  4  5  1  1
  4  6  1  0
  5 25  1  0
  5 26  1  0
  5 27  1  0
  6  7  1  0
  6 28  1  0
  6 29  1  0
  7  8  1  0
  7 30  1  0
  7 31  1  0
  8 13  1  0
  8  9  1  0
  8 32  1  6
  9 20  1  0
  9 10  2  0
 10 11  1  0
 10 33  1  0
 11 12  1  0
 11 34  1  0
 11 35  1  0
 12 13  1  0
 13 14  1  6
 13 15  1  0
 14 36  1  0
 14 37  1  0
 14 38  1  0
 15 16  1  0
 15 39  1  0
 15 40  1  0
 16 17  1  0
 17 20  1  0
 17 18  1  0
 17 41  1  6
 18 19  1  0
 18 42  1  6
 20 19  1  1
 19 43  1  0
 19 44  1  0
M  END
>  <i_m_ct_stereo_status>  (145) 
1

>  <s_m_source_file>  (145) 
/var/tmp/pbs.5076255.sched01/tmpco4mv84g/486h_uxm9x.sdf

>  <i_m_source_file_index>  (145) 
18

>  <i_lp_mmshare_version>  (145) 
48012

>  <i_f3d_flags>  (145) 
0

>  <s_epik_input>  (145) 
W0NIM11bQ0BAXTEoW0NAXTIzNClbQ0gyXUMoPVtDSDJdKVtDQEhdKFtDSDJdNClbQ0BASF0zT1tDSDJdW0NAQF01KFtDSDNdKVtDQEBIXShbQ0gyXVtDSDJdMSlDMj1bQ0hdW0NIMl1PNQ==

>  <s_epik_cmdline>  (145) 
J2VwaWtfcHl0aG9uJywgJy1waHQnLCAnMi4wJywgJy1waCcsICc3LjAnLCAnLXRuJywgJzgnLCAnLW1hJywgJzIwMCcsICctaW1hZScsICc8aW5maWxlLm1hZT4nLCAnLW9tYWUnLCAnPG91dGZpbGUubWFlPic=

>  <r_lp_tautomer_probability>  (145) 
1

>  <r_epik_Ionization_Penalty>  (145) 
8.63522e-12

>  <r_epik_Ionization_Penalty_Charging>  (145) 
0

>  <r_epik_Ionization_Penalty_Neutral>  (145) 
8.63522e-12

>  <r_epik_State_Penalty>  (145) 
-0

>  <r_epik_Charging_Adjusted_Penalty>  (145) 
0

>  <i_epik_Tot_Q>  (145) 
0

>  <i_epik_Tot_abs_Q>  (145) 
0

>  <s_lp_Force_Field>  (145) 
OPLS3e

>  <r_lp_Energy>  (145) 
73.3285

>  <b_lp_Chiralities_Consistent>  (145) 
1

>  <s_lp_Variant>  (145) 
39:0-1

>  <s_i_glide_gridfile>  (145) 
pfpi4k_grid

>  <i_i_glide_lignum>  (145) 
18

>  <i_i_glide_rotatable_bonds>  (145) 
0

>  <r_i_docking_score>  (145) 
-2.8431

>  <r_i_glide_ligand_efficiency>  (145) 
-0.142155

>  <r_i_glide_ligand_efficiency_sa>  (145) 
-0.385867

>  <r_i_glide_ligand_efficiency_ln>  (145) 
-0.711533

>  <r_i_glide_gscore>  (145) 
-2.8431

>  <r_i_glide_lipo>  (145) 
-0.310068

>  <r_i_glide_hbond>  (145) 
0

>  <r_i_glide_metal>  (145) 
-0

>  <r_i_glide_rewards>  (145) 
-1.55194

>  <r_i_glide_evdw>  (145) 
-21.8138

>  <r_i_glide_ecoul>  (145) 
0.730704

>  <r_i_glide_erotb>  (145) 
0

>  <r_i_glide_esite>  (145) 
0

>  <r_i_glide_emodel>  (145) 
-25.1549

>  <r_i_glide_energy>  (145) 
-21.0831

>  <r_i_glide_einternal>  (145) 
0

>  <r_i_glide_intrahb_reward>  (145) 
-0

>  <i_i_glide_confnum>  (145) 
1

>  <i_i_glide_posenum>  (145) 
2

>  <r_i_glide_eff_state_penalty>  (145) 
0

>  <ligand_id>  (145) 
39

>  <original_smiles>  (145) 
C=C1CC2(C)CCC3C4=CCOC3(C)COC3C1CC432

>  <smiles>  (145) 
[H]C([H])=C1C([H])([H])C2(C([H])([H])[H])C([H])([H])C([H])([H])C3([H])C4=C([H])C([H])([H])OC3(C([H])([H])[H])C([H])([H])OC3([H])C1([H])C([H])([H])C432

$$$$
40:0:0
     RDKit          3D

 82 88  0  0  1  0  0  0  0  0999 V2000
    0.8375    1.8362    1.8401 C   0  0  0  0  0  0  0  0  0  0  0  0
    1.0342    0.5081    2.3237 O   0  0  0  0  0  0  0  0  0  0  0  0
    1.8364    0.4196    3.4908 C   0  0  2  0  0  0  0  0  0  0  0  0
    3.3143    0.4749    3.0743 C   0  0  1  0  0  0  0  0  0  0  0  0
    4.1760    1.2114    4.0969 C   0  0  0  0  0  0  0  0  0  0  0  0
    3.7113    1.1492    5.5457 C   0  0  0  0  0  0  0  0  0  0  0  0
    3.3906   -0.2510    6.1172 C   0  0  1  0  0  0  0  0  0  0  0  0
    3.5479   -0.2178    7.5554 O   0  0  0  0  0  0  0  0  0  0  0  0
    3.1470    0.9354    8.2979 C   0  0  0  0  0  0  0  0  0  0  0  0
    2.0656   -1.0338    5.6713 C   0  0  2  0  0  0  0  0  0  0  0  0
    0.8490   -0.5891    6.5354 C   0  0  1  0  0  0  0  0  0  0  0  0
    0.2401    0.6391    6.1899 O   0  0  0  0  0  0  0  0  0  0  0  0
   -0.1631   -1.7311    6.5431 C   0  0  0  0  0  0  0  0  0  0  0  0
    0.6850   -2.9830    6.2905 C   0  0  0  0  0  0  0  0  0  0  0  0
    2.1586   -2.5198    6.1293 C   0  0  1  0  0  0  0  0  0  0  0  0
    3.0833   -3.4337    5.2684 C   0  0  1  0  0  0  0  0  0  0  0  0
    4.4500   -3.2100    5.5152 O   0  0  0  0  0  0  0  0  0  0  0  0
    2.8373   -4.9362    5.4716 C   0  0  0  0  0  0  0  0  0  0  0  0
    2.7023   -5.4661    6.5761 O   0  0  0  0  0  0  0  0  0  0  0  0
    2.7441   -5.6794    4.1346 C   0  0  1  0  0  0  0  0  0  0  0  0
    4.0175   -6.4267    3.7943 C   0  0  0  0  0  0  0  0  0  0  0  0
    4.5639   -7.3766    4.5668 C   0  0  0  0  0  0  0  0  0  0  0  0
    5.3175   -8.4445    3.9640 C   0  0  0  0  0  0  0  0  0  0  0  0
    4.8007   -9.2602    3.0214 C   0  0  0  0  0  0  0  0  0  0  0  0
    3.3886   -9.2713    2.4151 C   0  0  0  0  0  0  0  0  0  0  0  0
    2.1864   -8.9024    3.3465 C   0  0  2  0  0  0  0  0  0  0  0  0
    0.9818   -9.8424    3.1948 C   0  0  0  0  0  0  0  0  0  0  0  0
    1.1621  -11.3306    3.4438 C   0  0  0  0  0  0  0  0  0  0  0  0
   -0.1350   -9.2047    2.8774 C   0  0  0  0  0  0  0  0  0  0  0  0
   -1.3678   -9.7159    2.6957 O   0  0  0  0  0  0  0  0  0  0  0  0
    0.0958   -7.7687    2.7694 C   0  0  0  0  0  0  0  0  0  0  0  0
   -0.7055   -6.8656    2.5284 O   0  0  0  0  0  0  0  0  0  0  0  0
    1.5573   -7.4925    3.0538 C   0  0  1  0  0  0  0  0  0  0  0  0
    1.6281   -6.5709    4.1481 O   0  0  0  0  0  0  0  0  0  0  0  0
    2.5525   -4.4894    3.2167 C   0  0  0  0  0  0  0  0  0  0  0  0
    2.7928   -3.2961    3.7957 C   0  0  0  0  0  0  0  0  0  0  0  0
    2.5261   -1.9088    3.1885 C   0  0  2  0  0  0  0  0  0  0  0  0
    1.8128   -2.0833    1.9822 O   0  0  0  0  0  0  0  0  0  0  0  0
    3.7597   -1.0181    2.8674 C   0  0  1  0  0  0  0  0  0  0  0  0
    4.4329   -1.3826    1.6448 O   0  0  0  0  0  0  0  0  0  0  0  0
    4.4882   -0.4019    0.6177 C   0  0  0  0  0  0  0  0  0  0  0  0
    1.6793   -0.9849    4.1196 C   0  0  2  0  0  0  0  0  0  0  0  0
    0.2488    1.8173    0.9205 H   0  0  0  0  0  0  0  0  0  0  0  0
    1.7613    2.3778    1.6177 H   0  0  0  0  0  0  0  0  0  0  0  0
    0.2917    2.4302    2.5737 H   0  0  0  0  0  0  0  0  0  0  0  0
    1.5172    1.2107    4.1622 H   0  0  0  0  0  0  0  0  0  0  0  0
    3.4010    1.0911    2.1827 H   0  0  0  0  0  0  0  0  0  0  0  0
    5.2216    0.9202    4.0098 H   0  0  0  0  0  0  0  0  0  0  0  0
    4.1403    2.2660    3.8636 H   0  0  0  0  0  0  0  0  0  0  0  0
    4.5687    1.5525    6.0901 H   0  0  0  0  0  0  0  0  0  0  0  0
    2.8746    1.8311    5.7088 H   0  0  0  0  0  0  0  0  0  0  0  0
    4.2451   -0.8341    5.7902 H   0  0  0  0  0  0  0  0  0  0  0  0
    3.2333    0.6767    9.3545 H   0  0  0  0  0  0  0  0  0  0  0  0
    2.1145    1.2039    8.0838 H   0  0  0  0  0  0  0  0  0  0  0  0
    3.8095    1.7932    8.1363 H   0  0  0  0  0  0  0  0  0  0  0  0
    1.1678   -0.5357    7.5785 H   0  0  0  0  0  0  0  0  0  0  0  0
    0.0811    0.6597    5.2419 H   0  0  0  0  0  0  0  0  0  0  0  0
   -0.6109   -1.7578    7.5320 H   0  0  0  0  0  0  0  0  0  0  0  0
   -0.9691   -1.6117    5.8037 H   0  0  0  0  0  0  0  0  0  0  0  0
    0.5928   -3.6845    7.1238 H   0  0  0  0  0  0  0  0  0  0  0  0
    0.3102   -3.4703    5.3914 H   0  0  0  0  0  0  0  0  0  0  0  0
    2.5779   -2.5097    7.1350 H   0  0  0  0  0  0  0  0  0  0  0  0
    4.6441   -2.2902    5.3786 H   0  0  0  0  0  0  0  0  0  0  0  0
    4.2961   -6.3795    2.7560 H   0  0  0  0  0  0  0  0  0  0  0  0
    4.2263   -7.5085    5.5858 H   0  0  0  0  0  0  0  0  0  0  0  0
    6.3488   -8.5836    4.2578 H   0  0  0  0  0  0  0  0  0  0  0  0
    5.4594  -10.0064    2.6060 H   0  0  0  0  0  0  0  0  0  0  0  0
    3.3862   -8.6453    1.5242 H   0  0  0  0  0  0  0  0  0  0  0  0
    3.2585  -10.2813    2.0348 H   0  0  0  0  0  0  0  0  0  0  0  0
    2.4653   -8.9969    4.3950 H   0  0  0  0  0  0  0  0  0  0  0  0
    1.9661   -7.0406    2.1514 H   0  0  0  0  0  0  0  0  0  0  0  0
    1.6679  -11.4947    4.3882 H   0  0  0  0  0  0  0  0  0  0  0  0
    1.7560  -11.7845    2.6596 H   0  0  0  0  0  0  0  0  0  0  0  0
    0.2100  -11.8605    3.4836 H   0  0  0  0  0  0  0  0  0  0  0  0
   -1.3417  -10.6117    3.0136 H   0  0  0  0  0  0  0  0  0  0  0  0
    2.2308   -4.6248    2.1897 H   0  0  0  0  0  0  0  0  0  0  0  0
    1.7806   -1.2318    1.5431 H   0  0  0  0  0  0  0  0  0  0  0  0
    4.5137   -1.2677    3.6149 H   0  0  0  0  0  0  0  0  0  0  0  0
    4.9507   -0.7866   -0.2834 H   0  0  0  0  0  0  0  0  0  0  0  0
    5.0731    0.4584    0.9513 H   0  0  0  0  0  0  0  0  0  0  0  0
    3.4769   -0.0695    0.3750 H   0  0  0  0  0  0  0  0  0  0  0  0
    0.6320   -1.2912    4.0118 H   0  0  0  0  0  0  0  0  0  0  0  0
  1  2  1  0
  1 43  1  0
  1 44  1  0
  1 45  1  0
  2  3  1  0
  3 42  1  0
  3  4  1  0
  3 46  1  1
  4 39  1  0
  4  5  1  0
  4 47  1  6
  5  6  1  0
  5 48  1  0
  5 49  1  0
  6  7  1  0
  6 50  1  0
  6 51  1  0
  7  8  1  0
 10  7  1  6
  7 52  1  6
  8  9  1  0
  9 53  1  0
  9 54  1  0
  9 55  1  0
 10 15  1  0
 10 42  1  0
 10 11  1  0
 11 12  1  0
 11 13  1  0
 11 56  1  1
 12 57  1  0
 13 14  1  0
 13 58  1  0
 13 59  1  0
 14 15  1  0
 14 60  1  0
 14 61  1  0
 15 16  1  0
 15 62  1  1
 16 36  1  0
 16 17  1  6
 16 18  1  0
 17 63  1  0
 18 19  2  0
 18 20  1  0
 20 34  1  1
 20 21  1  0
 20 35  1  0
 21 22  2  3
 21 64  1  0
 22 23  1  0
 22 65  1  0
 23 24  2  3
 23 66  1  0
 24 25  1  0
 24 67  1  0
 25 68  1  0
 25 69  1  0
 25 26  1  0
 26 27  1  0
 26 70  1  1
 26 33  1  0
 27 28  1  0
 27 29  2  0
 28 72  1  0
 28 73  1  0
 28 74  1  0
 29 31  1  0
 29 30  1  0
 30 75  1  0
 31 33  1  0
 31 32  2  0
 33 34  1  0
 33 71  1  6
 35 36  2  0
 35 76  1  0
 36 37  1  0
 37 38  1  6
 37 39  1  0
 37 42  1  0
 38 77  1  0
 39 40  1  0
 39 78  1  1
 40 41  1  0
 41 79  1  0
 41 80  1  0
 41 81  1  0
 42 82  1  1
M  END
>  <i_m_ct_stereo_status>  (146) 
1

>  <s_m_source_file>  (146) 
/var/tmp/pbs.5076255.sched01/tmpco4mv84g/486h_uxm9x.sdf

>  <i_m_source_file_index>  (146) 
19

>  <i_lp_mmshare_version>  (146) 
48012

>  <i_f3d_flags>  (146) 
0

>  <s_epik_input>  (146) 
W0NIM11PW0NAQEhdMVtDSDJdW0NIMl1bQ0BASF0oW0NAQEhdMk9bQ0gzXSlbQ0BASF0oT1tDSDNdKVtDQEhdM1tDQF0yKFtPSF0pQyhbQ0BAXTQoW09IXSlbQ0BASF0oW0NAQF0xMzUpW0NIMl1bQ0gyXVtDQEBIXTVbT0hdKT1bQ0hdW0NAXTYoQzQ9TykvW0NIXT1bQ0hdL1tDSF09W0NIXVxbQ0gyXVtDQEhdN1tDQEhdKE82KUMoPU8pQyg9TylbQ0BASF03W0NIM10=

>  <s_epik_cmdline>  (146) 
J2VwaWtfcHl0aG9uJywgJy1waHQnLCAnMi4wJywgJy1waCcsICc3LjAnLCAnLXRuJywgJzgnLCAnLW1hJywgJzIwMCcsICctaW1hZScsICc8aW5maWxlLm1hZT4nLCAnLW9tYWUnLCAnPG91dGZpbGUubWFlPic=

>  <r_lp_tautomer_probability>  (146) 
0.499803

>  <r_epik_Ionization_Penalty>  (146) 
0.00187863

>  <r_epik_Ionization_Penalty_Charging>  (146) 
0

>  <r_epik_Ionization_Penalty_Neutral>  (146) 
0.00187863

>  <r_epik_State_Penalty>  (146) 
0.270233

>  <r_epik_Charging_Adjusted_Penalty>  (146) 
0.270233

>  <i_epik_Tot_Q>  (146) 
0

>  <i_epik_Tot_abs_Q>  (146) 
0

>  <s_lp_Force_Field>  (146) 
OPLS3e

>  <r_lp_Energy>  (146) 
88.6828

>  <b_lp_Chiralities_Consistent>  (146) 
1

>  <s_lp_Variant>  (146) 
40:0-1

>  <s_i_glide_gridfile>  (146) 
pfpi4k_grid

>  <i_i_glide_lignum>  (146) 
19

>  <i_i_glide_rotatable_bonds>  (146) 
7

>  <r_i_docking_score>  (146) 
-3.0288

>  <r_i_glide_ligand_efficiency>  (146) 
-0.0721144

>  <r_i_glide_ligand_efficiency_sa>  (146) 
-0.250672

>  <r_i_glide_ligand_efficiency_ln>  (146) 
-0.639303

>  <r_i_glide_gscore>  (146) 
-3.0288

>  <r_i_glide_lipo>  (146) 
-0.469688

>  <r_i_glide_hbond>  (146) 
-0.16

>  <r_i_glide_metal>  (146) 
-0

>  <r_i_glide_rewards>  (146) 
-0.5

>  <r_i_glide_evdw>  (146) 
-26.8352

>  <r_i_glide_ecoul>  (146) 
-3.39844

>  <r_i_glide_erotb>  (146) 
0

>  <r_i_glide_esite>  (146) 
-0.0475881

>  <r_i_glide_emodel>  (146) 
-30.3492

>  <r_i_glide_energy>  (146) 
-30.2337

>  <r_i_glide_einternal>  (146) 
21.7372

>  <r_i_glide_intrahb_reward>  (146) 
-0.5

>  <i_i_glide_confnum>  (146) 
2

>  <i_i_glide_posenum>  (146) 
1

>  <r_i_glide_eff_state_penalty>  (146) 
0

>  <ligand_id>  (146) 
40

>  <original_smiles>  (146) 
COC1C2CCC(OC)C34C(O)CCC3C3(O)C(=O)C5(C=CC=CCC6C(C)C(=O)C(=O)C6O5)C=C3C(O)(C2OC)C14

>  <smiles>  (146) 
[H]OC1=C(C([H])([H])[H])C2([H])C([H])([H])C([H])=C([H])C([H])=C([H])C3(OC2([H])C1=O)C(=O)C1(O[H])C(=C3[H])C2(O[H])C([H])(OC([H])([H])[H])C3([H])C([H])([H])C([H])([H])C([H])(OC([H])([H])[H])C4(C([H])(O[H])C([H])([H])C([H])([H])C14[H])C2([H])C3([H])OC([H])([H])[H]

$$$$
40:0:1
     RDKit          3D

 82 88  0  0  1  0  0  0  0  0999 V2000
   -2.1293   -9.5920    2.4362 C   0  0  0  0  0  0  0  0  0  0  0  0
   -1.2870   -8.5487    2.8422 O   0  0  0  0  0  0  0  0  0  0  0  0
   -0.3262   -8.9406    3.8257 C   0  0  2  0  0  0  0  0  0  0  0  0
   -0.6447   -8.3180    5.1885 C   0  0  1  0  0  0  0  0  0  0  0  0
   -0.2116   -9.2624    6.3287 C   0  0  0  0  0  0  0  0  0  0  0  0
    1.0079  -10.1351    6.0183 C   0  0  0  0  0  0  0  0  0  0  0  0
    2.2634   -9.3935    5.5528 C   0  0  1  0  0  0  0  0  0  0  0  0
    3.4260  -10.1693    5.8638 O   0  0  0  0  0  0  0  0  0  0  0  0
    3.8684  -10.1729    7.2157 C   0  0  0  0  0  0  0  0  0  0  0  0
    2.3078   -8.9828    4.0322 C   0  0  2  0  0  0  0  0  0  0  0  0
    2.7007  -10.2031    3.1684 C   0  0  1  0  0  0  0  0  0  0  0  0
    1.6341  -11.1056    2.9588 O   0  0  0  0  0  0  0  0  0  0  0  0
    3.3610   -9.6395    1.8951 C   0  0  0  0  0  0  0  0  0  0  0  0
    3.8788   -8.2550    2.2932 C   0  0  0  0  0  0  0  0  0  0  0  0
    3.5377   -8.0732    3.7935 C   0  0  1  0  0  0  0  0  0  0  0  0
    3.3623   -6.6037    4.2962 C   0  0  1  0  0  0  0  0  0  0  0  0
    3.4687   -6.5276    5.7080 O   0  0  0  0  0  0  0  0  0  0  0  0
    4.3788   -5.6230    3.7287 C   0  0  0  0  0  0  0  0  0  0  0  0
    5.5936   -5.8415    3.6450 O   0  0  0  0  0  0  0  0  0  0  0  0
    3.7079   -4.3401    3.2753 C   0  0  1  0  0  0  0  0  0  0  0  0
    3.8581   -3.2000    4.2654 C   0  0  0  0  0  0  0  0  0  0  0  0
    5.0386   -2.7259    4.6876 C   0  0  0  0  0  0  0  0  0  0  0  0
    5.1818   -1.3377    5.0526 C   0  0  0  0  0  0  0  0  0  0  0  0
    4.8611   -0.3335    4.2136 C   0  0  0  0  0  0  0  0  0  0  0  0
    4.3246   -0.4164    2.7722 C   0  0  0  0  0  0  0  0  0  0  0  0
    4.8371   -1.5782    1.8468 C   0  0  2  0  0  0  0  0  0  0  0  0
    5.2004   -1.1072    0.4837 C   0  0  0  0  0  0  0  0  0  0  0  0
    6.2562   -0.0886    0.3318 C   0  0  0  0  0  0  0  0  0  0  0  0
    4.5548   -1.7177   -0.5211 C   0  0  0  0  0  0  0  0  0  0  0  0
    4.7069   -1.5322   -1.8406 O   0  0  0  0  0  0  0  0  0  0  0  0
    3.6833   -2.7267    0.0281 C   0  0  0  0  0  0  0  0  0  0  0  0
    2.9965   -3.5270   -0.6091 O   0  0  0  0  0  0  0  0  0  0  0  0
    3.7881   -2.6803    1.5363 C   0  0  1  0  0  0  0  0  0  0  0  0
    4.2038   -3.9710    1.9868 O   0  0  0  0  0  0  0  0  0  0  0  0
    2.2704   -4.8128    3.2397 C   0  0  0  0  0  0  0  0  0  0  0  0
    2.0775   -5.9903    3.8128 C   0  0  0  0  0  0  0  0  0  0  0  0
    0.7946   -6.8218    3.8558 C   0  0  2  0  0  0  0  0  0  0  0  0
   -0.1524   -6.2776    2.8952 O   0  0  0  0  0  0  0  0  0  0  0  0
    0.1107   -6.9667    5.2253 C   0  0  1  0  0  0  0  0  0  0  0  0
   -0.7300   -5.8509    5.5354 O   0  0  0  0  0  0  0  0  0  0  0  0
   -0.6529   -5.4036    6.8851 C   0  0  0  0  0  0  0  0  0  0  0  0
    1.0140   -8.2929    3.4341 C   0  0  2  0  0  0  0  0  0  0  0  0
   -2.9465   -9.2926    1.7768 H   0  0  0  0  0  0  0  0  0  0  0  0
   -2.6174   -9.8751    3.3483 H   0  0  0  0  0  0  0  0  0  0  0  0
   -1.5895  -10.4298    1.9950 H   0  0  0  0  0  0  0  0  0  0  0  0
   -0.3000  -10.0277    3.8795 H   0  0  0  0  0  0  0  0  0  0  0  0
   -1.7236   -8.1690    5.2746 H   0  0  0  0  0  0  0  0  0  0  0  0
   -0.0874   -8.7247    7.2729 H   0  0  0  0  0  0  0  0  0  0  0  0
   -1.0014   -9.9646    6.5587 H   0  0  0  0  0  0  0  0  0  0  0  0
    1.2324  -10.5050    6.9873 H   0  0  0  0  0  0  0  0  0  0  0  0
    0.7888  -11.0305    5.4249 H   0  0  0  0  0  0  0  0  0  0  0  0
    2.3180   -8.5279    6.1978 H   0  0  0  0  0  0  0  0  0  0  0  0
    4.7627  -10.7885    7.2905 H   0  0  0  0  0  0  0  0  0  0  0  0
    3.1433  -10.5997    7.9073 H   0  0  0  0  0  0  0  0  0  0  0  0
    4.1240   -9.1671    7.5512 H   0  0  0  0  0  0  0  0  0  0  0  0
    3.4797  -10.8105    3.6512 H   0  0  0  0  0  0  0  0  0  0  0  0
    1.0900  -10.7632    2.2683 H   0  0  0  0  0  0  0  0  0  0  0  0
    4.1981  -10.2593    1.5846 H   0  0  0  0  0  0  0  0  0  0  0  0
    2.6736   -9.5661    1.0429 H   0  0  0  0  0  0  0  0  0  0  0  0
    4.9571   -8.1782    2.1352 H   0  0  0  0  0  0  0  0  0  0  0  0
    3.4100   -7.4905    1.6678 H   0  0  0  0  0  0  0  0  0  0  0  0
    4.3843   -8.5102    4.3285 H   0  0  0  0  0  0  0  0  0  0  0  0
    2.8857   -7.1682    6.0882 H   0  0  0  0  0  0  0  0  0  0  0  0
    2.9838   -2.5809    4.3959 H   0  0  0  0  0  0  0  0  0  0  0  0
    5.9363   -3.2844    4.4780 H   0  0  0  0  0  0  0  0  0  0  0  0
    5.5462   -1.0926    6.0399 H   0  0  0  0  0  0  0  0  0  0  0  0
    4.9768    0.6721    4.5812 H   0  0  0  0  0  0  0  0  0  0  0  0
    3.2350   -0.3911    2.7956 H   0  0  0  0  0  0  0  0  0  0  0  0
    4.6024    0.5398    2.3321 H   0  0  0  0  0  0  0  0  0  0  0  0
    5.7754   -1.9831    2.2328 H   0  0  0  0  0  0  0  0  0  0  0  0
    2.7969   -2.4136    1.9113 H   0  0  0  0  0  0  0  0  0  0  0  0
    7.1767   -0.2719    0.8408 H   0  0  0  0  0  0  0  0  0  0  0  0
    5.8973    0.8584    0.7271 H   0  0  0  0  0  0  0  0  0  0  0  0
    6.3915    0.0124   -0.7374 H   0  0  0  0  0  0  0  0  0  0  0  0
    4.0931   -2.1195   -2.2694 H   0  0  0  0  0  0  0  0  0  0  0  0
    1.5050   -4.2249    2.7627 H   0  0  0  0  0  0  0  0  0  0  0  0
   -0.6166   -7.0771    2.5712 H   0  0  0  0  0  0  0  0  0  0  0  0
    0.8861   -7.0177    5.9726 H   0  0  0  0  0  0  0  0  0  0  0  0
   -1.3325   -4.5639    7.0206 H   0  0  0  0  0  0  0  0  0  0  0  0
    0.3509   -5.0545    7.1184 H   0  0  0  0  0  0  0  0  0  0  0  0
   -0.9283   -6.1768    7.6021 H   0  0  0  0  0  0  0  0  0  0  0  0
    1.0681   -8.3434    2.3411 H   0  0  0  0  0  0  0  0  0  0  0  0
  1  2  1  0
  1 43  1  0
  1 44  1  0
  1 45  1  0
  2  3  1  0
  3 42  1  0
  3  4  1  0
  3 46  1  1
  4 39  1  0
  4  5  1  0
  4 47  1  6
  5  6  1  0
  5 48  1  0
  5 49  1  0
  6  7  1  0
  6 50  1  0
  6 51  1  0
  7  8  1  0
 10  7  1  1
  7 52  1  1
  8  9  1  0
  9 53  1  0
  9 54  1  0
  9 55  1  0
 10 15  1  0
 10 42  1  0
 10 11  1  0
 11 12  1  0
 11 13  1  0
 11 56  1  1
 12 57  1  0
 13 14  1  0
 13 58  1  0
 13 59  1  0
 14 15  1  0
 14 60  1  0
 14 61  1  0
 15 16  1  0
 15 62  1  1
 16 36  1  0
 16 17  1  1
 16 18  1  0
 17 63  1  0
 18 19  2  0
 18 20  1  0
 20 34  1  6
 20 21  1  0
 20 35  1  0
 21 22  2  3
 21 64  1  0
 22 23  1  0
 22 65  1  0
 23 24  2  3
 23 66  1  0
 24 25  1  0
 24 67  1  0
 25 68  1  0
 25 69  1  0
 25 26  1  0
 26 27  1  0
 26 70  1  1
 26 33  1  0
 27 28  1  0
 27 29  2  0
 28 72  1  0
 28 73  1  0
 28 74  1  0
 29 31  1  0
 29 30  1  0
 30 75  1  0
 31 33  1  0
 31 32  2  0
 33 34  1  0
 33 71  1  1
 35 36  2  0
 35 76  1  0
 36 37  1  0
 37 38  1  6
 37 39  1  0
 37 42  1  0
 38 77  1  0
 39 40  1  0
 39 78  1  1
 40 41  1  0
 41 79  1  0
 41 80  1  0
 41 81  1  0
 42 82  1  6
M  END
>  <i_m_ct_stereo_status>  (147) 
1

>  <s_m_source_file>  (147) 
/var/tmp/pbs.5076255.sched01/tmpco4mv84g/486h_uxm9x.sdf

>  <i_m_source_file_index>  (147) 
19

>  <i_lp_mmshare_version>  (147) 
48012

>  <i_f3d_flags>  (147) 
0

>  <s_epik_input>  (147) 
W0NIM11PW0NAQEhdMVtDSDJdW0NIMl1bQ0BASF0oW0NAQEhdMk9bQ0gzXSlbQ0BASF0oT1tDSDNdKVtDQEhdM1tDQF0yKFtPSF0pQyhbQ0BAXTQoW09IXSlbQ0BASF0oW0NAQF0xMzUpW0NIMl1bQ0gyXVtDQEBIXTVbT0hdKT1bQ0hdW0NAXTYoQzQ9TykvW0NIXT1bQ0hdL1tDSF09W0NIXVxbQ0gyXVtDQEhdN1tDQEhdKE82KUMoPU8pQyg9TylbQ0BASF03W0NIM10=

>  <s_epik_cmdline>  (147) 
J2VwaWtfcHl0aG9uJywgJy1waHQnLCAnMi4wJywgJy1waCcsICc3LjAnLCAnLXRuJywgJzgnLCAnLW1hJywgJzIwMCcsICctaW1hZScsICc8aW5maWxlLm1hZT4nLCAnLW9tYWUnLCAnPG91dGZpbGUubWFlPic=

>  <r_lp_tautomer_probability>  (147) 
0.499803

>  <r_epik_Ionization_Penalty>  (147) 
0.00187863

>  <r_epik_Ionization_Penalty_Charging>  (147) 
0

>  <r_epik_Ionization_Penalty_Neutral>  (147) 
0.00187863

>  <r_epik_State_Penalty>  (147) 
0.270233

>  <r_epik_Charging_Adjusted_Penalty>  (147) 
0.270233

>  <i_epik_Tot_Q>  (147) 
0

>  <i_epik_Tot_abs_Q>  (147) 
0

>  <s_lp_Force_Field>  (147) 
OPLS3e

>  <r_lp_Energy>  (147) 
88.6828

>  <b_lp_Chiralities_Consistent>  (147) 
1

>  <s_lp_Variant>  (147) 
40:0-1

>  <s_i_glide_gridfile>  (147) 
pfpi4k_grid

>  <i_i_glide_lignum>  (147) 
19

>  <i_i_glide_rotatable_bonds>  (147) 
7

>  <r_i_docking_score>  (147) 
-2.48312

>  <r_i_glide_ligand_efficiency>  (147) 
-0.0591218

>  <r_i_glide_ligand_efficiency_sa>  (147) 
-0.205509

>  <r_i_glide_ligand_efficiency_ln>  (147) 
-0.524122

>  <r_i_glide_gscore>  (147) 
-2.48312

>  <r_i_glide_lipo>  (147) 
-0.688211

>  <r_i_glide_hbond>  (147) 
0

>  <r_i_glide_metal>  (147) 
-0

>  <r_i_glide_rewards>  (147) 
-0.5

>  <r_i_glide_evdw>  (147) 
-15.924

>  <r_i_glide_ecoul>  (147) 
-3.19611

>  <r_i_glide_erotb>  (147) 
0

>  <r_i_glide_esite>  (147) 
-0.0192887

>  <r_i_glide_emodel>  (147) 
-25.2614

>  <r_i_glide_energy>  (147) 
-19.1201

>  <r_i_glide_einternal>  (147) 
6.36904

>  <r_i_glide_intrahb_reward>  (147) 
-0.5

>  <i_i_glide_confnum>  (147) 
1

>  <i_i_glide_posenum>  (147) 
13

>  <r_i_glide_eff_state_penalty>  (147) 
0

>  <ligand_id>  (147) 
40

>  <original_smiles>  (147) 
COC1C2CCC(OC)C34C(O)CCC3C3(O)C(=O)C5(C=CC=CCC6C(C)C(=O)C(=O)C6O5)C=C3C(O)(C2OC)C14

>  <smiles>  (147) 
[H]OC1=C(C([H])([H])[H])C2([H])C([H])([H])C([H])=C([H])C([H])=C([H])C3(OC2([H])C1=O)C(=O)C1(O[H])C(=C3[H])C2(O[H])C([H])(OC([H])([H])[H])C3([H])C([H])([H])C([H])([H])C([H])(OC([H])([H])[H])C4(C([H])(O[H])C([H])([H])C([H])([H])C14[H])C2([H])C3([H])OC([H])([H])[H]

$$$$
40:0:2
     RDKit          3D

 82 88  0  0  1  0  0  0  0  0999 V2000
    3.0464   -1.2874   -3.0226 C   0  0  0  0  0  0  0  0  0  0  0  0
    2.9637   -2.0859   -1.8406 O   0  0  0  0  0  0  0  0  0  0  0  0
    3.5103   -1.4936   -0.6579 C   0  0  2  0  0  0  0  0  0  0  0  0
    4.9425   -1.9799   -0.6389 C   0  0  1  0  0  0  0  0  0  0  0  0
    5.8550   -0.8533   -0.1830 C   0  0  0  0  0  0  0  0  0  0  0  0
    5.2884    0.1014    0.8765 C   0  0  0  0  0  0  0  0  0  0  0  0
    4.7075   -0.5547    2.1307 C   0  0  1  0  0  0  0  0  0  0  0  0
    4.7435    0.3706    3.2113 O   0  0  0  0  0  0  0  0  0  0  0  0
    5.8084    0.2472    4.1326 C   0  0  0  0  0  0  0  0  0  0  0  0
    3.2323   -1.0955    2.0040 C   0  0  2  0  0  0  0  0  0  0  0  0
    2.2052    0.0539    2.2404 C   0  0  1  0  0  0  0  0  0  0  0  0
    1.8704    0.7963    1.1371 O   0  0  0  0  0  0  0  0  0  0  0  0
    0.9140   -0.5844    2.6940 C   0  0  0  0  0  0  0  0  0  0  0  0
    1.3611   -1.8565    3.4005 C   0  0  0  0  0  0  0  0  0  0  0  0
    2.9035   -1.8893    3.2854 C   0  0  1  0  0  0  0  0  0  0  0  0
    3.5759   -3.2800    3.3769 C   0  0  1  0  0  0  0  0  0  0  0  0
    4.9537   -3.2026    3.6606 O   0  0  0  0  0  0  0  0  0  0  0  0
    2.9588   -4.2034    4.4207 C   0  0  0  0  0  0  0  0  0  0  0  0
    2.6410   -3.8540    5.5567 O   0  0  0  0  0  0  0  0  0  0  0  0
    2.7459   -5.5974    3.8388 C   0  0  1  0  0  0  0  0  0  0  0  0
    3.8127   -6.5831    4.2735 C   0  0  0  0  0  0  0  0  0  0  0  0
    4.0588   -6.8887    5.5550 C   0  0  0  0  0  0  0  0  0  0  0  0
    4.5415   -8.1985    5.9102 C   0  0  0  0  0  0  0  0  0  0  0  0
    3.8842   -9.3345    5.5995 C   0  0  0  0  0  0  0  0  0  0  0  0
    2.5463   -9.5100    4.8633 C   0  0  0  0  0  0  0  0  0  0  0  0
    1.4540   -8.4116    5.0756 C   0  0  2  0  0  0  0  0  0  0  0  0
    0.0559   -8.9320    5.3334 C   0  0  0  0  0  0  0  0  0  0  0  0
   -0.1888   -9.8996    6.4931 C   0  0  0  0  0  0  0  0  0  0  0  0
   -0.8272   -8.3875    4.4929 C   0  0  0  0  0  0  0  0  0  0  0  0
   -2.1462   -8.5934    4.3843 O   0  0  0  0  0  0  0  0  0  0  0  0
   -0.2008   -7.5289    3.5097 C   0  0  0  0  0  0  0  0  0  0  0  0
   -0.7059   -6.8714    2.5923 O   0  0  0  0  0  0  0  0  0  0  0  0
    1.2650   -7.4421    3.8550 C   0  0  1  0  0  0  0  0  0  0  0  0
    1.4679   -6.0780    4.1901 O   0  0  0  0  0  0  0  0  0  0  0  0
    2.8436   -5.2872    2.3665 C   0  0  0  0  0  0  0  0  0  0  0  0
    3.3461   -4.0717    2.1209 C   0  0  0  0  0  0  0  0  0  0  0  0
    3.5016   -3.4214    0.7575 C   0  0  2  0  0  0  0  0  0  0  0  0
    2.7935   -4.1895   -0.2087 O   0  0  0  0  0  0  0  0  0  0  0  0
    4.9660   -3.2077    0.2770 C   0  0  1  0  0  0  0  0  0  0  0  0
    5.5395   -4.3053   -0.4169 O   0  0  0  0  0  0  0  0  0  0  0  0
    5.7546   -5.4511    0.3868 C   0  0  0  0  0  0  0  0  0  0  0  0
    2.9233   -1.9939    0.7044 C   0  0  2  0  0  0  0  0  0  0  0  0
    2.4835   -1.7588   -3.8327 H   0  0  0  0  0  0  0  0  0  0  0  0
    4.0795   -1.1790   -3.3658 H   0  0  0  0  0  0  0  0  0  0  0  0
    2.6287   -0.2878   -2.8825 H   0  0  0  0  0  0  0  0  0  0  0  0
    3.4149   -0.4271   -0.7237 H   0  0  0  0  0  0  0  0  0  0  0  0
    5.2850   -2.2600   -1.6348 H   0  0  0  0  0  0  0  0  0  0  0  0
    6.8277   -1.2220    0.1325 H   0  0  0  0  0  0  0  0  0  0  0  0
    6.0178   -0.2700   -1.0794 H   0  0  0  0  0  0  0  0  0  0  0  0
    6.1903    0.5983    1.1215 H   0  0  0  0  0  0  0  0  0  0  0  0
    4.5876    0.8444    0.4811 H   0  0  0  0  0  0  0  0  0  0  0  0
    5.4230   -1.3259    2.3529 H   0  0  0  0  0  0  0  0  0  0  0  0
    5.7083    1.0157    4.8973 H   0  0  0  0  0  0  0  0  0  0  0  0
    6.7723    0.3837    3.6488 H   0  0  0  0  0  0  0  0  0  0  0  0
    5.7851   -0.7215    4.6258 H   0  0  0  0  0  0  0  0  0  0  0  0
    2.5244    0.7898    2.9925 H   0  0  0  0  0  0  0  0  0  0  0  0
    2.6341    1.2888    0.8974 H   0  0  0  0  0  0  0  0  0  0  0  0
    0.3598    0.1061    3.3315 H   0  0  0  0  0  0  0  0  0  0  0  0
    0.2908   -0.8128    1.8220 H   0  0  0  0  0  0  0  0  0  0  0  0
    1.0396   -1.8403    4.4454 H   0  0  0  0  0  0  0  0  0  0  0  0
    0.8873   -2.7109    2.9066 H   0  0  0  0  0  0  0  0  0  0  0  0
    3.2486   -1.3004    4.1343 H   0  0  0  0  0  0  0  0  0  0  0  0
    5.3638   -2.6190    3.0358 H   0  0  0  0  0  0  0  0  0  0  0  0
    4.1215   -7.2748    3.5077 H   0  0  0  0  0  0  0  0  0  0  0  0
    3.6493   -6.2719    6.3431 H   0  0  0  0  0  0  0  0  0  0  0  0
    5.4866   -8.2799    6.4216 H   0  0  0  0  0  0  0  0  0  0  0  0
    4.3455  -10.2648    5.8850 H   0  0  0  0  0  0  0  0  0  0  0  0
    2.7401   -9.6273    3.8000 H   0  0  0  0  0  0  0  0  0  0  0  0
    2.1630  -10.4775    5.1899 H   0  0  0  0  0  0  0  0  0  0  0  0
    1.6387   -7.8692    6.0016 H   0  0  0  0  0  0  0  0  0  0  0  0
    1.8002   -7.7644    2.9650 H   0  0  0  0  0  0  0  0  0  0  0  0
    0.3495   -9.5649    7.3812 H   0  0  0  0  0  0  0  0  0  0  0  0
    0.1917  -10.8928    6.2222 H   0  0  0  0  0  0  0  0  0  0  0  0
   -1.2319  -10.0101    6.8235 H   0  0  0  0  0  0  0  0  0  0  0  0
   -2.2900   -8.3953    3.4987 H   0  0  0  0  0  0  0  0  0  0  0  0
    2.5569   -5.9979    1.6066 H   0  0  0  0  0  0  0  0  0  0  0  0
    2.9736   -3.7685   -1.0460 H   0  0  0  0  0  0  0  0  0  0  0  0
    5.6155   -2.9855    1.1207 H   0  0  0  0  0  0  0  0  0  0  0  0
    6.1963   -6.2307   -0.2133 H   0  0  0  0  0  0  0  0  0  0  0  0
    4.8147   -5.8559    0.7426 H   0  0  0  0  0  0  0  0  0  0  0  0
    6.3980   -5.2180    1.2380 H   0  0  0  0  0  0  0  0  0  0  0  0
    1.8459   -2.1026    0.6145 H   0  0  0  0  0  0  0  0  0  0  0  0
  1  2  1  0
  1 43  1  0
  1 44  1  0
  1 45  1  0
  2  3  1  0
  3 42  1  0
  3  4  1  0
  3 46  1  6
  4 39  1  0
  4  5  1  0
  4 47  1  6
  5  6  1  0
  5 48  1  0
  5 49  1  0
  6  7  1  0
  6 50  1  0
  6 51  1  0
  7  8  1  0
 10  7  1  1
  7 52  1  1
  8  9  1  0
  9 53  1  0
  9 54  1  0
  9 55  1  0
 10 15  1  0
 10 42  1  0
 10 11  1  0
 11 12  1  0
 11 13  1  0
 11 56  1  1
 12 57  1  0
 13 14  1  0
 13 58  1  0
 13 59  1  0
 14 15  1  0
 14 60  1  0
 14 61  1  0
 15 16  1  0
 15 62  1  1
 16 36  1  0
 16 17  1  1
 16 18  1  0
 17 63  1  0
 18 19  2  0
 18 20  1  0
 20 34  1  6
 20 21  1  0
 20 35  1  0
 21 22  2  3
 21 64  1  0
 22 23  1  0
 22 65  1  0
 23 24  2  3
 23 66  1  0
 24 25  1  0
 24 67  1  0
 25 68  1  0
 25 69  1  0
 25 26  1  0
 26 27  1  0
 26 70  1  1
 26 33  1  0
 27 28  1  0
 27 29  2  0
 28 72  1  0
 28 73  1  0
 28 74  1  0
 29 31  1  0
 29 30  1  0
 30 75  1  0
 31 33  1  0
 31 32  2  0
 33 34  1  0
 33 71  1  6
 35 36  2  0
 35 76  1  0
 36 37  1  0
 37 38  1  6
 37 39  1  0
 37 42  1  0
 38 77  1  0
 39 40  1  0
 39 78  1  1
 40 41  1  0
 41 79  1  0
 41 80  1  0
 41 81  1  0
 42 82  1  6
M  END
>  <i_m_ct_stereo_status>  (148) 
1

>  <s_m_source_file>  (148) 
/var/tmp/pbs.5076255.sched01/tmpco4mv84g/486h_uxm9x.sdf

>  <i_m_source_file_index>  (148) 
19

>  <i_lp_mmshare_version>  (148) 
48012

>  <i_f3d_flags>  (148) 
0

>  <s_epik_input>  (148) 
W0NIM11PW0NAQEhdMVtDSDJdW0NIMl1bQ0BASF0oW0NAQEhdMk9bQ0gzXSlbQ0BASF0oT1tDSDNdKVtDQEhdM1tDQF0yKFtPSF0pQyhbQ0BAXTQoW09IXSlbQ0BASF0oW0NAQF0xMzUpW0NIMl1bQ0gyXVtDQEBIXTVbT0hdKT1bQ0hdW0NAXTYoQzQ9TykvW0NIXT1bQ0hdL1tDSF09W0NIXVxbQ0gyXVtDQEhdN1tDQEhdKE82KUMoPU8pQyg9TylbQ0BASF03W0NIM10=

>  <s_epik_cmdline>  (148) 
J2VwaWtfcHl0aG9uJywgJy1waHQnLCAnMi4wJywgJy1waCcsICc3LjAnLCAnLXRuJywgJzgnLCAnLW1hJywgJzIwMCcsICctaW1hZScsICc8aW5maWxlLm1hZT4nLCAnLW9tYWUnLCAnPG91dGZpbGUubWFlPic=

>  <r_lp_tautomer_probability>  (148) 
0.499803

>  <r_epik_Ionization_Penalty>  (148) 
0.00187863

>  <r_epik_Ionization_Penalty_Charging>  (148) 
0

>  <r_epik_Ionization_Penalty_Neutral>  (148) 
0.00187863

>  <r_epik_State_Penalty>  (148) 
0.270233

>  <r_epik_Charging_Adjusted_Penalty>  (148) 
0.270233

>  <i_epik_Tot_Q>  (148) 
0

>  <i_epik_Tot_abs_Q>  (148) 
0

>  <s_lp_Force_Field>  (148) 
OPLS3e

>  <r_lp_Energy>  (148) 
88.6828

>  <b_lp_Chiralities_Consistent>  (148) 
1

>  <s_lp_Variant>  (148) 
40:0-1

>  <s_i_glide_gridfile>  (148) 
pfpi4k_grid

>  <i_i_glide_lignum>  (148) 
19

>  <i_i_glide_rotatable_bonds>  (148) 
7

>  <r_i_docking_score>  (148) 
-2.03047

>  <r_i_glide_ligand_efficiency>  (148) 
-0.0483446

>  <r_i_glide_ligand_efficiency_sa>  (148) 
-0.168047

>  <r_i_glide_ligand_efficiency_ln>  (148) 
-0.42858

>  <r_i_glide_gscore>  (148) 
-2.03047

>  <r_i_glide_lipo>  (148) 
-0.463334

>  <r_i_glide_hbond>  (148) 
-0.179646

>  <r_i_glide_metal>  (148) 
-0

>  <r_i_glide_rewards>  (148) 
-0.5

>  <r_i_glide_evdw>  (148) 
-15.0419

>  <r_i_glide_ecoul>  (148) 
-0.592605

>  <r_i_glide_erotb>  (148) 
0

>  <r_i_glide_esite>  (148) 
-0.0465052

>  <r_i_glide_emodel>  (148) 
-19.5863

>  <r_i_glide_energy>  (148) 
-15.6345

>  <r_i_glide_einternal>  (148) 
4.77076

>  <r_i_glide_intrahb_reward>  (148) 
-0.5

>  <i_i_glide_confnum>  (148) 
2

>  <i_i_glide_posenum>  (148) 
3

>  <r_i_glide_eff_state_penalty>  (148) 
0

>  <ligand_id>  (148) 
40

>  <original_smiles>  (148) 
COC1C2CCC(OC)C34C(O)CCC3C3(O)C(=O)C5(C=CC=CCC6C(C)C(=O)C(=O)C6O5)C=C3C(O)(C2OC)C14

>  <smiles>  (148) 
[H]OC1=C(C([H])([H])[H])C2([H])C([H])([H])C([H])=C([H])C([H])=C([H])C3(OC2([H])C1=O)C(=O)C1(O[H])C(=C3[H])C2(O[H])C([H])(OC([H])([H])[H])C3([H])C([H])([H])C([H])([H])C([H])(OC([H])([H])[H])C4(C([H])(O[H])C([H])([H])C([H])([H])C14[H])C2([H])C3([H])OC([H])([H])[H]

$$$$
40:1:0
     RDKit          3D

 82 88  0  0  1  0  0  0  0  0999 V2000
    1.4062    0.9374    1.7229 C   0  0  0  0  0  0  0  0  0  0  0  0
    2.3644    0.8168    2.7601 O   0  0  0  0  0  0  0  0  0  0  0  0
    1.8546    0.9886    4.0731 C   0  0  2  0  0  0  0  0  0  0  0  0
    3.0840    1.1592    4.9871 C   0  0  1  0  0  0  0  0  0  0  0  0
    2.7981    2.1534    6.1378 C   0  0  0  0  0  0  0  0  0  0  0  0
    1.3456    2.2227    6.6598 C   0  0  0  0  0  0  0  0  0  0  0  0
    0.7322    0.8470    7.0096 C   0  0  1  0  0  0  0  0  0  0  0  0
   -0.3484    1.0632    7.9233 O   0  0  0  0  0  0  0  0  0  0  0  0
    0.0160    1.2256    9.2867 C   0  0  0  0  0  0  0  0  0  0  0  0
    0.2076   -0.0744    5.8233 C   0  0  2  0  0  0  0  0  0  0  0  0
   -1.1885    0.4009    5.3134 C   0  0  1  0  0  0  0  0  0  0  0  0
   -1.1766    1.4217    4.3369 O   0  0  0  0  0  0  0  0  0  0  0  0
   -1.9054   -0.8382    4.7687 C   0  0  0  0  0  0  0  0  0  0  0  0
   -1.2506   -2.0342    5.4694 C   0  0  0  0  0  0  0  0  0  0  0  0
   -0.1742   -1.4592    6.4210 C   0  0  1  0  0  0  0  0  0  0  0  0
    1.0200   -2.3982    6.7707 C   0  0  1  0  0  0  0  0  0  0  0  0
    1.6807   -1.9744    7.9461 O   0  0  0  0  0  0  0  0  0  0  0  0
    0.6147   -3.8479    7.0022 C   0  0  0  0  0  0  0  0  0  0  0  0
   -0.3035   -4.1948    7.7562 O   0  0  0  0  0  0  0  0  0  0  0  0
    1.4670   -4.8025    6.1865 C   0  0  1  0  0  0  0  0  0  0  0  0
    2.4993   -5.4864    7.0964 C   0  0  0  0  0  0  0  0  0  0  0  0
    2.3508   -6.5049    7.9699 C   0  0  0  0  0  0  0  0  0  0  0  0
    1.1336   -7.2409    8.2359 C   0  0  0  0  0  0  0  0  0  0  0  0
    0.6147   -8.2046    7.4550 C   0  0  0  0  0  0  0  0  0  0  0  0
    1.1995   -8.7700    6.1695 C   0  0  0  0  0  0  0  0  0  0  0  0
    0.6052   -8.0766    4.9329 C   0  0  2  0  0  0  0  0  0  0  0  0
    0.7929   -8.7341    3.5743 C   0  0  0  0  0  0  0  0  0  0  0  0
    0.7092  -10.2404    3.4101 C   0  0  0  0  0  0  0  0  0  0  0  0
    0.9679   -7.8061    2.6127 C   0  0  0  0  0  0  0  0  0  0  0  0
    1.0945   -7.9555    1.2840 O   0  0  0  0  0  0  0  0  0  0  0  0
    1.0555   -6.4907    3.2213 C   0  0  0  0  0  0  0  0  0  0  0  0
    1.0212   -5.3983    2.6544 O   0  0  0  0  0  0  0  0  0  0  0  0
    1.2320   -6.6976    4.7116 C   0  0  1  0  0  0  0  0  0  0  0  0
    0.5929   -5.6918    5.4800 O   0  0  0  0  0  0  0  0  0  0  0  0
    2.1724   -3.7982    5.2815 C   0  0  0  0  0  0  0  0  0  0  0  0
    1.9818   -2.5190    5.6132 C   0  0  0  0  0  0  0  0  0  0  0  0
    2.3990   -1.2552    4.8425 C   0  0  2  0  0  0  0  0  0  0  0  0
    2.9059   -1.6639    3.5794 O   0  0  0  0  0  0  0  0  0  0  0  0
    3.4337   -0.2907    5.4839 C   0  0  1  0  0  0  0  0  0  0  0  0
    4.7950   -0.6788    5.2956 O   0  0  0  0  0  0  0  0  0  0  0  0
    5.5859    0.1488    4.4521 C   0  0  0  0  0  0  0  0  0  0  0  0
    1.1836   -0.3094    4.5899 C   0  0  2  0  0  0  0  0  0  0  0  0
    1.9022    0.8222    0.7621 H   0  0  0  0  0  0  0  0  0  0  0  0
    0.9180    1.9134    1.7409 H   0  0  0  0  0  0  0  0  0  0  0  0
    0.6481    0.1598    1.7846 H   0  0  0  0  0  0  0  0  0  0  0  0
    1.2054    1.8623    4.0561 H   0  0  0  0  0  0  0  0  0  0  0  0
    3.8805    1.6041    4.4139 H   0  0  0  0  0  0  0  0  0  0  0  0
    3.4856    1.9678    6.9633 H   0  0  0  0  0  0  0  0  0  0  0  0
    3.0427    3.1473    5.7851 H   0  0  0  0  0  0  0  0  0  0  0  0
    1.3822    2.8527    7.5510 H   0  0  0  0  0  0  0  0  0  0  0  0
    0.6965    2.7638    5.9679 H   0  0  0  0  0  0  0  0  0  0  0  0
    1.5125    0.3374    7.5619 H   0  0  0  0  0  0  0  0  0  0  0  0
   -0.8816    1.4238    9.8693 H   0  0  0  0  0  0  0  0  0  0  0  0
    0.6974    2.0602    9.4474 H   0  0  0  0  0  0  0  0  0  0  0  0
    0.4793    0.3194    9.6778 H   0  0  0  0  0  0  0  0  0  0  0  0
   -1.8058    0.7631    6.1435 H   0  0  0  0  0  0  0  0  0  0  0  0
   -2.0390    1.4960    3.9534 H   0  0  0  0  0  0  0  0  0  0  0  0
   -2.9847   -0.7816    4.9464 H   0  0  0  0  0  0  0  0  0  0  0  0
   -1.7597   -0.9152    3.6975 H   0  0  0  0  0  0  0  0  0  0  0  0
   -1.9936   -2.6255    6.0096 H   0  0  0  0  0  0  0  0  0  0  0  0
   -0.8070   -2.6846    4.7132 H   0  0  0  0  0  0  0  0  0  0  0  0
   -0.6953   -1.2720    7.3550 H   0  0  0  0  0  0  0  0  0  0  0  0
    2.4410   -2.5245    8.0592 H   0  0  0  0  0  0  0  0  0  0  0  0
    3.4828   -5.0543    7.0461 H   0  0  0  0  0  0  0  0  0  0  0  0
    3.2220   -6.7914    8.5420 H   0  0  0  0  0  0  0  0  0  0  0  0
    0.5941   -6.9706    9.1326 H   0  0  0  0  0  0  0  0  0  0  0  0
   -0.3253   -8.6373    7.7573 H   0  0  0  0  0  0  0  0  0  0  0  0
    2.2896   -8.6944    6.1776 H   0  0  0  0  0  0  0  0  0  0  0  0
    0.9552   -9.8359    6.1609 H   0  0  0  0  0  0  0  0  0  0  0  0
   -0.4737   -7.9824    5.0667 H   0  0  0  0  0  0  0  0  0  0  0  0
    2.3078   -6.7244    4.8997 H   0  0  0  0  0  0  0  0  0  0  0  0
   -0.1925  -10.6122    3.8839 H   0  0  0  0  0  0  0  0  0  0  0  0
    1.5621  -10.6990    3.9005 H   0  0  0  0  0  0  0  0  0  0  0  0
    0.7145  -10.5356    2.3603 H   0  0  0  0  0  0  0  0  0  0  0  0
    0.8890   -8.8585    1.0622 H   0  0  0  0  0  0  0  0  0  0  0  0
    2.7398   -4.1369    4.4285 H   0  0  0  0  0  0  0  0  0  0  0  0
    2.9967   -0.8759    3.0584 H   0  0  0  0  0  0  0  0  0  0  0  0
    3.3055   -0.3586    6.5558 H   0  0  0  0  0  0  0  0  0  0  0  0
    6.5576   -0.2360    4.2800 H   0  0  0  0  0  0  0  0  0  0  0  0
    5.6622    1.1578    4.9002 H   0  0  0  0  0  0  0  0  0  0  0  0
    5.0903    0.2835    3.4769 H   0  0  0  0  0  0  0  0  0  0  0  0
    0.5943   -0.7663    3.7864 H   0  0  0  0  0  0  0  0  0  0  0  0
  1  2  1  0
  1 43  1  0
  1 44  1  0
  1 45  1  0
  2  3  1  0
  3 42  1  0
  3  4  1  0
  3 46  1  6
  4 39  1  0
  4  5  1  0
  4 47  1  6
  5  6  1  0
  5 48  1  0
  5 49  1  0
  6  7  1  0
  6 50  1  0
  6 51  1  0
  7  8  1  0
 10  7  1  1
  7 52  1  1
  8  9  1  0
  9 53  1  0
  9 54  1  0
  9 55  1  0
 10 15  1  0
 10 42  1  0
 10 11  1  0
 11 12  1  0
 11 13  1  0
 11 56  1  1
 12 57  1  0
 13 14  1  0
 13 58  1  0
 13 59  1  0
 14 15  1  0
 14 60  1  0
 14 61  1  0
 15 16  1  0
 15 62  1  1
 16 36  1  0
 16 17  1  1
 16 18  1  0
 17 63  1  0
 18 19  2  0
 18 20  1  0
 20 34  1  6
 20 21  1  0
 20 35  1  0
 21 22  2  3
 21 64  1  0
 22 23  1  0
 22 65  1  0
 23 24  2  3
 23 66  1  0
 24 25  1  0
 24 67  1  0
 25 68  1  0
 25 69  1  0
 25 26  1  0
 26 27  1  0
 26 70  1  1
 26 33  1  0
 27 28  1  0
 27 29  2  0
 28 72  1  0
 28 73  1  0
 28 74  1  0
 29 31  1  0
 29 30  1  0
 30 75  1  0
 31 33  1  0
 31 32  2  0
 33 34  1  0
 33 71  1  6
 35 36  2  0
 35 76  1  0
 36 37  1  0
 37 38  1  6
 37 39  1  0
 37 42  1  0
 38 77  1  0
 39 40  1  0
 39 78  1  1
 40 41  1  0
 41 79  1  0
 41 80  1  0
 41 81  1  0
 42 82  1  6
M  END
>  <i_m_ct_stereo_status>  (149) 
1

>  <s_m_source_file>  (149) 
/var/tmp/pbs.5076255.sched01/tmpco4mv84g/486h_uxm9x.sdf

>  <i_m_source_file_index>  (149) 
20

>  <i_lp_mmshare_version>  (149) 
48012

>  <i_f3d_flags>  (149) 
0

>  <s_epik_input>  (149) 
W0NIM11PW0NAQEhdMVtDSDJdW0NIMl1bQ0BASF0oW0NAQEhdMk9bQ0gzXSlbQ0BASF0oT1tDSDNdKVtDQEhdM1tDQF0yKFtPSF0pQyhbQ0BAXTQoW09IXSlbQ0BASF0oW0NAQF0xMzUpW0NIMl1bQ0gyXVtDQEBIXTVbT0hdKT1bQ0hdW0NAXTYoQzQ9TykvW0NIXT1bQ0hdL1tDSF09W0NIXVxbQ0gyXVtDQEhdN1tDQEhdKE82KUMoPU8pQyg9TylbQ0BASF03W0NIM10=

>  <s_epik_cmdline>  (149) 
J2VwaWtfcHl0aG9uJywgJy1waHQnLCAnMi4wJywgJy1waCcsICc3LjAnLCAnLXRuJywgJzgnLCAnLW1hJywgJzIwMCcsICctaW1hZScsICc8aW5maWxlLm1hZT4nLCAnLW9tYWUnLCAnPG91dGZpbGUubWFlPic=

>  <r_lp_tautomer_probability>  (149) 
0.499803

>  <r_epik_Ionization_Penalty>  (149) 
0.00187863

>  <r_epik_Ionization_Penalty_Charging>  (149) 
0

>  <r_epik_Ionization_Penalty_Neutral>  (149) 
0.00187863

>  <r_epik_State_Penalty>  (149) 
0.270233

>  <r_epik_Charging_Adjusted_Penalty>  (149) 
0.270233

>  <i_epik_Tot_Q>  (149) 
0

>  <i_epik_Tot_abs_Q>  (149) 
0

>  <s_lp_Force_Field>  (149) 
OPLS3e

>  <r_lp_Energy>  (149) 
76.9264

>  <b_lp_Chiralities_Consistent>  (149) 
1

>  <s_lp_Variant>  (149) 
40:0-2

>  <s_i_glide_gridfile>  (149) 
pfpi4k_grid

>  <i_i_glide_lignum>  (149) 
20

>  <i_i_glide_rotatable_bonds>  (149) 
7

>  <r_i_docking_score>  (149) 
-2.70983

>  <r_i_glide_ligand_efficiency>  (149) 
-0.0645198

>  <r_i_glide_ligand_efficiency_sa>  (149) 
-0.224273

>  <r_i_glide_ligand_efficiency_ln>  (149) 
-0.571976

>  <r_i_glide_gscore>  (149) 
-2.70983

>  <r_i_glide_lipo>  (149) 
-0.108876

>  <r_i_glide_hbond>  (149) 
-0.015047

>  <r_i_glide_metal>  (149) 
-0

>  <r_i_glide_rewards>  (149) 
-0.5

>  <r_i_glide_evdw>  (149) 
-26.7499

>  <r_i_glide_ecoul>  (149) 
-4.7606

>  <r_i_glide_erotb>  (149) 
0

>  <r_i_glide_esite>  (149) 
-0.0343245

>  <r_i_glide_emodel>  (149) 
-25.2136

>  <r_i_glide_energy>  (149) 
-31.5105

>  <r_i_glide_einternal>  (149) 
30.8427

>  <r_i_glide_intrahb_reward>  (149) 
-0.5

>  <i_i_glide_confnum>  (149) 
1

>  <i_i_glide_posenum>  (149) 
39

>  <r_i_glide_eff_state_penalty>  (149) 
0

>  <ligand_id>  (149) 
40

>  <original_smiles>  (149) 
COC1C2CCC(OC)C34C(O)CCC3C3(O)C(=O)C5(C=CC=CCC6C(C)C(=O)C(=O)C6O5)C=C3C(O)(C2OC)C14

>  <smiles>  (149) 
[H]OC1=C(C([H])([H])[H])C2([H])C([H])([H])C([H])=C([H])C([H])=C([H])C3(OC2([H])C1=O)C(=O)C1(O[H])C(=C3[H])C2(O[H])C([H])(OC([H])([H])[H])C3([H])C([H])([H])C([H])([H])C([H])(OC([H])([H])[H])C4(C([H])(O[H])C([H])([H])C([H])([H])C14[H])C2([H])C3([H])OC([H])([H])[H]

$$$$
40:1:1
     RDKit          3D

 82 88  0  0  1  0  0  0  0  0999 V2000
   -0.1904    1.3367    2.1072 C   0  0  0  0  0  0  0  0  0  0  0  0
    0.2766    0.0919    2.6270 O   0  0  0  0  0  0  0  0  0  0  0  0
    1.2590    0.2089    3.6539 C   0  0  2  0  0  0  0  0  0  0  0  0
    2.6316    0.5161    3.0428 C   0  0  1  0  0  0  0  0  0  0  0  0
    3.4105    1.5138    3.8957 C   0  0  0  0  0  0  0  0  0  0  0  0
    3.1682    1.4337    5.4085 C   0  0  0  0  0  0  0  0  0  0  0  0
    3.2433    0.0412    6.0828 C   0  0  1  0  0  0  0  0  0  0  0  0
    3.5754    0.1916    7.4812 O   0  0  0  0  0  0  0  0  0  0  0  0
    3.0485    1.2697    8.2505 C   0  0  0  0  0  0  0  0  0  0  0  0
    2.0787   -1.0293    5.8561 C   0  0  2  0  0  0  0  0  0  0  0  0
    0.9378   -0.8214    6.8952 C   0  0  1  0  0  0  0  0  0  0  0  0
    0.0176    0.1957    6.5749 O   0  0  0  0  0  0  0  0  0  0  0  0
    0.2047   -2.1480    7.0659 C   0  0  0  0  0  0  0  0  0  0  0  0
    1.2677   -3.1977    6.7278 C   0  0  0  0  0  0  0  0  0  0  0  0
    2.5601   -2.4329    6.3310 C   0  0  1  0  0  0  0  0  0  0  0  0
    3.5272   -3.1819    5.3648 C   0  0  1  0  0  0  0  0  0  0  0  0
    4.8337   -2.6517    5.3697 O   0  0  0  0  0  0  0  0  0  0  0  0
    3.6591   -4.6841    5.6547 C   0  0  0  0  0  0  0  0  0  0  0  0
    3.9060   -5.1414    6.7696 O   0  0  0  0  0  0  0  0  0  0  0  0
    3.3958   -5.5342    4.4052 C   0  0  1  0  0  0  0  0  0  0  0  0
    4.7311   -6.0623    3.8691 C   0  0  0  0  0  0  0  0  0  0  0  0
    5.5125   -7.0692    4.3036 C   0  0  0  0  0  0  0  0  0  0  0  0
    5.2399   -7.9583    5.4130 C   0  0  0  0  0  0  0  0  0  0  0  0
    4.3871   -8.9965    5.3927 C   0  0  0  0  0  0  0  0  0  0  0  0
    3.5890   -9.5086    4.2081 C   0  0  0  0  0  0  0  0  0  0  0  0
    2.1691   -8.9148    4.2287 C   0  0  2  0  0  0  0  0  0  0  0  0
    1.0917   -9.5677    3.3652 C   0  0  0  0  0  0  0  0  0  0  0  0
    1.0516  -11.0748    3.2030 C   0  0  0  0  0  0  0  0  0  0  0  0
    0.2454   -8.6738    2.8702 C   0  0  0  0  0  0  0  0  0  0  0  0
   -0.8499   -8.8665    2.1043 O   0  0  0  0  0  0  0  0  0  0  0  0
    0.7021   -7.3276    3.2068 C   0  0  0  0  0  0  0  0  0  0  0  0
    0.1246   -6.2586    3.0961 O   0  0  0  0  0  0  0  0  0  0  0  0
    2.1277   -7.4590    3.7240 C   0  0  1  0  0  0  0  0  0  0  0  0
    2.4354   -6.5323    4.7512 O   0  0  0  0  0  0  0  0  0  0  0  0
    2.8489   -4.4615    3.4872 C   0  0  0  0  0  0  0  0  0  0  0  0
    2.9711   -3.2038    3.9720 C   0  0  0  0  0  0  0  0  0  0  0  0
    2.3812   -1.9298    3.3655 C   0  0  2  0  0  0  0  0  0  0  0  0
    1.6007   -2.2694    2.2323 O   0  0  0  0  0  0  0  0  0  0  0  0
    3.3841   -0.8418    2.8903 C   0  0  1  0  0  0  0  0  0  0  0  0
    3.8311   -1.0704    1.5480 O   0  0  0  0  0  0  0  0  0  0  0  0
    4.8341   -0.1528    1.1129 C   0  0  0  0  0  0  0  0  0  0  0  0
    1.4887   -1.1446    4.3705 C   0  0  2  0  0  0  0  0  0  0  0  0
   -0.8873    1.1587    1.2861 H   0  0  0  0  0  0  0  0  0  0  0  0
    0.6069    1.9719    1.7118 H   0  0  0  0  0  0  0  0  0  0  0  0
   -0.7182    1.8992    2.8797 H   0  0  0  0  0  0  0  0  0  0  0  0
    0.8930    0.9667    4.3363 H   0  0  0  0  0  0  0  0  0  0  0  0
    2.4980    0.9680    2.0650 H   0  0  0  0  0  0  0  0  0  0  0  0
    4.4771    1.4285    3.6991 H   0  0  0  0  0  0  0  0  0  0  0  0
    3.1341    2.5231    3.6009 H   0  0  0  0  0  0  0  0  0  0  0  0
    3.9836    2.0272    5.8183 H   0  0  0  0  0  0  0  0  0  0  0  0
    2.2428    1.9406    5.6837 H   0  0  0  0  0  0  0  0  0  0  0  0
    4.1566   -0.3745    5.6641 H   0  0  0  0  0  0  0  0  0  0  0  0
    3.3180    1.0735    9.2888 H   0  0  0  0  0  0  0  0  0  0  0  0
    1.9652    1.2884    8.1703 H   0  0  0  0  0  0  0  0  0  0  0  0
    3.5101    2.2255    7.9818 H   0  0  0  0  0  0  0  0  0  0  0  0
    1.3755   -0.6127    7.8724 H   0  0  0  0  0  0  0  0  0  0  0  0
    0.5162    0.9917    6.4591 H   0  0  0  0  0  0  0  0  0  0  0  0
   -0.1145   -2.2218    8.1061 H   0  0  0  0  0  0  0  0  0  0  0  0
   -0.6932   -2.2452    6.4360 H   0  0  0  0  0  0  0  0  0  0  0  0
    1.4482   -3.8473    7.5884 H   0  0  0  0  0  0  0  0  0  0  0  0
    0.8845   -3.8167    5.9164 H   0  0  0  0  0  0  0  0  0  0  0  0
    3.1074   -2.2833    7.2564 H   0  0  0  0  0  0  0  0  0  0  0  0
    4.7941   -1.7292    5.1743 H   0  0  0  0  0  0  0  0  0  0  0  0
    5.1015   -5.5032    3.0315 H   0  0  0  0  0  0  0  0  0  0  0  0
    6.4417   -7.2227    3.7764 H   0  0  0  0  0  0  0  0  0  0  0  0
    5.7473   -7.7344    6.3436 H   0  0  0  0  0  0  0  0  0  0  0  0
    4.2491   -9.5300    6.3185 H   0  0  0  0  0  0  0  0  0  0  0  0
    4.0916   -9.2879    3.2713 H   0  0  0  0  0  0  0  0  0  0  0  0
    3.5502  -10.5911    4.3032 H   0  0  0  0  0  0  0  0  0  0  0  0
    1.7737   -8.9764    5.2511 H   0  0  0  0  0  0  0  0  0  0  0  0
    2.7997   -7.3510    2.8735 H   0  0  0  0  0  0  0  0  0  0  0  0
    1.0461  -11.5549    4.1824 H   0  0  0  0  0  0  0  0  0  0  0  0
    1.9483  -11.3854    2.6681 H   0  0  0  0  0  0  0  0  0  0  0  0
    0.1908  -11.4031    2.6214 H   0  0  0  0  0  0  0  0  0  0  0  0
   -0.8881   -9.7914    1.9015 H   0  0  0  0  0  0  0  0  0  0  0  0
    2.3877   -4.7078    2.5419 H   0  0  0  0  0  0  0  0  0  0  0  0
    1.5316   -1.4793    1.7097 H   0  0  0  0  0  0  0  0  0  0  0  0
    4.2723   -0.8802    3.5308 H   0  0  0  0  0  0  0  0  0  0  0  0
    5.0667   -0.3147    0.0564 H   0  0  0  0  0  0  0  0  0  0  0  0
    5.7473   -0.2800    1.7040 H   0  0  0  0  0  0  0  0  0  0  0  0
    4.4974    0.8759    1.1942 H   0  0  0  0  0  0  0  0  0  0  0  0
    0.5275   -1.6568    4.4135 H   0  0  0  0  0  0  0  0  0  0  0  0
  1  2  1  0
  1 43  1  0
  1 44  1  0
  1 45  1  0
  2  3  1  0
  3 42  1  0
  3  4  1  0
  3 46  1  1
  4 39  1  0
  4  5  1  0
  4 47  1  6
  5  6  1  0
  5 48  1  0
  5 49  1  0
  6  7  1  0
  6 50  1  0
  6 51  1  0
  7  8  1  0
 10  7  1  6
  7 52  1  6
  8  9  1  0
  9 53  1  0
  9 54  1  0
  9 55  1  0
 10 15  1  0
 10 42  1  0
 10 11  1  0
 11 12  1  0
 11 13  1  0
 11 56  1  1
 12 57  1  0
 13 14  1  0
 13 58  1  0
 13 59  1  0
 14 15  1  0
 14 60  1  0
 14 61  1  0
 15 16  1  0
 15 62  1  1
 16 36  1  0
 16 17  1  6
 16 18  1  0
 17 63  1  0
 18 19  2  0
 18 20  1  0
 20 34  1  1
 20 21  1  0
 20 35  1  0
 21 22  2  3
 21 64  1  0
 22 23  1  0
 22 65  1  0
 23 24  2  3
 23 66  1  0
 24 25  1  0
 24 67  1  0
 25 68  1  0
 25 69  1  0
 25 26  1  0
 26 27  1  0
 26 70  1  1
 26 33  1  0
 27 28  1  0
 27 29  2  0
 28 72  1  0
 28 73  1  0
 28 74  1  0
 29 31  1  0
 29 30  1  0
 30 75  1  0
 31 33  1  0
 31 32  2  0
 33 34  1  0
 33 71  1  6
 35 36  2  0
 35 76  1  0
 36 37  1  0
 37 38  1  6
 37 39  1  0
 37 42  1  0
 38 77  1  0
 39 40  1  0
 39 78  1  1
 40 41  1  0
 41 79  1  0
 41 80  1  0
 41 81  1  0
 42 82  1  1
M  END
>  <i_m_ct_stereo_status>  (150) 
1

>  <s_m_source_file>  (150) 
/var/tmp/pbs.5076255.sched01/tmpco4mv84g/486h_uxm9x.sdf

>  <i_m_source_file_index>  (150) 
20

>  <i_lp_mmshare_version>  (150) 
48012

>  <i_f3d_flags>  (150) 
0

>  <s_epik_input>  (150) 
W0NIM11PW0NAQEhdMVtDSDJdW0NIMl1bQ0BASF0oW0NAQEhdMk9bQ0gzXSlbQ0BASF0oT1tDSDNdKVtDQEhdM1tDQF0yKFtPSF0pQyhbQ0BAXTQoW09IXSlbQ0BASF0oW0NAQF0xMzUpW0NIMl1bQ0gyXVtDQEBIXTVbT0hdKT1bQ0hdW0NAXTYoQzQ9TykvW0NIXT1bQ0hdL1tDSF09W0NIXVxbQ0gyXVtDQEhdN1tDQEhdKE82KUMoPU8pQyg9TylbQ0BASF03W0NIM10=

>  <s_epik_cmdline>  (150) 
J2VwaWtfcHl0aG9uJywgJy1waHQnLCAnMi4wJywgJy1waCcsICc3LjAnLCAnLXRuJywgJzgnLCAnLW1hJywgJzIwMCcsICctaW1hZScsICc8aW5maWxlLm1hZT4nLCAnLW9tYWUnLCAnPG91dGZpbGUubWFlPic=

>  <r_lp_tautomer_probability>  (150) 
0.499803

>  <r_epik_Ionization_Penalty>  (150) 
0.00187863

>  <r_epik_Ionization_Penalty_Charging>  (150) 
0

>  <r_epik_Ionization_Penalty_Neutral>  (150) 
0.00187863

>  <r_epik_State_Penalty>  (150) 
0.270233

>  <r_epik_Charging_Adjusted_Penalty>  (150) 
0.270233

>  <i_epik_Tot_Q>  (150) 
0

>  <i_epik_Tot_abs_Q>  (150) 
0

>  <s_lp_Force_Field>  (150) 
OPLS3e

>  <r_lp_Energy>  (150) 
76.9264

>  <b_lp_Chiralities_Consistent>  (150) 
1

>  <s_lp_Variant>  (150) 
40:0-2

>  <s_i_glide_gridfile>  (150) 
pfpi4k_grid

>  <i_i_glide_lignum>  (150) 
20

>  <i_i_glide_rotatable_bonds>  (150) 
7

>  <r_i_docking_score>  (150) 
-1.93659

>  <r_i_glide_ligand_efficiency>  (150) 
-0.0461094

>  <r_i_glide_ligand_efficiency_sa>  (150) 
-0.160277

>  <r_i_glide_ligand_efficiency_ln>  (150) 
-0.408765

>  <r_i_glide_gscore>  (150) 
-1.93659

>  <r_i_glide_lipo>  (150) 
-0.321307

>  <r_i_glide_hbond>  (150) 
-0.123779

>  <r_i_glide_metal>  (150) 
-0

>  <r_i_glide_rewards>  (150) 
0

>  <r_i_glide_evdw>  (150) 
-23.2674

>  <r_i_glide_ecoul>  (150) 
-1.98422

>  <r_i_glide_erotb>  (150) 
0

>  <r_i_glide_esite>  (150) 
-0.0305046

>  <r_i_glide_emodel>  (150) 
-24.5827

>  <r_i_glide_energy>  (150) 
-25.2516

>  <r_i_glide_einternal>  (150) 
8.34305

>  <r_i_glide_intrahb_reward>  (150) 
-0

>  <i_i_glide_confnum>  (150) 
2

>  <i_i_glide_posenum>  (150) 
5

>  <r_i_glide_eff_state_penalty>  (150) 
0

>  <ligand_id>  (150) 
40

>  <original_smiles>  (150) 
COC1C2CCC(OC)C34C(O)CCC3C3(O)C(=O)C5(C=CC=CCC6C(C)C(=O)C(=O)C6O5)C=C3C(O)(C2OC)C14

>  <smiles>  (150) 
[H]OC1=C(C([H])([H])[H])C2([H])C([H])([H])C([H])=C([H])C([H])=C([H])C3(OC2([H])C1=O)C(=O)C1(O[H])C(=C3[H])C2(O[H])C([H])(OC([H])([H])[H])C3([H])C([H])([H])C([H])([H])C([H])(OC([H])([H])[H])C4(C([H])(O[H])C([H])([H])C([H])([H])C14[H])C2([H])C3([H])OC([H])([H])[H]

$$$$
40:1:2
     RDKit          3D

 82 88  0  0  1  0  0  0  0  0999 V2000
   -0.6069    1.2737    1.9587 C   0  0  0  0  0  0  0  0  0  0  0  0
   -0.4828    0.6417    3.2314 O   0  0  0  0  0  0  0  0  0  0  0  0
    0.6990    0.9146    3.9921 C   0  0  2  0  0  0  0  0  0  0  0  0
    1.8301    1.5520    3.1619 C   0  0  1  0  0  0  0  0  0  0  0  0
    2.5752    2.6354    3.9899 C   0  0  0  0  0  0  0  0  0  0  0  0
    2.7284    2.3938    5.5154 C   0  0  0  0  0  0  0  0  0  0  0  0
    3.2732    0.9929    5.8618 C   0  0  1  0  0  0  0  0  0  0  0  0
    3.8810    1.0705    7.1517 O   0  0  0  0  0  0  0  0  0  0  0  0
    5.2225    1.5361    7.1774 C   0  0  0  0  0  0  0  0  0  0  0  0
    2.2645   -0.2365    5.8372 C   0  0  2  0  0  0  0  0  0  0  0  0
    1.4052   -0.2866    7.1381 C   0  0  1  0  0  0  0  0  0  0  0  0
    0.2471    0.5210    7.1256 O   0  0  0  0  0  0  0  0  0  0  0  0
    1.0419   -1.7518    7.3839 C   0  0  0  0  0  0  0  0  0  0  0  0
    2.1237   -2.5616    6.6711 C   0  0  0  0  0  0  0  0  0  0  0  0
    3.1022   -1.5428    6.0421 C   0  0  1  0  0  0  0  0  0  0  0  0
    3.8973   -2.0351    4.7922 C   0  0  1  0  0  0  0  0  0  0  0  0
    5.0298   -1.2288    4.5312 O   0  0  0  0  0  0  0  0  0  0  0  0
    4.3958   -3.4751    4.8811 C   0  0  0  0  0  0  0  0  0  0  0  0
    5.0317   -3.9235    5.8329 O   0  0  0  0  0  0  0  0  0  0  0  0
    4.0019   -4.2836    3.6532 C   0  0  1  0  0  0  0  0  0  0  0  0
    5.2198   -4.4710    2.7385 C   0  0  0  0  0  0  0  0  0  0  0  0
    6.2644   -5.3185    2.8504 C   0  0  0  0  0  0  0  0  0  0  0  0
    6.4707   -6.2954    3.8943 C   0  0  0  0  0  0  0  0  0  0  0  0
    5.8652   -7.4932    3.9715 C   0  0  0  0  0  0  0  0  0  0  0  0
    4.8912   -8.0903    2.9648 C   0  0  0  0  0  0  0  0  0  0  0  0
    3.4338   -7.8318    3.3773 C   0  0  2  0  0  0  0  0  0  0  0  0
    2.3441   -8.6440    2.7212 C   0  0  0  0  0  0  0  0  0  0  0  0
    2.5308  -10.1128    2.4154 C   0  0  0  0  0  0  0  0  0  0  0  0
    1.2181   -7.9058    2.5561 C   0  0  0  0  0  0  0  0  0  0  0  0
    0.0250   -8.2946    2.0759 O   0  0  0  0  0  0  0  0  0  0  0  0
    1.4961   -6.5262    2.9321 C   0  0  0  0  0  0  0  0  0  0  0  0
    0.6915   -5.6046    3.0844 O   0  0  0  0  0  0  0  0  0  0  0  0
    2.9976   -6.3935    3.0661 C   0  0  1  0  0  0  0  0  0  0  0  0
    3.3745   -5.4948    4.0911 O   0  0  0  0  0  0  0  0  0  0  0  0
    3.0294   -3.3084    3.0173 C   0  0  0  0  0  0  0  0  0  0  0  0
    3.0028   -2.1049    3.5909 C   0  0  0  0  0  0  0  0  0  0  0  0
    2.0781   -0.9287    3.2793 C   0  0  2  0  0  0  0  0  0  0  0  0
    1.1160   -1.4087    2.3506 O   0  0  0  0  0  0  0  0  0  0  0  0
    2.7369    0.3650    2.7131 C   0  0  1  0  0  0  0  0  0  0  0  0
    2.7819    0.3700    1.2968 O   0  0  0  0  0  0  0  0  0  0  0  0
    3.7752   -0.4567    0.7162 C   0  0  0  0  0  0  0  0  0  0  0  0
    1.3386   -0.3971    4.5367 C   0  0  2  0  0  0  0  0  0  0  0  0
   -1.5320    1.0239    1.4783 H   0  0  0  0  0  0  0  0  0  0  0  0
    0.2293    0.9638    1.3082 H   0  0  0  0  0  0  0  0  0  0  0  0
   -0.5139    2.3673    2.0483 H   0  0  0  0  0  0  0  0  0  0  0  0
    0.3451    1.5550    4.7930 H   0  0  0  0  0  0  0  0  0  0  0  0
    1.4380    2.0510    2.2786 H   0  0  0  0  0  0  0  0  0  0  0  0
    3.5487    2.8642    3.5556 H   0  0  0  0  0  0  0  0  0  0  0  0
    2.0041    3.5504    3.9184 H   0  0  0  0  0  0  0  0  0  0  0  0
    3.4312    3.1557    5.8694 H   0  0  0  0  0  0  0  0  0  0  0  0
    1.8089    2.5949    6.0751 H   0  0  0  0  0  0  0  0  0  0  0  0
    4.0775    0.8353    5.1540 H   0  0  0  0  0  0  0  0  0  0  0  0
    5.5537    1.5767    8.2125 H   0  0  0  0  0  0  0  0  0  0  0  0
    5.3292    2.5372    6.7612 H   0  0  0  0  0  0  0  0  0  0  0  0
    5.8871    0.8601    6.6381 H   0  0  0  0  0  0  0  0  0  0  0  0
    2.0005    0.0230    8.0064 H   0  0  0  0  0  0  0  0  0  0  0  0
    0.5292    1.4219    7.1093 H   0  0  0  0  0  0  0  0  0  0  0  0
    1.0086   -1.9661    8.4530 H   0  0  0  0  0  0  0  0  0  0  0  0
    0.0582   -1.9962    6.9752 H   0  0  0  0  0  0  0  0  0  0  0  0
    2.6363   -3.2258    7.3688 H   0  0  0  0  0  0  0  0  0  0  0  0
    1.6557   -3.1989    5.9173 H   0  0  0  0  0  0  0  0  0  0  0  0
    3.8321   -1.3511    6.8283 H   0  0  0  0  0  0  0  0  0  0  0  0
    4.7564   -0.3303    4.4523 H   0  0  0  0  0  0  0  0  0  0  0  0
    5.2581   -3.7858    1.9122 H   0  0  0  0  0  0  0  0  0  0  0  0
    7.0453   -5.2316    2.1097 H   0  0  0  0  0  0  0  0  0  0  0  0
    7.1514   -6.0191    4.6879 H   0  0  0  0  0  0  0  0  0  0  0  0
    6.0770   -8.0977    4.8391 H   0  0  0  0  0  0  0  0  0  0  0  0
    5.0952   -7.7079    1.9614 H   0  0  0  0  0  0  0  0  0  0  0  0
    5.0966   -9.1646    2.9441 H   0  0  0  0  0  0  0  0  0  0  0  0
    3.3386   -8.0211    4.4470 H   0  0  0  0  0  0  0  0  0  0  0  0
    3.3902   -6.0809    2.0957 H   0  0  0  0  0  0  0  0  0  0  0  0
    2.8928  -10.6301    3.2980 H   0  0  0  0  0  0  0  0  0  0  0  0
    3.2723  -10.2198    1.6288 H   0  0  0  0  0  0  0  0  0  0  0  0
    1.6012  -10.5777    2.0827 H   0  0  0  0  0  0  0  0  0  0  0  0
    0.0948   -9.1921    1.7871 H   0  0  0  0  0  0  0  0  0  0  0  0
    2.4174   -3.6041    2.1824 H   0  0  0  0  0  0  0  0  0  0  0  0
    1.3128   -1.0175    1.5079 H   0  0  0  0  0  0  0  0  0  0  0  0
    3.7607    0.4698    3.0871 H   0  0  0  0  0  0  0  0  0  0  0  0
    3.8203   -0.2771   -0.3548 H   0  0  0  0  0  0  0  0  0  0  0  0
    3.5356   -1.5075    0.8635 H   0  0  0  0  0  0  0  0  0  0  0  0
    4.7596   -0.2456    1.1341 H   0  0  0  0  0  0  0  0  0  0  0  0
    0.5244   -1.0889    4.7765 H   0  0  0  0  0  0  0  0  0  0  0  0
  1  2  1  0
  1 43  1  0
  1 44  1  0
  1 45  1  0
  2  3  1  0
  3 42  1  0
  3  4  1  0
  3 46  1  1
  4 39  1  0
  4  5  1  0
  4 47  1  6
  5  6  1  0
  5 48  1  0
  5 49  1  0
  6  7  1  0
  6 50  1  0
  6 51  1  0
  7  8  1  0
 10  7  1  6
  7 52  1  6
  8  9  1  0
  9 53  1  0
  9 54  1  0
  9 55  1  0
 10 15  1  0
 10 42  1  0
 10 11  1  0
 11 12  1  0
 11 13  1  0
 11 56  1  1
 12 57  1  0
 13 14  1  0
 13 58  1  0
 13 59  1  0
 14 15  1  0
 14 60  1  0
 14 61  1  0
 15 16  1  0
 15 62  1  1
 16 36  1  0
 16 17  1  6
 16 18  1  0
 17 63  1  0
 18 19  2  0
 18 20  1  0
 20 34  1  1
 20 21  1  0
 20 35  1  0
 21 22  2  3
 21 64  1  0
 22 23  1  0
 22 65  1  0
 23 24  2  3
 23 66  1  0
 24 25  1  0
 24 67  1  0
 25 68  1  0
 25 69  1  0
 25 26  1  0
 26 27  1  0
 26 70  1  1
 26 33  1  0
 27 28  1  0
 27 29  2  0
 28 72  1  0
 28 73  1  0
 28 74  1  0
 29 31  1  0
 29 30  1  0
 30 75  1  0
 31 33  1  0
 31 32  2  0
 33 34  1  0
 33 71  1  6
 35 36  2  0
 35 76  1  0
 36 37  1  0
 37 38  1  6
 37 39  1  0
 37 42  1  0
 38 77  1  0
 39 40  1  0
 39 78  1  1
 40 41  1  0
 41 79  1  0
 41 80  1  0
 41 81  1  0
 42 82  1  1
M  END
>  <i_m_ct_stereo_status>  (151) 
1

>  <s_m_source_file>  (151) 
/var/tmp/pbs.5076255.sched01/tmpco4mv84g/486h_uxm9x.sdf

>  <i_m_source_file_index>  (151) 
20

>  <i_lp_mmshare_version>  (151) 
48012

>  <i_f3d_flags>  (151) 
0

>  <s_epik_input>  (151) 
W0NIM11PW0NAQEhdMVtDSDJdW0NIMl1bQ0BASF0oW0NAQEhdMk9bQ0gzXSlbQ0BASF0oT1tDSDNdKVtDQEhdM1tDQF0yKFtPSF0pQyhbQ0BAXTQoW09IXSlbQ0BASF0oW0NAQF0xMzUpW0NIMl1bQ0gyXVtDQEBIXTVbT0hdKT1bQ0hdW0NAXTYoQzQ9TykvW0NIXT1bQ0hdL1tDSF09W0NIXVxbQ0gyXVtDQEhdN1tDQEhdKE82KUMoPU8pQyg9TylbQ0BASF03W0NIM10=

>  <s_epik_cmdline>  (151) 
J2VwaWtfcHl0aG9uJywgJy1waHQnLCAnMi4wJywgJy1waCcsICc3LjAnLCAnLXRuJywgJzgnLCAnLW1hJywgJzIwMCcsICctaW1hZScsICc8aW5maWxlLm1hZT4nLCAnLW9tYWUnLCAnPG91dGZpbGUubWFlPic=

>  <r_lp_tautomer_probability>  (151) 
0.499803

>  <r_epik_Ionization_Penalty>  (151) 
0.00187863

>  <r_epik_Ionization_Penalty_Charging>  (151) 
0

>  <r_epik_Ionization_Penalty_Neutral>  (151) 
0.00187863

>  <r_epik_State_Penalty>  (151) 
0.270233

>  <r_epik_Charging_Adjusted_Penalty>  (151) 
0.270233

>  <i_epik_Tot_Q>  (151) 
0

>  <i_epik_Tot_abs_Q>  (151) 
0

>  <s_lp_Force_Field>  (151) 
OPLS3e

>  <r_lp_Energy>  (151) 
76.9264

>  <b_lp_Chiralities_Consistent>  (151) 
1

>  <s_lp_Variant>  (151) 
40:0-2

>  <s_i_glide_gridfile>  (151) 
pfpi4k_grid

>  <i_i_glide_lignum>  (151) 
20

>  <i_i_glide_rotatable_bonds>  (151) 
7

>  <r_i_docking_score>  (151) 
-1.80823

>  <r_i_glide_ligand_efficiency>  (151) 
-0.0430531

>  <r_i_glide_ligand_efficiency_sa>  (151) 
-0.149654

>  <r_i_glide_ligand_efficiency_ln>  (151) 
-0.381671

>  <r_i_glide_gscore>  (151) 
-1.80823

>  <r_i_glide_lipo>  (151) 
-0.0512952

>  <r_i_glide_hbond>  (151) 
-0.024716

>  <r_i_glide_metal>  (151) 
-0

>  <r_i_glide_rewards>  (151) 
-0.00911248

>  <r_i_glide_evdw>  (151) 
-25.0093

>  <r_i_glide_ecoul>  (151) 
-3.00406

>  <r_i_glide_erotb>  (151) 
0

>  <r_i_glide_esite>  (151) 
-0.0220336

>  <r_i_glide_emodel>  (151) 
-16.0173

>  <r_i_glide_energy>  (151) 
-28.0133

>  <r_i_glide_einternal>  (151) 
29.2613

>  <r_i_glide_intrahb_reward>  (151) 
-0

>  <i_i_glide_confnum>  (151) 
1

>  <i_i_glide_posenum>  (151) 
21

>  <r_i_glide_eff_state_penalty>  (151) 
0

>  <ligand_id>  (151) 
40

>  <original_smiles>  (151) 
COC1C2CCC(OC)C34C(O)CCC3C3(O)C(=O)C5(C=CC=CCC6C(C)C(=O)C(=O)C6O5)C=C3C(O)(C2OC)C14

>  <smiles>  (151) 
[H]OC1=C(C([H])([H])[H])C2([H])C([H])([H])C([H])=C([H])C([H])=C([H])C3(OC2([H])C1=O)C(=O)C1(O[H])C(=C3[H])C2(O[H])C([H])(OC([H])([H])[H])C3([H])C([H])([H])C([H])([H])C([H])(OC([H])([H])[H])C4(C([H])(O[H])C([H])([H])C([H])([H])C14[H])C2([H])C3([H])OC([H])([H])[H]

$$$$
40:2:0
     RDKit          3D

 82 88  0  0  1  0  0  0  0  0999 V2000
    0.7056    1.9027    1.7188 C   0  0  0  0  0  0  0  0  0  0  0  0
    0.9853    0.5772    2.1542 O   0  0  0  0  0  0  0  0  0  0  0  0
    1.6898    0.5109    3.3818 C   0  0  2  0  0  0  0  0  0  0  0  0
    3.1938    0.6261    3.0624 C   0  0  1  0  0  0  0  0  0  0  0  0
    3.9458    1.3797    4.1670 C   0  0  0  0  0  0  0  0  0  0  0  0
    3.3668    1.2897    5.5674 C   0  0  0  0  0  0  0  0  0  0  0  0
    3.0552   -0.1202    6.1143 C   0  0  1  0  0  0  0  0  0  0  0  0
    3.1038   -0.1001    7.5525 O   0  0  0  0  0  0  0  0  0  0  0  0
    2.5863    1.0305    8.2718 C   0  0  0  0  0  0  0  0  0  0  0  0
    1.8018   -0.9465    5.5655 C   0  0  2  0  0  0  0  0  0  0  0  0
    0.4968   -0.5708    6.3330 C   0  0  1  0  0  0  0  0  0  0  0  0
   -0.1363    0.6445    5.9281 O   0  0  0  0  0  0  0  0  0  0  0  0
   -0.4631   -1.7482    6.2268 C   0  0  0  0  0  0  0  0  0  0  0  0
    0.4557   -2.9632    6.0472 C   0  0  0  0  0  0  0  0  0  0  0  0
    1.9206   -2.4422    6.0091 C   0  0  1  0  0  0  0  0  0  0  0  0
    2.9396   -3.3189    5.2156 C   0  0  1  0  0  0  0  0  0  0  0  0
    4.2846   -3.0190    5.5477 O   0  0  0  0  0  0  0  0  0  0  0  0
    2.7463   -4.8217    5.3679 C   0  0  0  0  0  0  0  0  0  0  0  0
    2.5714   -5.3859    6.4766 O   0  0  0  0  0  0  0  0  0  0  0  0
    2.7495   -5.5556    4.0421 C   0  0  1  0  0  0  0  0  0  0  0  0
    4.0500   -6.3098    3.8516 C   0  0  0  0  0  0  0  0  0  0  0  0
    4.7666   -6.3262    2.7144 C   0  0  0  0  0  0  0  0  0  0  0  0
    5.0036   -7.6734    2.2525 C   0  0  0  0  0  0  0  0  0  0  0  0
    4.0520   -8.0714    1.3941 C   0  0  0  0  0  0  0  0  0  0  0  0
    3.0797   -9.1795    1.7520 C   0  0  0  0  0  0  0  0  0  0  0  0
    2.1555   -8.7608    2.9368 C   0  0  2  0  0  0  0  0  0  0  0  0
    0.9398   -9.6571    3.0530 C   0  0  0  0  0  0  0  0  0  0  0  0
    1.1361  -11.1402    3.3495 C   0  0  0  0  0  0  0  0  0  0  0  0
   -0.2025   -8.9944    2.8682 C   0  0  0  0  0  0  0  0  0  0  0  0
   -1.4592   -9.4567    2.9186 O   0  0  0  0  0  0  0  0  0  0  0  0
    0.0490   -7.5830    2.6431 C   0  0  0  0  0  0  0  0  0  0  0  0
   -0.7476   -6.6693    2.4303 O   0  0  0  0  0  0  0  0  0  0  0  0
    1.5357   -7.3013    2.8122 C   0  0  1  0  0  0  0  0  0  0  0  0
    1.6474   -6.4715    3.9740 O   0  0  0  0  0  0  0  0  0  0  0  0
    2.5858   -4.3554    3.1191 C   0  0  0  0  0  0  0  0  0  0  0  0
    2.7355   -3.1695    3.7270 C   0  0  0  0  0  0  0  0  0  0  0  0
    2.4529   -1.7861    3.1262 C   0  0  2  0  0  0  0  0  0  0  0  0
    1.7835   -2.0222    1.9214 O   0  0  0  0  0  0  0  0  0  0  0  0
    3.6697   -0.8469    2.8520 C   0  0  1  0  0  0  0  0  0  0  0  0
    4.4123   -1.0892    1.6474 O   0  0  0  0  0  0  0  0  0  0  0  0
    3.9935   -0.5102    0.4061 C   0  0  0  0  0  0  0  0  0  0  0  0
    1.5246   -0.8923    4.0043 C   0  0  2  0  0  0  0  0  0  0  0  0
    0.1965    1.8664    0.7591 H   0  0  0  0  0  0  0  0  0  0  0  0
    1.6004    2.5168    1.6069 H   0  0  0  0  0  0  0  0  0  0  0  0
    0.0400    2.4029    2.4218 H   0  0  0  0  0  0  0  0  0  0  0  0
    1.3077    1.2991    4.0210 H   0  0  0  0  0  0  0  0  0  0  0  0
    3.3557    1.2453    2.1793 H   0  0  0  0  0  0  0  0  0  0  0  0
    5.0117    1.1419    4.1607 H   0  0  0  0  0  0  0  0  0  0  0  0
    3.8828    2.4366    3.9256 H   0  0  0  0  0  0  0  0  0  0  0  0
    4.1591    1.7213    6.1814 H   0  0  0  0  0  0  0  0  0  0  0  0
    2.4947    1.9396    5.6703 H   0  0  0  0  0  0  0  0  0  0  0  0
    3.9549   -0.6733    5.8451 H   0  0  0  0  0  0  0  0  0  0  0  0
    2.5869    0.7638    9.3321 H   0  0  0  0  0  0  0  0  0  0  0  0
    1.5683    1.2621    7.9642 H   0  0  0  0  0  0  0  0  0  0  0  0
    3.2229    1.9149    8.1710 H   0  0  0  0  0  0  0  0  0  0  0  0
    0.7256   -0.5231    7.3952 H   0  0  0  0  0  0  0  0  0  0  0  0
   -0.2052    0.6717    5.0021 H   0  0  0  0  0  0  0  0  0  0  0  0
   -0.9910   -1.8090    7.1722 H   0  0  0  0  0  0  0  0  0  0  0  0
   -1.1993   -1.6472    5.4226 H   0  0  0  0  0  0  0  0  0  0  0  0
    0.3242   -3.6690    6.8696 H   0  0  0  0  0  0  0  0  0  0  0  0
    0.1690   -3.4597    5.1195 H   0  0  0  0  0  0  0  0  0  0  0  0
    2.2574   -2.4271    7.0483 H   0  0  0  0  0  0  0  0  0  0  0  0
    4.4383   -2.1135    5.4170 H   0  0  0  0  0  0  0  0  0  0  0  0
    4.1333   -7.1529    4.5244 H   0  0  0  0  0  0  0  0  0  0  0  0
    4.6268   -5.5754    1.9567 H   0  0  0  0  0  0  0  0  0  0  0  0
    5.3461   -8.3645    3.0020 H   0  0  0  0  0  0  0  0  0  0  0  0
    3.5888   -7.3133    0.7855 H   0  0  0  0  0  0  0  0  0  0  0  0
    2.4823   -9.4073    0.8670 H   0  0  0  0  0  0  0  0  0  0  0  0
    3.6304  -10.0870    1.9970 H   0  0  0  0  0  0  0  0  0  0  0  0
    2.7065   -8.8331    3.8716 H   0  0  0  0  0  0  0  0  0  0  0  0
    1.8469   -6.7728    1.9310 H   0  0  0  0  0  0  0  0  0  0  0  0
    1.6981  -11.2579    4.2710 H   0  0  0  0  0  0  0  0  0  0  0  0
    1.7182  -11.5873    2.5545 H   0  0  0  0  0  0  0  0  0  0  0  0
    0.1858  -11.6687    3.4453 H   0  0  0  0  0  0  0  0  0  0  0  0
   -1.4491  -10.2887    3.3809 H   0  0  0  0  0  0  0  0  0  0  0  0
    2.3339   -4.4839    2.0803 H   0  0  0  0  0  0  0  0  0  0  0  0
    1.6804   -1.1758    1.4795 H   0  0  0  0  0  0  0  0  0  0  0  0
    4.3730   -1.0883    3.6472 H   0  0  0  0  0  0  0  0  0  0  0  0
    4.6263   -0.9327   -0.3845 H   0  0  0  0  0  0  0  0  0  0  0  0
    4.1281    0.5718    0.4418 H   0  0  0  0  0  0  0  0  0  0  0  0
    2.9592   -0.7626    0.1915 H   0  0  0  0  0  0  0  0  0  0  0  0
    0.4929   -1.2085    3.8259 H   0  0  0  0  0  0  0  0  0  0  0  0
  1  2  1  0
  1 43  1  0
  1 44  1  0
  1 45  1  0
  2  3  1  0
  3 42  1  0
  3  4  1  0
  3 46  1  1
  4 39  1  0
  4  5  1  0
  4 47  1  6
  5  6  1  0
  5 48  1  0
  5 49  1  0
  6  7  1  0
  6 50  1  0
  6 51  1  0
  7  8  1  0
 10  7  1  6
  7 52  1  6
  8  9  1  0
  9 53  1  0
  9 54  1  0
  9 55  1  0
 10 15  1  0
 10 42  1  0
 10 11  1  0
 11 12  1  0
 11 13  1  0
 11 56  1  1
 12 57  1  0
 13 14  1  0
 13 58  1  0
 13 59  1  0
 14 15  1  0
 14 60  1  0
 14 61  1  0
 15 16  1  0
 15 62  1  1
 16 36  1  0
 16 17  1  6
 16 18  1  0
 17 63  1  0
 18 19  2  0
 18 20  1  0
 20 34  1  1
 20 21  1  0
 20 35  1  0
 21 22  2  3
 21 64  1  0
 22 23  1  0
 22 65  1  0
 23 24  2  3
 23 66  1  0
 24 25  1  0
 24 67  1  0
 25 68  1  0
 25 69  1  0
 25 26  1  0
 26 27  1  0
 26 70  1  1
 26 33  1  0
 27 28  1  0
 27 29  2  0
 28 72  1  0
 28 73  1  0
 28 74  1  0
 29 31  1  0
 29 30  1  0
 30 75  1  0
 31 33  1  0
 31 32  2  0
 33 34  1  0
 33 71  1  6
 35 36  2  0
 35 76  1  0
 36 37  1  0
 37 38  1  6
 37 39  1  0
 37 42  1  0
 38 77  1  0
 39 40  1  0
 39 78  1  1
 40 41  1  0
 41 79  1  0
 41 80  1  0
 41 81  1  0
 42 82  1  1
M  END
>  <i_m_ct_stereo_status>  (152) 
1

>  <s_m_source_file>  (152) 
/var/tmp/pbs.5076255.sched01/tmpco4mv84g/486h_uxm9x.sdf

>  <i_m_source_file_index>  (152) 
21

>  <i_lp_mmshare_version>  (152) 
48012

>  <i_f3d_flags>  (152) 
0

>  <s_epik_input>  (152) 
W0NIM11PW0NAQEhdMVtDSDJdW0NIMl1bQ0BASF0oW0NAQEhdMk9bQ0gzXSlbQ0BASF0oT1tDSDNdKVtDQEhdM1tDQF0yKFtPSF0pQyhbQ0BAXTQoW09IXSlbQ0BASF0oW0NAQF0xMzUpW0NIMl1bQ0gyXVtDQEBIXTVbT0hdKT1bQ0hdW0NAXTYoQzQ9TykvW0NIXT1bQ0hdL1tDSF09W0NIXVxbQ0gyXVtDQEhdN1tDQEhdKE82KUMoPU8pQyg9TylbQ0BASF03W0NIM10=

>  <s_epik_cmdline>  (152) 
J2VwaWtfcHl0aG9uJywgJy1waHQnLCAnMi4wJywgJy1waCcsICc3LjAnLCAnLXRuJywgJzgnLCAnLW1hJywgJzIwMCcsICctaW1hZScsICc8aW5maWxlLm1hZT4nLCAnLW9tYWUnLCAnPG91dGZpbGUubWFlPic=

>  <r_lp_tautomer_probability>  (152) 
0.499803

>  <r_epik_Ionization_Penalty>  (152) 
0.00187863

>  <r_epik_Ionization_Penalty_Charging>  (152) 
0

>  <r_epik_Ionization_Penalty_Neutral>  (152) 
0.00187863

>  <r_epik_State_Penalty>  (152) 
0.270233

>  <r_epik_Charging_Adjusted_Penalty>  (152) 
0.270233

>  <i_epik_Tot_Q>  (152) 
0

>  <i_epik_Tot_abs_Q>  (152) 
0

>  <s_lp_Force_Field>  (152) 
OPLS3e

>  <r_lp_Energy>  (152) 
117.29

>  <b_lp_Chiralities_Consistent>  (152) 
1

>  <s_lp_Variant>  (152) 
40:0-3

>  <s_i_glide_gridfile>  (152) 
pfpi4k_grid

>  <i_i_glide_lignum>  (152) 
21

>  <i_i_glide_rotatable_bonds>  (152) 
7

>  <r_i_docking_score>  (152) 
-3.43586

>  <r_i_glide_ligand_efficiency>  (152) 
-0.0818061

>  <r_i_glide_ligand_efficiency_sa>  (152) 
-0.28436

>  <r_i_glide_ligand_efficiency_ln>  (152) 
-0.725221

>  <r_i_glide_gscore>  (152) 
-3.43586

>  <r_i_glide_lipo>  (152) 
-0.367018

>  <r_i_glide_hbond>  (152) 
-0.16

>  <r_i_glide_metal>  (152) 
-0

>  <r_i_glide_rewards>  (152) 
-0.5

>  <r_i_glide_evdw>  (152) 
-28.2774

>  <r_i_glide_ecoul>  (152) 
-6.27267

>  <r_i_glide_erotb>  (152) 
0

>  <r_i_glide_esite>  (152) 
-0.0540684

>  <r_i_glide_emodel>  (152) 
-32.1118

>  <r_i_glide_energy>  (152) 
-34.5501

>  <r_i_glide_einternal>  (152) 
29.2772

>  <r_i_glide_intrahb_reward>  (152) 
-0.5

>  <i_i_glide_confnum>  (152) 
2

>  <i_i_glide_posenum>  (152) 
35

>  <r_i_glide_eff_state_penalty>  (152) 
0

>  <ligand_id>  (152) 
40

>  <original_smiles>  (152) 
COC1C2CCC(OC)C34C(O)CCC3C3(O)C(=O)C5(C=CC=CCC6C(C)C(=O)C(=O)C6O5)C=C3C(O)(C2OC)C14

>  <smiles>  (152) 
[H]OC1=C(C([H])([H])[H])C2([H])C([H])([H])C([H])=C([H])C([H])=C([H])C3(OC2([H])C1=O)C(=O)C1(O[H])C(=C3[H])C2(O[H])C([H])(OC([H])([H])[H])C3([H])C([H])([H])C([H])([H])C([H])(OC([H])([H])[H])C4(C([H])(O[H])C([H])([H])C([H])([H])C14[H])C2([H])C3([H])OC([H])([H])[H]

$$$$
40:2:1
     RDKit          3D

 82 88  0  0  1  0  0  0  0  0999 V2000
    0.7303    1.9213    1.7507 C   0  0  0  0  0  0  0  0  0  0  0  0
    0.9878    0.5887    2.1787 O   0  0  0  0  0  0  0  0  0  0  0  0
    1.6927    0.5054    3.4073 C   0  0  2  0  0  0  0  0  0  0  0  0
    3.1931    0.6210    3.0852 C   0  0  1  0  0  0  0  0  0  0  0  0
    3.9537    1.3702    4.1857 C   0  0  0  0  0  0  0  0  0  0  0  0
    3.3852    1.2732    5.5934 C   0  0  0  0  0  0  0  0  0  0  0  0
    3.0769   -0.1414    6.1320 C   0  0  1  0  0  0  0  0  0  0  0  0
    3.1225   -0.1199    7.5701 O   0  0  0  0  0  0  0  0  0  0  0  0
    2.6129    1.0074    8.2979 C   0  0  0  0  0  0  0  0  0  0  0  0
    1.8180   -0.9594    5.5875 C   0  0  2  0  0  0  0  0  0  0  0  0
    0.5291   -0.5914    6.3714 C   0  0  1  0  0  0  0  0  0  0  0  0
   -0.0933    0.6162    5.9496 O   0  0  0  0  0  0  0  0  0  0  0  0
   -0.4387   -1.7572    6.2626 C   0  0  0  0  0  0  0  0  0  0  0  0
    0.4724   -2.9746    6.0679 C   0  0  0  0  0  0  0  0  0  0  0  0
    1.9359   -2.4596    6.0217 C   0  0  1  0  0  0  0  0  0  0  0  0
    2.9456   -3.3238    5.2159 C   0  0  1  0  0  0  0  0  0  0  0  0
    4.2964   -3.0391    5.5251 O   0  0  0  0  0  0  0  0  0  0  0  0
    2.7665   -4.8352    5.3691 C   0  0  0  0  0  0  0  0  0  0  0  0
    2.6105   -5.4003    6.4715 O   0  0  0  0  0  0  0  0  0  0  0  0
    2.7546   -5.5617    4.0363 C   0  0  1  0  0  0  0  0  0  0  0  0
    4.0544   -6.3126    3.8377 C   0  0  0  0  0  0  0  0  0  0  0  0
    4.7622   -6.3275    2.6938 C   0  0  0  0  0  0  0  0  0  0  0  0
    4.9960   -7.6722    2.2239 C   0  0  0  0  0  0  0  0  0  0  0  0
    4.0399   -8.0676    1.3704 C   0  0  0  0  0  0  0  0  0  0  0  0
    3.0659   -9.1749    1.7274 C   0  0  0  0  0  0  0  0  0  0  0  0
    2.1545   -8.7647    2.9222 C   0  0  2  0  0  0  0  0  0  0  0  0
    0.9426   -9.6500    3.0403 C   0  0  0  0  0  0  0  0  0  0  0  0
    1.1429  -11.1399    3.3290 C   0  0  0  0  0  0  0  0  0  0  0  0
   -0.2136   -8.9948    2.8640 C   0  0  0  0  0  0  0  0  0  0  0  0
   -1.4596   -9.4597    2.9189 O   0  0  0  0  0  0  0  0  0  0  0  0
    0.0559   -7.5891    2.6419 C   0  0  0  0  0  0  0  0  0  0  0  0
   -0.7573   -6.6671    2.4264 O   0  0  0  0  0  0  0  0  0  0  0  0
    1.5284   -7.3042    2.8060 C   0  0  1  0  0  0  0  0  0  0  0  0
    1.6525   -6.4786    3.9726 O   0  0  0  0  0  0  0  0  0  0  0  0
    2.5840   -4.3563    3.1234 C   0  0  0  0  0  0  0  0  0  0  0  0
    2.7318   -3.1765    3.7289 C   0  0  0  0  0  0  0  0  0  0  0  0
    2.4549   -1.7848    3.1383 C   0  0  2  0  0  0  0  0  0  0  0  0
    1.7872   -2.0250    1.9347 O   0  0  0  0  0  0  0  0  0  0  0  0
    3.6742   -0.8487    2.8675 C   0  0  1  0  0  0  0  0  0  0  0  0
    4.4000   -1.0847    1.6533 O   0  0  0  0  0  0  0  0  0  0  0  0
    3.9764   -0.4895    0.4208 C   0  0  0  0  0  0  0  0  0  0  0  0
    1.5281   -0.9034    4.0272 C   0  0  2  0  0  0  0  0  0  0  0  0
    0.2079    1.8957    0.7973 H   0  0  0  0  0  0  0  0  0  0  0  0
    1.6342    2.5190    1.6229 H   0  0  0  0  0  0  0  0  0  0  0  0
    0.0837    2.4366    2.4604 H   0  0  0  0  0  0  0  0  0  0  0  0
    1.3104    1.2892    4.0500 H   0  0  0  0  0  0  0  0  0  0  0  0
    3.3614    1.2409    2.2020 H   0  0  0  0  0  0  0  0  0  0  0  0
    5.0182    1.1325    4.1735 H   0  0  0  0  0  0  0  0  0  0  0  0
    3.8881    2.4296    3.9519 H   0  0  0  0  0  0  0  0  0  0  0  0
    4.1841    1.6998    6.2052 H   0  0  0  0  0  0  0  0  0  0  0  0
    2.5158    1.9232    5.7022 H   0  0  0  0  0  0  0  0  0  0  0  0
    3.9772   -0.6901    5.8528 H   0  0  0  0  0  0  0  0  0  0  0  0
    2.6244    0.7341    9.3555 H   0  0  0  0  0  0  0  0  0  0  0  0
    1.5881    1.2311    7.9994 H   0  0  0  0  0  0  0  0  0  0  0  0
    3.2480    1.8923    8.1901 H   0  0  0  0  0  0  0  0  0  0  0  0
    0.7613   -0.5300    7.4333 H   0  0  0  0  0  0  0  0  0  0  0  0
    0.5398    1.2996    5.9992 H   0  0  0  0  0  0  0  0  0  0  0  0
   -0.9605   -1.8223    7.2095 H   0  0  0  0  0  0  0  0  0  0  0  0
   -1.1805   -1.6486    5.4634 H   0  0  0  0  0  0  0  0  0  0  0  0
    0.3453   -3.6862    6.8872 H   0  0  0  0  0  0  0  0  0  0  0  0
    0.1759   -3.4690    5.1422 H   0  0  0  0  0  0  0  0  0  0  0  0
    2.2832   -2.4473    7.0570 H   0  0  0  0  0  0  0  0  0  0  0  0
    4.8291   -3.5513    4.9656 H   0  0  0  0  0  0  0  0  0  0  0  0
    4.1419   -7.1602    4.5049 H   0  0  0  0  0  0  0  0  0  0  0  0
    4.6174   -5.5759    1.9368 H   0  0  0  0  0  0  0  0  0  0  0  0
    5.3422   -8.3677    2.9700 H   0  0  0  0  0  0  0  0  0  0  0  0
    3.5729   -7.3065    0.7635 H   0  0  0  0  0  0  0  0  0  0  0  0
    2.4674   -9.4004    0.8465 H   0  0  0  0  0  0  0  0  0  0  0  0
    3.6186  -10.0858    1.9652 H   0  0  0  0  0  0  0  0  0  0  0  0
    2.7101   -8.8393    3.8478 H   0  0  0  0  0  0  0  0  0  0  0  0
    1.8402   -6.7692    1.9272 H   0  0  0  0  0  0  0  0  0  0  0  0
    1.7020  -11.2648    4.2545 H   0  0  0  0  0  0  0  0  0  0  0  0
    1.7196  -11.5897    2.5253 H   0  0  0  0  0  0  0  0  0  0  0  0
    0.2184  -11.6802    3.4259 H   0  0  0  0  0  0  0  0  0  0  0  0
   -1.4534  -10.2887    3.3752 H   0  0  0  0  0  0  0  0  0  0  0  0
    2.3255   -4.4841    2.0848 H   0  0  0  0  0  0  0  0  0  0  0  0
    1.7026   -1.1749    1.4857 H   0  0  0  0  0  0  0  0  0  0  0  0
    4.3783   -1.0956    3.6599 H   0  0  0  0  0  0  0  0  0  0  0  0
    4.5950   -0.9125   -0.3808 H   0  0  0  0  0  0  0  0  0  0  0  0
    4.1160    0.5926    0.4674 H   0  0  0  0  0  0  0  0  0  0  0  0
    2.9369   -0.7317    0.2179 H   0  0  0  0  0  0  0  0  0  0  0  0
    0.4939   -1.2113    3.8507 H   0  0  0  0  0  0  0  0  0  0  0  0
  1  2  1  0
  1 43  1  0
  1 44  1  0
  1 45  1  0
  2  3  1  0
  3 42  1  0
  3  4  1  0
  3 46  1  1
  4 39  1  0
  4  5  1  0
  4 47  1  6
  5  6  1  0
  5 48  1  0
  5 49  1  0
  6  7  1  0
  6 50  1  0
  6 51  1  0
  7  8  1  0
 10  7  1  6
  7 52  1  6
  8  9  1  0
  9 53  1  0
  9 54  1  0
  9 55  1  0
 10 15  1  0
 10 42  1  0
 10 11  1  0
 11 12  1  0
 11 13  1  0
 11 56  1  1
 12 57  1  0
 13 14  1  0
 13 58  1  0
 13 59  1  0
 14 15  1  0
 14 60  1  0
 14 61  1  0
 15 16  1  0
 15 62  1  1
 16 36  1  0
 16 17  1  6
 16 18  1  0
 17 63  1  0
 18 19  2  0
 18 20  1  0
 20 34  1  1
 20 21  1  0
 20 35  1  0
 21 22  2  3
 21 64  1  0
 22 23  1  0
 22 65  1  0
 23 24  2  3
 23 66  1  0
 24 25  1  0
 24 67  1  0
 25 68  1  0
 25 69  1  0
 25 26  1  0
 26 27  1  0
 26 70  1  1
 26 33  1  0
 27 28  1  0
 27 29  2  0
 28 72  1  0
 28 73  1  0
 28 74  1  0
 29 31  1  0
 29 30  1  0
 30 75  1  0
 31 33  1  0
 31 32  2  0
 33 34  1  0
 33 71  1  6
 35 36  2  0
 35 76  1  0
 36 37  1  0
 37 38  1  6
 37 39  1  0
 37 42  1  0
 38 77  1  0
 39 40  1  0
 39 78  1  1
 40 41  1  0
 41 79  1  0
 41 80  1  0
 41 81  1  0
 42 82  1  1
M  END
>  <i_m_ct_stereo_status>  (153) 
1

>  <s_m_source_file>  (153) 
/var/tmp/pbs.5076255.sched01/tmpco4mv84g/486h_uxm9x.sdf

>  <i_m_source_file_index>  (153) 
21

>  <i_lp_mmshare_version>  (153) 
48012

>  <i_f3d_flags>  (153) 
0

>  <s_epik_input>  (153) 
W0NIM11PW0NAQEhdMVtDSDJdW0NIMl1bQ0BASF0oW0NAQEhdMk9bQ0gzXSlbQ0BASF0oT1tDSDNdKVtDQEhdM1tDQF0yKFtPSF0pQyhbQ0BAXTQoW09IXSlbQ0BASF0oW0NAQF0xMzUpW0NIMl1bQ0gyXVtDQEBIXTVbT0hdKT1bQ0hdW0NAXTYoQzQ9TykvW0NIXT1bQ0hdL1tDSF09W0NIXVxbQ0gyXVtDQEhdN1tDQEhdKE82KUMoPU8pQyg9TylbQ0BASF03W0NIM10=

>  <s_epik_cmdline>  (153) 
J2VwaWtfcHl0aG9uJywgJy1waHQnLCAnMi4wJywgJy1waCcsICc3LjAnLCAnLXRuJywgJzgnLCAnLW1hJywgJzIwMCcsICctaW1hZScsICc8aW5maWxlLm1hZT4nLCAnLW9tYWUnLCAnPG91dGZpbGUubWFlPic=

>  <r_lp_tautomer_probability>  (153) 
0.499803

>  <r_epik_Ionization_Penalty>  (153) 
0.00187863

>  <r_epik_Ionization_Penalty_Charging>  (153) 
0

>  <r_epik_Ionization_Penalty_Neutral>  (153) 
0.00187863

>  <r_epik_State_Penalty>  (153) 
0.270233

>  <r_epik_Charging_Adjusted_Penalty>  (153) 
0.270233

>  <i_epik_Tot_Q>  (153) 
0

>  <i_epik_Tot_abs_Q>  (153) 
0

>  <s_lp_Force_Field>  (153) 
OPLS3e

>  <r_lp_Energy>  (153) 
117.29

>  <b_lp_Chiralities_Consistent>  (153) 
1

>  <s_lp_Variant>  (153) 
40:0-3

>  <s_i_glide_gridfile>  (153) 
pfpi4k_grid

>  <i_i_glide_lignum>  (153) 
21

>  <i_i_glide_rotatable_bonds>  (153) 
7

>  <r_i_docking_score>  (153) 
-3.36453

>  <r_i_glide_ligand_efficiency>  (153) 
-0.0801078

>  <r_i_glide_ligand_efficiency_sa>  (153) 
-0.278457

>  <r_i_glide_ligand_efficiency_ln>  (153) 
-0.710165

>  <r_i_glide_gscore>  (153) 
-3.36453

>  <r_i_glide_lipo>  (153) 
-0.359973

>  <r_i_glide_hbond>  (153) 
-0.16

>  <r_i_glide_metal>  (153) 
-0

>  <r_i_glide_rewards>  (153) 
-0.5

>  <r_i_glide_evdw>  (153) 
-28.44

>  <r_i_glide_ecoul>  (153) 
-5.79171

>  <r_i_glide_erotb>  (153) 
0

>  <r_i_glide_esite>  (153) 
-0.0537944

>  <r_i_glide_emodel>  (153) 
-30.5146

>  <r_i_glide_energy>  (153) 
-34.2318

>  <r_i_glide_einternal>  (153) 
31.5169

>  <r_i_glide_intrahb_reward>  (153) 
-0.5

>  <i_i_glide_confnum>  (153) 
1

>  <i_i_glide_posenum>  (153) 
39

>  <r_i_glide_eff_state_penalty>  (153) 
0

>  <ligand_id>  (153) 
40

>  <original_smiles>  (153) 
COC1C2CCC(OC)C34C(O)CCC3C3(O)C(=O)C5(C=CC=CCC6C(C)C(=O)C(=O)C6O5)C=C3C(O)(C2OC)C14

>  <smiles>  (153) 
[H]OC1=C(C([H])([H])[H])C2([H])C([H])([H])C([H])=C([H])C([H])=C([H])C3(OC2([H])C1=O)C(=O)C1(O[H])C(=C3[H])C2(O[H])C([H])(OC([H])([H])[H])C3([H])C([H])([H])C([H])([H])C([H])(OC([H])([H])[H])C4(C([H])(O[H])C([H])([H])C([H])([H])C14[H])C2([H])C3([H])OC([H])([H])[H]

$$$$
40:2:2
     RDKit          3D

 82 88  0  0  1  0  0  0  0  0999 V2000
   -1.6440   -8.5678    3.6462 C   0  0  0  0  0  0  0  0  0  0  0  0
   -1.0559   -8.0824    4.8480 O   0  0  0  0  0  0  0  0  0  0  0  0
    0.2632   -8.5510    5.1252 C   0  0  2  0  0  0  0  0  0  0  0  0
    0.7112   -7.8351    6.4139 C   0  0  1  0  0  0  0  0  0  0  0  0
    1.5736   -8.7638    7.3117 C   0  0  0  0  0  0  0  0  0  0  0  0
    2.4496   -9.8122    6.5928 C   0  0  0  0  0  0  0  0  0  0  0  0
    3.3292   -9.2314    5.4655 C   0  0  1  0  0  0  0  0  0  0  0  0
    4.4167  -10.1318    5.2369 O   0  0  0  0  0  0  0  0  0  0  0  0
    5.5253  -10.0014    6.1130 C   0  0  0  0  0  0  0  0  0  0  0  0
    2.6536   -8.9227    4.0613 C   0  0  2  0  0  0  0  0  0  0  0  0
    2.4415  -10.2210    3.2283 C   0  0  1  0  0  0  0  0  0  0  0  0
    1.2877  -10.9792    3.5296 O   0  0  0  0  0  0  0  0  0  0  0  0
    2.4470   -9.7895    1.7653 C   0  0  0  0  0  0  0  0  0  0  0  0
    3.2260   -8.4802    1.7059 C   0  0  0  0  0  0  0  0  0  0  0  0
    3.6808   -8.1802    3.1530 C   0  0  1  0  0  0  0  0  0  0  0  0
    3.9108   -6.6711    3.5021 C   0  0  1  0  0  0  0  0  0  0  0  0
    4.6947   -6.5500    4.6692 O   0  0  0  0  0  0  0  0  0  0  0  0
    4.6203   -5.8635    2.4124 C   0  0  0  0  0  0  0  0  0  0  0  0
    5.6170   -6.2416    1.8073 O   0  0  0  0  0  0  0  0  0  0  0  0
    3.9047   -4.5379    2.1749 C   0  0  1  0  0  0  0  0  0  0  0  0
    4.7045   -3.3992    2.7693 C   0  0  0  0  0  0  0  0  0  0  0  0
    4.1838   -2.3734    3.4669 C   0  0  0  0  0  0  0  0  0  0  0  0
    4.5158   -1.0982    2.8977 C   0  0  0  0  0  0  0  0  0  0  0  0
    3.5818   -0.6789    2.0298 C   0  0  0  0  0  0  0  0  0  0  0  0
    3.8576   -0.5836    0.5472 C   0  0  0  0  0  0  0  0  0  0  0  0
    4.1457   -1.9782   -0.0940 C   0  0  2  0  0  0  0  0  0  0  0  0
    4.0516   -1.9234   -1.6034 C   0  0  0  0  0  0  0  0  0  0  0  0
    4.9934   -1.0394   -2.3911 C   0  0  0  0  0  0  0  0  0  0  0  0
    3.0974   -2.7212   -2.0894 C   0  0  0  0  0  0  0  0  0  0  0  0
    2.7244   -2.9049   -3.3725 O   0  0  0  0  0  0  0  0  0  0  0  0
    2.4539   -3.4581   -1.0166 C   0  0  0  0  0  0  0  0  0  0  0  0
    1.5113   -4.2560   -1.1281 O   0  0  0  0  0  0  0  0  0  0  0  0
    3.1322   -3.1189    0.2880 C   0  0  1  0  0  0  0  0  0  0  0  0
    3.7475   -4.3367    0.7601 O   0  0  0  0  0  0  0  0  0  0  0  0
    2.6058   -4.8072    2.8895 C   0  0  0  0  0  0  0  0  0  0  0  0
    2.6104   -5.9199    3.6373 C   0  0  0  0  0  0  0  0  0  0  0  0
    1.4299   -6.5687    4.3748 C   0  0  2  0  0  0  0  0  0  0  0  0
    0.2478   -5.9196    3.9286 O   0  0  0  0  0  0  0  0  0  0  0  0
    1.4412   -6.5443    5.9238 C   0  0  1  0  0  0  0  0  0  0  0  0
    0.9587   -5.3221    6.4905 O   0  0  0  0  0  0  0  0  0  0  0  0
   -0.4364   -5.1836    6.6892 C   0  0  0  0  0  0  0  0  0  0  0  0
    1.3032   -8.0884    4.0698 C   0  0  2  0  0  0  0  0  0  0  0  0
   -2.6801   -8.2296    3.5839 H   0  0  0  0  0  0  0  0  0  0  0  0
   -1.6322   -9.6552    3.5898 H   0  0  0  0  0  0  0  0  0  0  0  0
   -1.1437   -8.1924    2.7582 H   0  0  0  0  0  0  0  0  0  0  0  0
    0.1822   -9.6247    5.2503 H   0  0  0  0  0  0  0  0  0  0  0  0
   -0.1656   -7.5759    7.0121 H   0  0  0  0  0  0  0  0  0  0  0  0
    2.1804   -8.1763    7.9939 H   0  0  0  0  0  0  0  0  0  0  0  0
    0.9053   -9.3337    7.9551 H   0  0  0  0  0  0  0  0  0  0  0  0
    3.0814  -10.2534    7.3611 H   0  0  0  0  0  0  0  0  0  0  0  0
    1.8620  -10.6514    6.2215 H   0  0  0  0  0  0  0  0  0  0  0  0
    3.7474   -8.3236    5.8843 H   0  0  0  0  0  0  0  0  0  0  0  0
    6.2648  -10.7475    5.8482 H   0  0  0  0  0  0  0  0  0  0  0  0
    5.2505  -10.1642    7.1586 H   0  0  0  0  0  0  0  0  0  0  0  0
    5.9828   -9.0170    6.0209 H   0  0  0  0  0  0  0  0  0  0  0  0
    3.2951  -10.8997    3.3440 H   0  0  0  0  0  0  0  0  0  0  0  0
    1.4147  -11.3926    4.3798 H   0  0  0  0  0  0  0  0  0  0  0  0
    2.9429  -10.5544    1.1824 H   0  0  0  0  0  0  0  0  0  0  0  0
    1.4396   -9.6577    1.3649 H   0  0  0  0  0  0  0  0  0  0  0  0
    4.0879   -8.5711    1.0370 H   0  0  0  0  0  0  0  0  0  0  0  0
    2.5860   -7.6959    1.2960 H   0  0  0  0  0  0  0  0  0  0  0  0
    4.6354   -8.6964    3.2542 H   0  0  0  0  0  0  0  0  0  0  0  0
    5.5030   -7.0270    4.5247 H   0  0  0  0  0  0  0  0  0  0  0  0
    5.6287   -3.2273    2.2247 H   0  0  0  0  0  0  0  0  0  0  0  0
    3.2001   -2.4582    3.9151 H   0  0  0  0  0  0  0  0  0  0  0  0
    5.5531   -0.9669    2.6201 H   0  0  0  0  0  0  0  0  0  0  0  0
    2.5539   -0.9687    2.2116 H   0  0  0  0  0  0  0  0  0  0  0  0
    2.9611   -0.1746    0.0948 H   0  0  0  0  0  0  0  0  0  0  0  0
    4.6842    0.1161    0.3717 H   0  0  0  0  0  0  0  0  0  0  0  0
    5.1550   -2.2790    0.1682 H   0  0  0  0  0  0  0  0  0  0  0  0
    2.3707   -2.7910    1.0079 H   0  0  0  0  0  0  0  0  0  0  0  0
    6.0106   -1.3226   -2.1562 H   0  0  0  0  0  0  0  0  0  0  0  0
    4.8396    0.0037   -2.1274 H   0  0  0  0  0  0  0  0  0  0  0  0
    4.8321   -1.1425   -3.4658 H   0  0  0  0  0  0  0  0  0  0  0  0
    3.1959   -2.2762   -3.9122 H   0  0  0  0  0  0  0  0  0  0  0  0
    1.7526   -4.1674    2.7562 H   0  0  0  0  0  0  0  0  0  0  0  0
    0.2141   -5.0963    4.3931 H   0  0  0  0  0  0  0  0  0  0  0  0
    2.4777   -6.5935    6.2227 H   0  0  0  0  0  0  0  0  0  0  0  0
   -0.6317   -4.1724    7.0799 H   0  0  0  0  0  0  0  0  0  0  0  0
   -0.7756   -5.9253    7.4100 H   0  0  0  0  0  0  0  0  0  0  0  0
   -0.9568   -5.3052    5.7346 H   0  0  0  0  0  0  0  0  0  0  0  0
    0.8892   -8.1749    3.0629 H   0  0  0  0  0  0  0  0  0  0  0  0
  1  2  1  0
  1 43  1  0
  1 44  1  0
  1 45  1  0
  2  3  1  0
  3 42  1  0
  3  4  1  0
  3 46  1  1
  4 39  1  0
  4  5  1  0
  4 47  1  1
  5  6  1  0
  5 48  1  0
  5 49  1  0
  6  7  1  0
  6 50  1  0
  6 51  1  0
  7  8  1  0
 10  7  1  1
  7 52  1  1
  8  9  1  0
  9 53  1  0
  9 54  1  0
  9 55  1  0
 10 15  1  0
 10 42  1  0
 10 11  1  0
 11 12  1  0
 11 13  1  0
 11 56  1  6
 12 57  1  0
 13 14  1  0
 13 58  1  0
 13 59  1  0
 14 15  1  0
 14 60  1  0
 14 61  1  0
 15 16  1  0
 15 62  1  6
 16 36  1  0
 16 17  1  1
 16 18  1  0
 17 63  1  0
 18 19  2  0
 18 20  1  0
 20 34  1  6
 20 21  1  0
 20 35  1  0
 21 22  2  3
 21 64  1  0
 22 23  1  0
 22 65  1  0
 23 24  2  3
 23 66  1  0
 24 25  1  0
 24 67  1  0
 25 68  1  0
 25 69  1  0
 25 26  1  0
 26 27  1  0
 26 70  1  6
 26 33  1  0
 27 28  1  0
 27 29  2  0
 28 72  1  0
 28 73  1  0
 28 74  1  0
 29 31  1  0
 29 30  1  0
 30 75  1  0
 31 33  1  0
 31 32  2  0
 33 34  1  0
 33 71  1  1
 35 36  2  0
 35 76  1  0
 36 37  1  0
 37 38  1  6
 37 39  1  0
 37 42  1  0
 38 77  1  0
 39 40  1  0
 39 78  1  1
 40 41  1  0
 41 79  1  0
 41 80  1  0
 41 81  1  0
 42 82  1  6
M  END
>  <i_m_ct_stereo_status>  (154) 
1

>  <s_m_source_file>  (154) 
/var/tmp/pbs.5076255.sched01/tmpco4mv84g/486h_uxm9x.sdf

>  <i_m_source_file_index>  (154) 
21

>  <i_lp_mmshare_version>  (154) 
48012

>  <i_f3d_flags>  (154) 
0

>  <s_epik_input>  (154) 
W0NIM11PW0NAQEhdMVtDSDJdW0NIMl1bQ0BASF0oW0NAQEhdMk9bQ0gzXSlbQ0BASF0oT1tDSDNdKVtDQEhdM1tDQF0yKFtPSF0pQyhbQ0BAXTQoW09IXSlbQ0BASF0oW0NAQF0xMzUpW0NIMl1bQ0gyXVtDQEBIXTVbT0hdKT1bQ0hdW0NAXTYoQzQ9TykvW0NIXT1bQ0hdL1tDSF09W0NIXVxbQ0gyXVtDQEhdN1tDQEhdKE82KUMoPU8pQyg9TylbQ0BASF03W0NIM10=

>  <s_epik_cmdline>  (154) 
J2VwaWtfcHl0aG9uJywgJy1waHQnLCAnMi4wJywgJy1waCcsICc3LjAnLCAnLXRuJywgJzgnLCAnLW1hJywgJzIwMCcsICctaW1hZScsICc8aW5maWxlLm1hZT4nLCAnLW9tYWUnLCAnPG91dGZpbGUubWFlPic=

>  <r_lp_tautomer_probability>  (154) 
0.499803

>  <r_epik_Ionization_Penalty>  (154) 
0.00187863

>  <r_epik_Ionization_Penalty_Charging>  (154) 
0

>  <r_epik_Ionization_Penalty_Neutral>  (154) 
0.00187863

>  <r_epik_State_Penalty>  (154) 
0.270233

>  <r_epik_Charging_Adjusted_Penalty>  (154) 
0.270233

>  <i_epik_Tot_Q>  (154) 
0

>  <i_epik_Tot_abs_Q>  (154) 
0

>  <s_lp_Force_Field>  (154) 
OPLS3e

>  <r_lp_Energy>  (154) 
117.29

>  <b_lp_Chiralities_Consistent>  (154) 
1

>  <s_lp_Variant>  (154) 
40:0-3

>  <s_i_glide_gridfile>  (154) 
pfpi4k_grid

>  <i_i_glide_lignum>  (154) 
21

>  <i_i_glide_rotatable_bonds>  (154) 
7

>  <r_i_docking_score>  (154) 
-1.9231

>  <r_i_glide_ligand_efficiency>  (154) 
-0.0457881

>  <r_i_glide_ligand_efficiency_sa>  (154) 
-0.159161

>  <r_i_glide_ligand_efficiency_ln>  (154) 
-0.405917

>  <r_i_glide_gscore>  (154) 
-1.9231

>  <r_i_glide_lipo>  (154) 
-0.13548

>  <r_i_glide_hbond>  (154) 
-0.00215149

>  <r_i_glide_metal>  (154) 
-0

>  <r_i_glide_rewards>  (154) 
0

>  <r_i_glide_evdw>  (154) 
-31.157

>  <r_i_glide_ecoul>  (154) 
-1.45253

>  <r_i_glide_erotb>  (154) 
0

>  <r_i_glide_esite>  (154) 
-0.00973816

>  <r_i_glide_emodel>  (154) 
-23.7917

>  <r_i_glide_energy>  (154) 
-32.6095

>  <r_i_glide_einternal>  (154) 
24.7217

>  <r_i_glide_intrahb_reward>  (154) 
-0

>  <i_i_glide_confnum>  (154) 
2

>  <i_i_glide_posenum>  (154) 
3

>  <r_i_glide_eff_state_penalty>  (154) 
0

>  <ligand_id>  (154) 
40

>  <original_smiles>  (154) 
COC1C2CCC(OC)C34C(O)CCC3C3(O)C(=O)C5(C=CC=CCC6C(C)C(=O)C(=O)C6O5)C=C3C(O)(C2OC)C14

>  <smiles>  (154) 
[H]OC1=C(C([H])([H])[H])C2([H])C([H])([H])C([H])=C([H])C([H])=C([H])C3(OC2([H])C1=O)C(=O)C1(O[H])C(=C3[H])C2(O[H])C([H])(OC([H])([H])[H])C3([H])C([H])([H])C([H])([H])C([H])(OC([H])([H])[H])C4(C([H])(O[H])C([H])([H])C([H])([H])C14[H])C2([H])C3([H])OC([H])([H])[H]

$$$$
40:3:0
     RDKit          3D

 82 88  0  0  1  0  0  0  0  0999 V2000
   -1.4486   -9.4944    2.3161 C   0  0  0  0  0  0  0  0  0  0  0  0
   -0.4349   -8.4945    2.3879 O   0  0  0  0  0  0  0  0  0  0  0  0
    0.6172   -8.8207    3.2962 C   0  0  2  0  0  0  0  0  0  0  0  0
    0.2086   -8.4016    4.7179 C   0  0  1  0  0  0  0  0  0  0  0  0
    0.6843   -9.4285    5.7568 C   0  0  0  0  0  0  0  0  0  0  0  0
    2.0114  -10.1297    5.4400 C   0  0  0  0  0  0  0  0  0  0  0  0
    3.2078   -9.2532    5.0105 C   0  0  1  0  0  0  0  0  0  0  0  0
    4.4419   -9.9257    5.3229 O   0  0  0  0  0  0  0  0  0  0  0  0
    4.5512  -11.3448    5.1503 C   0  0  0  0  0  0  0  0  0  0  0  0
    3.2469   -8.5993    3.5550 C   0  0  2  0  0  0  0  0  0  0  0  0
    3.8579   -9.5888    2.5191 C   0  0  1  0  0  0  0  0  0  0  0  0
    2.9612  -10.5766    2.0811 O   0  0  0  0  0  0  0  0  0  0  0  0
    4.4406   -8.7952    1.3628 C   0  0  0  0  0  0  0  0  0  0  0  0
    4.8091   -7.4570    2.0108 C   0  0  0  0  0  0  0  0  0  0  0  0
    4.3638   -7.5142    3.4997 C   0  0  1  0  0  0  0  0  0  0  0  0
    4.0112   -6.1512    4.1677 C   0  0  1  0  0  0  0  0  0  0  0  0
    4.0362   -6.2122    5.5777 O   0  0  0  0  0  0  0  0  0  0  0  0
    4.9314   -4.9947    3.7595 C   0  0  0  0  0  0  0  0  0  0  0  0
    6.1666   -5.0664    3.7702 O   0  0  0  0  0  0  0  0  0  0  0  0
    4.1465   -3.7605    3.3152 C   0  0  1  0  0  0  0  0  0  0  0  0
    4.1971   -2.7475    4.4746 C   0  0  0  0  0  0  0  0  0  0  0  0
    4.6184   -1.4627    4.4988 C   0  0  0  0  0  0  0  0  0  0  0  0
    5.0078   -0.7448    3.3145 C   0  0  0  0  0  0  0  0  0  0  0  0
    4.0690   -0.2818    2.4770 C   0  0  0  0  0  0  0  0  0  0  0  0
    4.2908   -0.1512    0.9902 C   0  0  0  0  0  0  0  0  0  0  0  0
    4.6923   -1.5210    0.4096 C   0  0  2  0  0  0  0  0  0  0  0  0
    4.4144   -1.7207   -1.0718 C   0  0  0  0  0  0  0  0  0  0  0  0
    4.7909   -0.6754   -2.0908 C   0  0  0  0  0  0  0  0  0  0  0  0
    3.8804   -2.9237   -1.3212 C   0  0  0  0  0  0  0  0  0  0  0  0
    3.5905   -3.4532   -2.5172 O   0  0  0  0  0  0  0  0  0  0  0  0
    3.6595   -3.6418   -0.0738 C   0  0  0  0  0  0  0  0  0  0  0  0
    3.2936   -4.8051    0.0731 O   0  0  0  0  0  0  0  0  0  0  0  0
    3.9379   -2.7032    1.0875 C   0  0  1  0  0  0  0  0  0  0  0  0
    4.7376   -3.3411    2.0775 O   0  0  0  0  0  0  0  0  0  0  0  0
    2.7634   -4.3868    3.2133 C   0  0  0  0  0  0  0  0  0  0  0  0
    2.6809   -5.6291    3.6915 C   0  0  0  0  0  0  0  0  0  0  0  0
    1.4892   -6.5840    3.5950 C   0  0  2  0  0  0  0  0  0  0  0  0
    0.5389   -6.0326    2.6917 O   0  0  0  0  0  0  0  0  0  0  0  0
    0.7923   -6.9788    4.9317 C   0  0  1  0  0  0  0  0  0  0  0  0
   -0.2466   -6.0994    5.3622 O   0  0  0  0  0  0  0  0  0  0  0  0
    0.1968   -4.9048    5.9818 C   0  0  0  0  0  0  0  0  0  0  0  0
    1.8799   -7.9711    3.0125 C   0  0  2  0  0  0  0  0  0  0  0  0
   -2.2484   -9.1668    1.6539 H   0  0  0  0  0  0  0  0  0  0  0  0
   -1.9057   -9.7021    3.2805 H   0  0  0  0  0  0  0  0  0  0  0  0
   -1.0436  -10.4276    1.9190 H   0  0  0  0  0  0  0  0  0  0  0  0
    0.8144   -9.8811    3.1872 H   0  0  0  0  0  0  0  0  0  0  0  0
   -0.8768   -8.3532    4.8114 H   0  0  0  0  0  0  0  0  0  0  0  0
    0.7183   -8.9882    6.7544 H   0  0  0  0  0  0  0  0  0  0  0  0
   -0.0549  -10.2268    5.8263 H   0  0  0  0  0  0  0  0  0  0  0  0
    2.2681  -10.6001    6.3871 H   0  0  0  0  0  0  0  0  0  0  0  0
    1.8679  -10.9415    4.7278 H   0  0  0  0  0  0  0  0  0  0  0  0
    3.1916   -8.4487    5.7405 H   0  0  0  0  0  0  0  0  0  0  0  0
    5.5972  -11.6255    5.2993 H   0  0  0  0  0  0  0  0  0  0  0  0
    4.2560  -11.6587    4.1493 H   0  0  0  0  0  0  0  0  0  0  0  0
    3.9627  -11.9009    5.8824 H   0  0  0  0  0  0  0  0  0  0  0  0
    4.7425  -10.0707    2.9447 H   0  0  0  0  0  0  0  0  0  0  0  0
    3.4187  -11.1796    1.4891 H   0  0  0  0  0  0  0  0  0  0  0  0
    5.3215   -9.3243    0.9948 H   0  0  0  0  0  0  0  0  0  0  0  0
    3.7520   -8.6759    0.5225 H   0  0  0  0  0  0  0  0  0  0  0  0
    5.8842   -7.2710    1.9321 H   0  0  0  0  0  0  0  0  0  0  0  0
    4.2952   -6.6679    1.4661 H   0  0  0  0  0  0  0  0  0  0  0  0
    5.2239   -7.9121    4.0369 H   0  0  0  0  0  0  0  0  0  0  0  0
    3.5172   -6.9471    5.8707 H   0  0  0  0  0  0  0  0  0  0  0  0
    3.8844   -3.1642    5.4184 H   0  0  0  0  0  0  0  0  0  0  0  0
    4.5995   -0.9340    5.4429 H   0  0  0  0  0  0  0  0  0  0  0  0
    6.0269   -0.8551    2.9726 H   0  0  0  0  0  0  0  0  0  0  0  0
    3.0371   -0.2988    2.7881 H   0  0  0  0  0  0  0  0  0  0  0  0
    3.3709    0.2076    0.5329 H   0  0  0  0  0  0  0  0  0  0  0  0
    5.0835    0.5589    0.7882 H   0  0  0  0  0  0  0  0  0  0  0  0
    5.7683   -1.6678    0.5554 H   0  0  0  0  0  0  0  0  0  0  0  0
    2.9765   -2.3833    1.4806 H   0  0  0  0  0  0  0  0  0  0  0  0
    5.8137   -0.3880   -1.9233 H   0  0  0  0  0  0  0  0  0  0  0  0
    4.1941    0.2037   -1.9288 H   0  0  0  0  0  0  0  0  0  0  0  0
    4.6485   -1.0152   -3.1172 H   0  0  0  0  0  0  0  0  0  0  0  0
    3.3059   -4.3503   -2.4000 H   0  0  0  0  0  0  0  0  0  0  0  0
    1.9406   -3.8470    2.7654 H   0  0  0  0  0  0  0  0  0  0  0  0
    0.1540   -6.7943    2.2682 H   0  0  0  0  0  0  0  0  0  0  0  0
    1.5354   -7.0278    5.7276 H   0  0  0  0  0  0  0  0  0  0  0  0
   -0.6712   -4.3550    6.3449 H   0  0  0  0  0  0  0  0  0  0  0  0
    0.7259   -4.2668    5.2755 H   0  0  0  0  0  0  0  0  0  0  0  0
    0.8435   -5.1076    6.8371 H   0  0  0  0  0  0  0  0  0  0  0  0
    1.9627   -7.8645    1.9289 H   0  0  0  0  0  0  0  0  0  0  0  0
  1  2  1  0
  1 43  1  0
  1 44  1  0
  1 45  1  0
  2  3  1  0
  3 42  1  0
  3  4  1  0
  3 46  1  1
  4 39  1  0
  4  5  1  0
  4 47  1  6
  5  6  1  0
  5 48  1  0
  5 49  1  0
  6  7  1  0
  6 50  1  0
  6 51  1  0
  7  8  1  0
 10  7  1  1
  7 52  1  1
  8  9  1  0
  9 53  1  0
  9 54  1  0
  9 55  1  0
 10 15  1  0
 10 42  1  0
 10 11  1  0
 11 12  1  0
 11 13  1  0
 11 56  1  1
 12 57  1  0
 13 14  1  0
 13 58  1  0
 13 59  1  0
 14 15  1  0
 14 60  1  0
 14 61  1  0
 15 16  1  0
 15 62  1  1
 16 36  1  0
 16 17  1  1
 16 18  1  0
 17 63  1  0
 18 19  2  0
 18 20  1  0
 20 34  1  6
 20 21  1  0
 20 35  1  0
 21 22  2  3
 21 64  1  0
 22 23  1  0
 22 65  1  0
 23 24  2  3
 23 66  1  0
 24 25  1  0
 24 67  1  0
 25 68  1  0
 25 69  1  0
 25 26  1  0
 26 27  1  0
 26 70  1  6
 26 33  1  0
 27 28  1  0
 27 29  2  0
 28 72  1  0
 28 73  1  0
 28 74  1  0
 29 31  1  0
 29 30  1  0
 30 75  1  0
 31 33  1  0
 31 32  2  0
 33 34  1  0
 33 71  1  1
 35 36  2  0
 35 76  1  0
 36 37  1  0
 37 38  1  6
 37 39  1  0
 37 42  1  0
 38 77  1  0
 39 40  1  0
 39 78  1  1
 40 41  1  0
 41 79  1  0
 41 80  1  0
 41 81  1  0
 42 82  1  6
M  END
>  <i_m_ct_stereo_status>  (155) 
1

>  <s_m_source_file>  (155) 
/var/tmp/pbs.5076255.sched01/tmpco4mv84g/486h_uxm9x.sdf

>  <i_m_source_file_index>  (155) 
22

>  <i_lp_mmshare_version>  (155) 
48012

>  <i_f3d_flags>  (155) 
0

>  <s_epik_input>  (155) 
W0NIM11PW0NAQEhdMVtDSDJdW0NIMl1bQ0BASF0oW0NAQEhdMk9bQ0gzXSlbQ0BASF0oT1tDSDNdKVtDQEhdM1tDQF0yKFtPSF0pQyhbQ0BAXTQoW09IXSlbQ0BASF0oW0NAQF0xMzUpW0NIMl1bQ0gyXVtDQEBIXTVbT0hdKT1bQ0hdW0NAXTYoQzQ9TykvW0NIXT1bQ0hdL1tDSF09W0NIXVxbQ0gyXVtDQEhdN1tDQEhdKE82KUMoPU8pQyg9TylbQ0BASF03W0NIM10=

>  <s_epik_cmdline>  (155) 
J2VwaWtfcHl0aG9uJywgJy1waHQnLCAnMi4wJywgJy1waCcsICc3LjAnLCAnLXRuJywgJzgnLCAnLW1hJywgJzIwMCcsICctaW1hZScsICc8aW5maWxlLm1hZT4nLCAnLW9tYWUnLCAnPG91dGZpbGUubWFlPic=

>  <r_lp_tautomer_probability>  (155) 
0.499803

>  <r_epik_Ionization_Penalty>  (155) 
0.00187863

>  <r_epik_Ionization_Penalty_Charging>  (155) 
0

>  <r_epik_Ionization_Penalty_Neutral>  (155) 
0.00187863

>  <r_epik_State_Penalty>  (155) 
0.270233

>  <r_epik_Charging_Adjusted_Penalty>  (155) 
0.270233

>  <i_epik_Tot_Q>  (155) 
0

>  <i_epik_Tot_abs_Q>  (155) 
0

>  <s_lp_Force_Field>  (155) 
OPLS3e

>  <r_lp_Energy>  (155) 
87.2939

>  <b_lp_Chiralities_Consistent>  (155) 
1

>  <s_lp_Variant>  (155) 
40:0-4

>  <s_i_glide_gridfile>  (155) 
pfpi4k_grid

>  <i_i_glide_lignum>  (155) 
22

>  <i_i_glide_rotatable_bonds>  (155) 
7

>  <r_i_docking_score>  (155) 
-4.10126

>  <r_i_glide_ligand_efficiency>  (155) 
-0.097649

>  <r_i_glide_ligand_efficiency_sa>  (155) 
-0.33943

>  <r_i_glide_ligand_efficiency_ln>  (155) 
-0.86567

>  <r_i_glide_gscore>  (155) 
-4.10126

>  <r_i_glide_lipo>  (155) 
-0.585704

>  <r_i_glide_hbond>  (155) 
-0.152

>  <r_i_glide_metal>  (155) 
-0

>  <r_i_glide_rewards>  (155) 
-0.504882

>  <r_i_glide_evdw>  (155) 
-29.6247

>  <r_i_glide_ecoul>  (155) 
-9.18292

>  <r_i_glide_erotb>  (155) 
0

>  <r_i_glide_esite>  (155) 
0

>  <r_i_glide_emodel>  (155) 
-48.8798

>  <r_i_glide_energy>  (155) 
-38.8076

>  <r_i_glide_einternal>  (155) 
10.0586

>  <r_i_glide_intrahb_reward>  (155) 
-0.5

>  <i_i_glide_confnum>  (155) 
2

>  <i_i_glide_posenum>  (155) 
22

>  <r_i_glide_eff_state_penalty>  (155) 
0

>  <ligand_id>  (155) 
40

>  <original_smiles>  (155) 
COC1C2CCC(OC)C34C(O)CCC3C3(O)C(=O)C5(C=CC=CCC6C(C)C(=O)C(=O)C6O5)C=C3C(O)(C2OC)C14

>  <smiles>  (155) 
[H]OC1=C(C([H])([H])[H])C2([H])C([H])([H])C([H])=C([H])C([H])=C([H])C3(OC2([H])C1=O)C(=O)C1(O[H])C(=C3[H])C2(O[H])C([H])(OC([H])([H])[H])C3([H])C([H])([H])C([H])([H])C([H])(OC([H])([H])[H])C4(C([H])(O[H])C([H])([H])C([H])([H])C14[H])C2([H])C3([H])OC([H])([H])[H]

$$$$
40:3:1
     RDKit          3D

 82 88  0  0  1  0  0  0  0  0999 V2000
    2.6369  -11.9161    3.5354 C   0  0  0  0  0  0  0  0  0  0  0  0
    2.9242  -10.5204    3.4890 O   0  0  0  0  0  0  0  0  0  0  0  0
    2.5578   -9.8145    4.6716 C   0  0  2  0  0  0  0  0  0  0  0  0
    1.0584   -9.4882    4.6509 C   0  0  1  0  0  0  0  0  0  0  0  0
    0.4438   -9.6392    6.0567 C   0  0  0  0  0  0  0  0  0  0  0  0
    1.3517   -9.2429    7.2430 C   0  0  0  0  0  0  0  0  0  0  0  0
    2.0398   -7.8711    7.0999 C   0  0  1  0  0  0  0  0  0  0  0  0
    2.3847   -7.4106    8.4062 O   0  0  0  0  0  0  0  0  0  0  0  0
    1.3590   -6.7523    9.1368 C   0  0  0  0  0  0  0  0  0  0  0  0
    3.3243   -7.7669    6.1704 C   0  0  2  0  0  0  0  0  0  0  0  0
    4.5961   -8.2993    6.9042 C   0  0  1  0  0  0  0  0  0  0  0  0
    4.7915   -9.6959    6.8502 O   0  0  0  0  0  0  0  0  0  0  0  0
    5.7980   -7.5585    6.3084 C   0  0  0  0  0  0  0  0  0  0  0  0
    5.2323   -6.2482    5.7551 C   0  0  0  0  0  0  0  0  0  0  0  0
    3.7149   -6.2595    6.0432 C   0  0  1  0  0  0  0  0  0  0  0  0
    2.8210   -5.4213    5.0799 C   0  0  1  0  0  0  0  0  0  0  0  0
    1.5593   -5.1359    5.6447 O   0  0  0  0  0  0  0  0  0  0  0  0
    3.4223   -4.0813    4.6497 C   0  0  0  0  0  0  0  0  0  0  0  0
    3.8941   -3.2589    5.4376 O   0  0  0  0  0  0  0  0  0  0  0  0
    3.3648   -3.8852    3.1349 C   0  0  1  0  0  0  0  0  0  0  0  0
    2.2084   -2.9043    2.8457 C   0  0  0  0  0  0  0  0  0  0  0  0
    2.2056   -1.7259    2.1866 C   0  0  0  0  0  0  0  0  0  0  0  0
    3.3567   -1.2213    1.4853 C   0  0  0  0  0  0  0  0  0  0  0  0
    3.6914   -1.7345    0.2934 C   0  0  0  0  0  0  0  0  0  0  0  0
    5.1174   -1.8074   -0.1992 C   0  0  0  0  0  0  0  0  0  0  0  0
    5.9625   -2.6014    0.8243 C   0  0  2  0  0  0  0  0  0  0  0  0
    7.2298   -3.2415    0.2859 C   0  0  0  0  0  0  0  0  0  0  0  0
    8.1604   -2.4588   -0.6143 C   0  0  0  0  0  0  0  0  0  0  0  0
    7.3968   -4.4947    0.7314 C   0  0  0  0  0  0  0  0  0  0  0  0
    8.4076   -5.3385    0.4693 O   0  0  0  0  0  0  0  0  0  0  0  0
    6.2624   -4.8802    1.5633 C   0  0  0  0  0  0  0  0  0  0  0  0
    6.1300   -5.8935    2.2480 O   0  0  0  0  0  0  0  0  0  0  0  0
    5.1953   -3.7982    1.4619 C   0  0  1  0  0  0  0  0  0  0  0  0
    4.6814   -3.4510    2.7456 O   0  0  0  0  0  0  0  0  0  0  0  0
    2.9811   -5.2958    2.7242 C   0  0  0  0  0  0  0  0  0  0  0  0
    2.6576   -6.1036    3.7487 C   0  0  0  0  0  0  0  0  0  0  0  0
    2.3693   -7.6055    3.6886 C   0  0  2  0  0  0  0  0  0  0  0  0
    2.6669   -8.0795    2.3823 O   0  0  0  0  0  0  0  0  0  0  0  0
    0.9281   -8.0657    4.0421 C   0  0  1  0  0  0  0  0  0  0  0  0
    0.0266   -8.1059    2.9393 O   0  0  0  0  0  0  0  0  0  0  0  0
   -0.4641   -6.8469    2.5278 C   0  0  0  0  0  0  0  0  0  0  0  0
    3.2182   -8.4138    4.7099 C   0  0  2  0  0  0  0  0  0  0  0  0
    2.9180  -12.3869    2.5911 H   0  0  0  0  0  0  0  0  0  0  0  0
    1.5776  -12.1244    3.6989 H   0  0  0  0  0  0  0  0  0  0  0  0
    3.1971  -12.4136    4.3299 H   0  0  0  0  0  0  0  0  0  0  0  0
    2.8532  -10.4362    5.5100 H   0  0  0  0  0  0  0  0  0  0  0  0
    0.5232  -10.1816    4.0017 H   0  0  0  0  0  0  0  0  0  0  0  0
   -0.5070   -9.1067    6.1020 H   0  0  0  0  0  0  0  0  0  0  0  0
    0.1835  -10.6880    6.1975 H   0  0  0  0  0  0  0  0  0  0  0  0
    0.7002   -9.2353    8.1138 H   0  0  0  0  0  0  0  0  0  0  0  0
    2.0823  -10.0166    7.4790 H   0  0  0  0  0  0  0  0  0  0  0  0
    1.2637   -7.2097    6.7439 H   0  0  0  0  0  0  0  0  0  0  0  0
    1.7473   -6.4656   10.1137 H   0  0  0  0  0  0  0  0  0  0  0  0
    0.4952   -7.3933    9.3058 H   0  0  0  0  0  0  0  0  0  0  0  0
    1.0295   -5.8444    8.6316 H   0  0  0  0  0  0  0  0  0  0  0  0
    4.5759   -8.0259    7.9610 H   0  0  0  0  0  0  0  0  0  0  0  0
    4.0492  -10.1170    7.2646 H   0  0  0  0  0  0  0  0  0  0  0  0
    6.5652   -7.3872    7.0663 H   0  0  0  0  0  0  0  0  0  0  0  0
    6.2675   -8.1325    5.5065 H   0  0  0  0  0  0  0  0  0  0  0  0
    5.7192   -5.3894    6.2181 H   0  0  0  0  0  0  0  0  0  0  0  0
    5.4430   -6.1962    4.6890 H   0  0  0  0  0  0  0  0  0  0  0  0
    3.6272   -5.8061    7.0293 H   0  0  0  0  0  0  0  0  0  0  0  0
    1.1815   -5.9432    5.9591 H   0  0  0  0  0  0  0  0  0  0  0  0
    1.2746   -3.2015    3.2985 H   0  0  0  0  0  0  0  0  0  0  0  0
    1.2775   -1.1720    2.1239 H   0  0  0  0  0  0  0  0  0  0  0  0
    4.0801   -0.6602    2.0562 H   0  0  0  0  0  0  0  0  0  0  0  0
    2.9908   -2.3855   -0.2049 H   0  0  0  0  0  0  0  0  0  0  0  0
    5.1141   -2.2978   -1.1732 H   0  0  0  0  0  0  0  0  0  0  0  0
    5.5159   -0.8011   -0.3322 H   0  0  0  0  0  0  0  0  0  0  0  0
    6.2769   -1.9247    1.6197 H   0  0  0  0  0  0  0  0  0  0  0  0
    4.4112   -4.1566    0.7969 H   0  0  0  0  0  0  0  0  0  0  0  0
    8.4288   -1.5181   -0.1350 H   0  0  0  0  0  0  0  0  0  0  0  0
    7.6595   -2.2638   -1.5610 H   0  0  0  0  0  0  0  0  0  0  0  0
    9.0752   -3.0119   -0.8307 H   0  0  0  0  0  0  0  0  0  0  0  0
    8.9885   -4.9098   -0.1421 H   0  0  0  0  0  0  0  0  0  0  0  0
    2.9954   -5.6016    1.6904 H   0  0  0  0  0  0  0  0  0  0  0  0
    2.5815   -9.0269    2.4046 H   0  0  0  0  0  0  0  0  0  0  0  0
    0.4976   -7.4023    4.7868 H   0  0  0  0  0  0  0  0  0  0  0  0
   -1.2051   -7.0009    1.7461 H   0  0  0  0  0  0  0  0  0  0  0  0
    0.3265   -6.2211    2.1166 H   0  0  0  0  0  0  0  0  0  0  0  0
   -0.9458   -6.3231    3.3550 H   0  0  0  0  0  0  0  0  0  0  0  0
    4.2270   -8.5089    4.3039 H   0  0  0  0  0  0  0  0  0  0  0  0
  1  2  1  0
  1 43  1  0
  1 44  1  0
  1 45  1  0
  2  3  1  0
  3 42  1  0
  3  4  1  0
  3 46  1  1
  4 39  1  0
  4  5  1  0
  4 47  1  6
  5  6  1  0
  5 48  1  0
  5 49  1  0
  6  7  1  0
  6 50  1  0
  6 51  1  0
  7  8  1  0
 10  7  1  1
  7 52  1  6
  8  9  1  0
  9 53  1  0
  9 54  1  0
  9 55  1  0
 10 15  1  0
 10 42  1  0
 10 11  1  0
 11 12  1  0
 11 13  1  0
 11 56  1  1
 12 57  1  0
 13 14  1  0
 13 58  1  0
 13 59  1  0
 14 15  1  0
 14 60  1  0
 14 61  1  0
 15 16  1  0
 15 62  1  1
 16 36  1  0
 16 17  1  1
 16 18  1  0
 17 63  1  0
 18 19  2  0
 18 20  1  0
 20 34  1  6
 20 21  1  0
 20 35  1  0
 21 22  2  3
 21 64  1  0
 22 23  1  0
 22 65  1  0
 23 24  2  3
 23 66  1  0
 24 25  1  0
 24 67  1  0
 25 68  1  0
 25 69  1  0
 25 26  1  0
 26 27  1  0
 26 70  1  1
 26 33  1  0
 27 28  1  0
 27 29  2  0
 28 72  1  0
 28 73  1  0
 28 74  1  0
 29 31  1  0
 29 30  1  0
 30 75  1  0
 31 33  1  0
 31 32  2  0
 33 34  1  0
 33 71  1  6
 35 36  2  0
 35 76  1  0
 36 37  1  0
 37 38  1  6
 37 39  1  0
 37 42  1  0
 38 77  1  0
 39 40  1  0
 39 78  1  1
 40 41  1  0
 41 79  1  0
 41 80  1  0
 41 81  1  0
 42 82  1  6
M  END
>  <i_m_ct_stereo_status>  (156) 
1

>  <s_m_source_file>  (156) 
/var/tmp/pbs.5076255.sched01/tmpco4mv84g/486h_uxm9x.sdf

>  <i_m_source_file_index>  (156) 
22

>  <i_lp_mmshare_version>  (156) 
48012

>  <i_f3d_flags>  (156) 
0

>  <s_epik_input>  (156) 
W0NIM11PW0NAQEhdMVtDSDJdW0NIMl1bQ0BASF0oW0NAQEhdMk9bQ0gzXSlbQ0BASF0oT1tDSDNdKVtDQEhdM1tDQF0yKFtPSF0pQyhbQ0BAXTQoW09IXSlbQ0BASF0oW0NAQF0xMzUpW0NIMl1bQ0gyXVtDQEBIXTVbT0hdKT1bQ0hdW0NAXTYoQzQ9TykvW0NIXT1bQ0hdL1tDSF09W0NIXVxbQ0gyXVtDQEhdN1tDQEhdKE82KUMoPU8pQyg9TylbQ0BASF03W0NIM10=

>  <s_epik_cmdline>  (156) 
J2VwaWtfcHl0aG9uJywgJy1waHQnLCAnMi4wJywgJy1waCcsICc3LjAnLCAnLXRuJywgJzgnLCAnLW1hJywgJzIwMCcsICctaW1hZScsICc8aW5maWxlLm1hZT4nLCAnLW9tYWUnLCAnPG91dGZpbGUubWFlPic=

>  <r_lp_tautomer_probability>  (156) 
0.499803

>  <r_epik_Ionization_Penalty>  (156) 
0.00187863

>  <r_epik_Ionization_Penalty_Charging>  (156) 
0

>  <r_epik_Ionization_Penalty_Neutral>  (156) 
0.00187863

>  <r_epik_State_Penalty>  (156) 
0.270233

>  <r_epik_Charging_Adjusted_Penalty>  (156) 
0.270233

>  <i_epik_Tot_Q>  (156) 
0

>  <i_epik_Tot_abs_Q>  (156) 
0

>  <s_lp_Force_Field>  (156) 
OPLS3e

>  <r_lp_Energy>  (156) 
87.2939

>  <b_lp_Chiralities_Consistent>  (156) 
1

>  <s_lp_Variant>  (156) 
40:0-4

>  <s_i_glide_gridfile>  (156) 
pfpi4k_grid

>  <i_i_glide_lignum>  (156) 
22

>  <i_i_glide_rotatable_bonds>  (156) 
7

>  <r_i_docking_score>  (156) 
-2.42057

>  <r_i_glide_ligand_efficiency>  (156) 
-0.0576326

>  <r_i_glide_ligand_efficiency_sa>  (156) 
-0.200332

>  <r_i_glide_ligand_efficiency_ln>  (156) 
-0.51092

>  <r_i_glide_gscore>  (156) 
-2.42057

>  <r_i_glide_lipo>  (156) 
-0.405763

>  <r_i_glide_hbond>  (156) 
0

>  <r_i_glide_metal>  (156) 
-0

>  <r_i_glide_rewards>  (156) 
-0.599965

>  <r_i_glide_evdw>  (156) 
-29.5128

>  <r_i_glide_ecoul>  (156) 
0.405341

>  <r_i_glide_erotb>  (156) 
0

>  <r_i_glide_esite>  (156) 
0

>  <r_i_glide_emodel>  (156) 
-39.6107

>  <r_i_glide_energy>  (156) 
-29.1075

>  <r_i_glide_einternal>  (156) 
1.1659

>  <r_i_glide_intrahb_reward>  (156) 
-0.5

>  <i_i_glide_confnum>  (156) 
2

>  <i_i_glide_posenum>  (156) 
9

>  <r_i_glide_eff_state_penalty>  (156) 
0

>  <ligand_id>  (156) 
40

>  <original_smiles>  (156) 
COC1C2CCC(OC)C34C(O)CCC3C3(O)C(=O)C5(C=CC=CCC6C(C)C(=O)C(=O)C6O5)C=C3C(O)(C2OC)C14

>  <smiles>  (156) 
[H]OC1=C(C([H])([H])[H])C2([H])C([H])([H])C([H])=C([H])C([H])=C([H])C3(OC2([H])C1=O)C(=O)C1(O[H])C(=C3[H])C2(O[H])C([H])(OC([H])([H])[H])C3([H])C([H])([H])C([H])([H])C([H])(OC([H])([H])[H])C4(C([H])(O[H])C([H])([H])C([H])([H])C14[H])C2([H])C3([H])OC([H])([H])[H]

$$$$
40:3:2
     RDKit          3D

 82 88  0  0  1  0  0  0  0  0999 V2000
   -1.7206   -8.5597    2.7813 C   0  0  0  0  0  0  0  0  0  0  0  0
   -0.3465   -8.6861    2.4157 O   0  0  0  0  0  0  0  0  0  0  0  0
    0.5918   -8.9591    3.4586 C   0  0  2  0  0  0  0  0  0  0  0  0
    0.0689   -8.5458    4.8373 C   0  0  1  0  0  0  0  0  0  0  0  0
    0.5555   -9.5308    5.9394 C   0  0  0  0  0  0  0  0  0  0  0  0
    1.9604  -10.1679    5.7461 C   0  0  0  0  0  0  0  0  0  0  0  0
    3.0736   -9.1377    5.4538 C   0  0  1  0  0  0  0  0  0  0  0  0
    4.3262   -9.6984    5.8561 O   0  0  0  0  0  0  0  0  0  0  0  0
    4.6207   -9.6265    7.2433 C   0  0  0  0  0  0  0  0  0  0  0  0
    3.2091   -8.5885    3.9730 C   0  0  2  0  0  0  0  0  0  0  0  0
    3.9433   -9.6140    3.0695 C   0  0  1  0  0  0  0  0  0  0  0  0
    3.0782  -10.5894    2.5354 O   0  0  0  0  0  0  0  0  0  0  0  0
    4.6480   -8.8288    1.9631 C   0  0  0  0  0  0  0  0  0  0  0  0
    4.8553   -7.4303    2.5404 C   0  0  0  0  0  0  0  0  0  0  0  0
    4.2649   -7.4366    3.9687 C   0  0  1  0  0  0  0  0  0  0  0  0
    3.7573   -6.0719    4.5218 C   0  0  1  0  0  0  0  0  0  0  0  0
    3.6435   -6.0966    5.9359 O   0  0  0  0  0  0  0  0  0  0  0  0
    4.6336   -4.8757    4.1795 C   0  0  0  0  0  0  0  0  0  0  0  0
    5.8533   -4.8644    4.3469 O   0  0  0  0  0  0  0  0  0  0  0  0
    3.8291   -3.7212    3.6053 C   0  0  1  0  0  0  0  0  0  0  0  0
    3.6959   -2.6642    4.7185 C   0  0  0  0  0  0  0  0  0  0  0  0
    4.0372   -1.3546    4.7287 C   0  0  0  0  0  0  0  0  0  0  0  0
    4.5072   -0.6535    3.5624 C   0  0  0  0  0  0  0  0  0  0  0  0
    3.6360   -0.2744    2.6193 C   0  0  0  0  0  0  0  0  0  0  0  0
    4.0033   -0.1899    1.1567 C   0  0  0  0  0  0  0  0  0  0  0  0
    4.5509   -1.5421    0.6735 C   0  0  2  0  0  0  0  0  0  0  0  0
    4.4500   -1.7897   -0.8000 C   0  0  0  0  0  0  0  0  0  0  0  0
    4.8578   -0.7465   -1.8214 C   0  0  0  0  0  0  0  0  0  0  0  0
    4.0336   -3.0420   -1.0756 C   0  0  0  0  0  0  0  0  0  0  0  0
    3.8938   -3.5693   -2.3024 O   0  0  0  0  0  0  0  0  0  0  0  0
    3.7202   -3.7453    0.1683 C   0  0  0  0  0  0  0  0  0  0  0  0
    3.4162   -4.9284    0.3194 O   0  0  0  0  0  0  0  0  0  0  0  0
    3.7978   -2.7554    1.3048 C   0  0  1  0  0  0  0  0  0  0  0  0
    4.5201   -3.2986    2.4085 O   0  0  0  0  0  0  0  0  0  0  0  0
    2.5039   -4.4449    3.3697 C   0  0  0  0  0  0  0  0  0  0  0  0
    2.4570   -5.6691    3.8771 C   0  0  0  0  0  0  0  0  0  0  0  0
    1.3430   -6.7080    3.7448 C   0  0  2  0  0  0  0  0  0  0  0  0
    0.4457   -6.2578    2.7294 O   0  0  0  0  0  0  0  0  0  0  0  0
    0.5662   -7.0886    5.0403 C   0  0  1  0  0  0  0  0  0  0  0  0
   -0.5643   -6.2705    5.2786 O   0  0  0  0  0  0  0  0  0  0  0  0
   -0.2948   -5.0556    5.9554 C   0  0  0  0  0  0  0  0  0  0  0  0
    1.8674   -8.0845    3.2624 C   0  0  2  0  0  0  0  0  0  0  0  0
   -2.3451   -8.4608    1.9141 H   0  0  0  0  0  0  0  0  0  0  0  0
   -1.8338   -7.6566    3.4084 H   0  0  0  0  0  0  0  0  0  0  0  0
   -2.0763   -9.4041    3.3953 H   0  0  0  0  0  0  0  0  0  0  0  0
    0.7925  -10.0198    3.3831 H   0  0  0  0  0  0  0  0  0  0  0  0
   -1.0175   -8.5616    4.8558 H   0  0  0  0  0  0  0  0  0  0  0  0
    0.4931   -9.1045    6.9402 H   0  0  0  0  0  0  0  0  0  0  0  0
   -0.1066  -10.3824    5.9465 H   0  0  0  0  0  0  0  0  0  0  0  0
    2.2082  -10.6503    6.6807 H   0  0  0  0  0  0  0  0  0  0  0  0
    1.9749  -10.9785    5.0094 H   0  0  0  0  0  0  0  0  0  0  0  0
    2.8737   -8.3232    6.1400 H   0  0  0  0  0  0  0  0  0  0  0  0
    5.5795  -10.1102    7.4094 H   0  0  0  0  0  0  0  0  0  0  0  0
    3.8885  -10.1387    7.8667 H   0  0  0  0  0  0  0  0  0  0  0  0
    4.6987   -8.5905    7.5745 H   0  0  0  0  0  0  0  0  0  0  0  0
    4.7430  -10.1301    3.6160 H   0  0  0  0  0  0  0  0  0  0  0  0
    2.9817  -11.2724    3.1821 H   0  0  0  0  0  0  0  0  0  0  0  0
    5.5899   -9.3049    1.6823 H   0  0  0  0  0  0  0  0  0  0  0  0
    4.0403   -8.7845    1.0565 H   0  0  0  0  0  0  0  0  0  0  0  0
    5.9133   -7.1663    2.5500 H   0  0  0  0  0  0  0  0  0  0  0  0
    4.3553   -6.7053    1.8959 H   0  0  0  0  0  0  0  0  0  0  0  0
    5.0938   -7.7615    4.5957 H   0  0  0  0  0  0  0  0  0  0  0  0
    3.1581   -6.8597    6.1975 H   0  0  0  0  0  0  0  0  0  0  0  0
    3.3135   -3.0693    5.6333 H   0  0  0  0  0  0  0  0  0  0  0  0
    3.8899   -0.7988    5.6470 H   0  0  0  0  0  0  0  0  0  0  0  0
    5.5633   -0.7129    3.3404 H   0  0  0  0  0  0  0  0  0  0  0  0
    2.5816   -0.3586    2.8200 H   0  0  0  0  0  0  0  0  0  0  0  0
    3.1097    0.1037    0.5957 H   0  0  0  0  0  0  0  0  0  0  0  0
    4.7634    0.5793    0.9906 H   0  0  0  0  0  0  0  0  0  0  0  0
    5.6042   -1.6109    0.9422 H   0  0  0  0  0  0  0  0  0  0  0  0
    2.7841   -2.4823    1.5976 H   0  0  0  0  0  0  0  0  0  0  0  0
    5.8450   -0.4102   -1.5521 H   0  0  0  0  0  0  0  0  0  0  0  0
    4.2058    0.1032   -1.7656 H   0  0  0  0  0  0  0  0  0  0  0  0
    4.8571   -1.1398   -2.8481 H   0  0  0  0  0  0  0  0  0  0  0  0
    4.1053   -2.9042   -2.9346 H   0  0  0  0  0  0  0  0  0  0  0  0
    1.7000   -3.9713    2.8267 H   0  0  0  0  0  0  0  0  0  0  0  0
    0.0472   -7.0556    2.3963 H   0  0  0  0  0  0  0  0  0  0  0  0
    1.2329   -7.0118    5.9042 H   0  0  0  0  0  0  0  0  0  0  0  0
   -1.2316   -4.5622    6.2001 H   0  0  0  0  0  0  0  0  0  0  0  0
    0.2941   -4.3896    5.3274 H   0  0  0  0  0  0  0  0  0  0  0  0
    0.2345   -5.2367    6.8902 H   0  0  0  0  0  0  0  0  0  0  0  0
    2.0533   -8.0235    2.1864 H   0  0  0  0  0  0  0  0  0  0  0  0
  1  2  1  0
  1 43  1  0
  1 44  1  0
  1 45  1  0
  2  3  1  0
  3 42  1  0
  3  4  1  0
  3 46  1  1
  4 39  1  0
  4  5  1  0
  4 47  1  6
  5  6  1  0
  5 48  1  0
  5 49  1  0
  6  7  1  0
  6 50  1  0
  6 51  1  0
  7  8  1  0
 10  7  1  1
  7 52  1  1
  8  9  1  0
  9 53  1  0
  9 54  1  0
  9 55  1  0
 10 15  1  0
 10 42  1  0
 10 11  1  0
 11 12  1  0
 11 13  1  0
 11 56  1  1
 12 57  1  0
 13 14  1  0
 13 58  1  0
 13 59  1  0
 14 15  1  0
 14 60  1  0
 14 61  1  0
 15 16  1  0
 15 62  1  1
 16 36  1  0
 16 17  1  1
 16 18  1  0
 17 63  1  0
 18 19  2  0
 18 20  1  0
 20 34  1  6
 20 21  1  0
 20 35  1  0
 21 22  2  3
 21 64  1  0
 22 23  1  0
 22 65  1  0
 23 24  2  3
 23 66  1  0
 24 25  1  0
 24 67  1  0
 25 68  1  0
 25 69  1  0
 25 26  1  0
 26 27  1  0
 26 70  1  1
 26 33  1  0
 27 28  1  0
 27 29  2  0
 28 72  1  0
 28 73  1  0
 28 74  1  0
 29 31  1  0
 29 30  1  0
 30 75  1  0
 31 33  1  0
 31 32  2  0
 33 34  1  0
 33 71  1  1
 35 36  2  0
 35 76  1  0
 36 37  1  0
 37 38  1  6
 37 39  1  0
 37 42  1  0
 38 77  1  0
 39 40  1  0
 39 78  1  1
 40 41  1  0
 41 79  1  0
 41 80  1  0
 41 81  1  0
 42 82  1  6
M  END
>  <i_m_ct_stereo_status>  (157) 
1

>  <s_m_source_file>  (157) 
/var/tmp/pbs.5076255.sched01/tmpco4mv84g/486h_uxm9x.sdf

>  <i_m_source_file_index>  (157) 
22

>  <i_lp_mmshare_version>  (157) 
48012

>  <i_f3d_flags>  (157) 
0

>  <s_epik_input>  (157) 
W0NIM11PW0NAQEhdMVtDSDJdW0NIMl1bQ0BASF0oW0NAQEhdMk9bQ0gzXSlbQ0BASF0oT1tDSDNdKVtDQEhdM1tDQF0yKFtPSF0pQyhbQ0BAXTQoW09IXSlbQ0BASF0oW0NAQF0xMzUpW0NIMl1bQ0gyXVtDQEBIXTVbT0hdKT1bQ0hdW0NAXTYoQzQ9TykvW0NIXT1bQ0hdL1tDSF09W0NIXVxbQ0gyXVtDQEhdN1tDQEhdKE82KUMoPU8pQyg9TylbQ0BASF03W0NIM10=

>  <s_epik_cmdline>  (157) 
J2VwaWtfcHl0aG9uJywgJy1waHQnLCAnMi4wJywgJy1waCcsICc3LjAnLCAnLXRuJywgJzgnLCAnLW1hJywgJzIwMCcsICctaW1hZScsICc8aW5maWxlLm1hZT4nLCAnLW9tYWUnLCAnPG91dGZpbGUubWFlPic=

>  <r_lp_tautomer_probability>  (157) 
0.499803

>  <r_epik_Ionization_Penalty>  (157) 
0.00187863

>  <r_epik_Ionization_Penalty_Charging>  (157) 
0

>  <r_epik_Ionization_Penalty_Neutral>  (157) 
0.00187863

>  <r_epik_State_Penalty>  (157) 
0.270233

>  <r_epik_Charging_Adjusted_Penalty>  (157) 
0.270233

>  <i_epik_Tot_Q>  (157) 
0

>  <i_epik_Tot_abs_Q>  (157) 
0

>  <s_lp_Force_Field>  (157) 
OPLS3e

>  <r_lp_Energy>  (157) 
87.2939

>  <b_lp_Chiralities_Consistent>  (157) 
1

>  <s_lp_Variant>  (157) 
40:0-4

>  <s_i_glide_gridfile>  (157) 
pfpi4k_grid

>  <i_i_glide_lignum>  (157) 
22

>  <i_i_glide_rotatable_bonds>  (157) 
7

>  <r_i_docking_score>  (157) 
-2.1521

>  <r_i_glide_ligand_efficiency>  (157) 
-0.0512406

>  <r_i_glide_ligand_efficiency_sa>  (157) 
-0.178114

>  <r_i_glide_ligand_efficiency_ln>  (157) 
-0.454254

>  <r_i_glide_gscore>  (157) 
-2.1521

>  <r_i_glide_lipo>  (157) 
-0.156654

>  <r_i_glide_hbond>  (157) 
0

>  <r_i_glide_metal>  (157) 
-0

>  <r_i_glide_rewards>  (157) 
-0.501074

>  <r_i_glide_evdw>  (157) 
-30.167

>  <r_i_glide_ecoul>  (157) 
0.0993593

>  <r_i_glide_erotb>  (157) 
0

>  <r_i_glide_esite>  (157) 
-0.000928576

>  <r_i_glide_emodel>  (157) 
-24.4566

>  <r_i_glide_energy>  (157) 
-30.0677

>  <r_i_glide_einternal>  (157) 
28.4931

>  <r_i_glide_intrahb_reward>  (157) 
-0.5

>  <i_i_glide_confnum>  (157) 
1

>  <i_i_glide_posenum>  (157) 
1

>  <r_i_glide_eff_state_penalty>  (157) 
0

>  <ligand_id>  (157) 
40

>  <original_smiles>  (157) 
COC1C2CCC(OC)C34C(O)CCC3C3(O)C(=O)C5(C=CC=CCC6C(C)C(=O)C(=O)C6O5)C=C3C(O)(C2OC)C14

>  <smiles>  (157) 
[H]OC1=C(C([H])([H])[H])C2([H])C([H])([H])C([H])=C([H])C([H])=C([H])C3(OC2([H])C1=O)C(=O)C1(O[H])C(=C3[H])C2(O[H])C([H])(OC([H])([H])[H])C3([H])C([H])([H])C([H])([H])C([H])(OC([H])([H])[H])C4(C([H])(O[H])C([H])([H])C([H])([H])C14[H])C2([H])C3([H])OC([H])([H])[H]

$$$$
40:5:0
     RDKit          3D

 82 88  0  0  1  0  0  0  0  0999 V2000
   -0.1802    1.7145    1.6347 C   0  0  0  0  0  0  0  0  0  0  0  0
    1.1383    1.4816    2.1059 O   0  0  0  0  0  0  0  0  0  0  0  0
    1.2659    1.3601    3.5152 C   0  0  2  0  0  0  0  0  0  0  0  0
    2.7713    1.2777    3.8143 C   0  0  1  0  0  0  0  0  0  0  0  0
    3.1040    2.0276    5.1154 C   0  0  0  0  0  0  0  0  0  0  0  0
    2.0262    2.0423    6.2148 C   0  0  0  0  0  0  0  0  0  0  0  0
    1.4111    0.6585    6.6132 C   0  0  1  0  0  0  0  0  0  0  0  0
    0.7941    0.6538    7.9051 O   0  0  0  0  0  0  0  0  0  0  0  0
    1.1947    1.5864    8.8996 C   0  0  0  0  0  0  0  0  0  0  0  0
    0.3576    0.0171    5.6069 C   0  0  2  0  0  0  0  0  0  0  0  0
   -1.0681    0.6273    5.8314 C   0  0  1  0  0  0  0  0  0  0  0  0
   -1.3303    1.8830    5.2276 O   0  0  0  0  0  0  0  0  0  0  0  0
   -2.0880   -0.4251    5.3772 C   0  0  0  0  0  0  0  0  0  0  0  0
   -1.3558   -1.7698    5.4623 C   0  0  0  0  0  0  0  0  0  0  0  0
    0.0645   -1.4652    6.0054 C   0  0  1  0  0  0  0  0  0  0  0  0
    1.1846   -2.4858    5.6292 C   0  0  1  0  0  0  0  0  0  0  0  0
    2.2822   -2.3878    6.4989 O   0  0  0  0  0  0  0  0  0  0  0  0
    0.7471   -3.9516    5.6244 C   0  0  0  0  0  0  0  0  0  0  0  0
   -0.1268   -4.3836    6.3668 O   0  0  0  0  0  0  0  0  0  0  0  0
    1.4006   -4.7344    4.4653 C   0  0  1  0  0  0  0  0  0  0  0  0
    2.7390   -5.3612    4.8589 C   0  0  0  0  0  0  0  0  0  0  0  0
    3.6430   -5.8959    4.0117 C   0  0  0  0  0  0  0  0  0  0  0  0
    3.4435   -6.0123    2.5816 C   0  0  0  0  0  0  0  0  0  0  0  0
    2.6837   -6.9375    1.9669 C   0  0  0  0  0  0  0  0  0  0  0  0
    2.0401   -8.1589    2.6142 C   0  0  0  0  0  0  0  0  0  0  0  0
    0.5577   -7.9726    3.0660 C   0  0  1  0  0  0  0  0  0  0  0  0
   -0.0026   -9.2653    3.7721 C   0  0  1  0  0  0  0  0  0  0  0  0
    0.4136  -10.6200    3.2225 C   0  0  0  0  0  0  0  0  0  0  0  0
    0.4050   -9.0130    5.2279 C   0  0  0  0  0  0  0  0  0  0  0  0
    0.4823   -9.8683    6.0957 O   0  0  0  0  0  0  0  0  0  0  0  0
    0.5696   -7.5832    5.3869 C   0  0  0  0  0  0  0  0  0  0  0  0
    0.6140   -7.0693    6.6257 O   0  0  0  0  0  0  0  0  0  0  0  0
    0.5197   -6.9840    4.2060 C   0  0  0  0  0  0  0  0  0  0  0  0
    0.4942   -5.6368    3.8289 O   0  0  0  0  0  0  0  0  0  0  0  0
    1.6905   -3.5402    3.5733 C   0  0  0  0  0  0  0  0  0  0  0  0
    1.6422   -2.3517    4.2114 C   0  0  0  0  0  0  0  0  0  0  0  0
    1.7760   -0.9910    3.5776 C   0  0  2  0  0  0  0  0  0  0  0  0
    1.5969   -1.1195    2.1752 O   0  0  0  0  0  0  0  0  0  0  0  0
    3.0997   -0.2409    3.8944 C   0  0  1  0  0  0  0  0  0  0  0  0
    4.1718   -0.6470    3.0431 O   0  0  0  0  0  0  0  0  0  0  0  0
    5.4571   -0.2596    3.5156 C   0  0  0  0  0  0  0  0  0  0  0  0
    0.7065    0.0238    4.0568 C   0  0  2  0  0  0  0  0  0  0  0  0
   -0.1288    1.8926    0.5626 H   0  0  0  0  0  0  0  0  0  0  0  0
   -0.6479    2.5725    2.1172 H   0  0  0  0  0  0  0  0  0  0  0  0
   -0.8169    0.8441    1.7686 H   0  0  0  0  0  0  0  0  0  0  0  0
    0.8097    2.2447    3.9440 H   0  0  0  0  0  0  0  0  0  0  0  0
    3.3540    1.7397    3.0084 H   0  0  0  0  0  0  0  0  0  0  0  0
    4.0404    1.6484    5.5205 H   0  0  0  0  0  0  0  0  0  0  0  0
    3.3085    3.0640    4.8600 H   0  0  0  0  0  0  0  0  0  0  0  0
    2.5567    2.4360    7.0893 H   0  0  0  0  0  0  0  0  0  0  0  0
    1.2404    2.7681    5.9826 H   0  0  0  0  0  0  0  0  0  0  0  0
    2.2854    0.0211    6.7421 H   0  0  0  0  0  0  0  0  0  0  0  0
    0.6852    1.3992    9.8295 H   0  0  0  0  0  0  0  0  0  0  0  0
    0.9672    2.5984    8.5423 H   0  0  0  0  0  0  0  0  0  0  0  0
    2.2725    1.5362    9.0951 H   0  0  0  0  0  0  0  0  0  0  0  0
   -1.2497    0.7603    6.8938 H   0  0  0  0  0  0  0  0  0  0  0  0
   -1.2187    1.7878    4.3033 H   0  0  0  0  0  0  0  0  0  0  0  0
   -2.9737   -0.3778    6.0117 H   0  0  0  0  0  0  0  0  0  0  0  0
   -2.4219   -0.2461    4.3560 H   0  0  0  0  0  0  0  0  0  0  0  0
   -1.9049   -2.4732    6.0878 H   0  0  0  0  0  0  0  0  0  0  0  0
   -1.3143   -2.2076    4.4650 H   0  0  0  0  0  0  0  0  0  0  0  0
   -0.0478   -1.4991    7.0885 H   0  0  0  0  0  0  0  0  0  0  0  0
    2.9548   -2.9530    6.1675 H   0  0  0  0  0  0  0  0  0  0  0  0
    2.9638   -5.3395    5.9151 H   0  0  0  0  0  0  0  0  0  0  0  0
    4.5755   -6.2484    4.4280 H   0  0  0  0  0  0  0  0  0  0  0  0
    3.8855   -5.2546    1.9562 H   0  0  0  0  0  0  0  0  0  0  0  0
    2.5569   -6.8715    0.9047 H   0  0  0  0  0  0  0  0  0  0  0  0
    2.0952   -8.9691    1.8813 H   0  0  0  0  0  0  0  0  0  0  0  0
    2.6470   -8.4702    3.4631 H   0  0  0  0  0  0  0  0  0  0  0  0
   -0.1012   -7.6475    2.2743 H   0  0  0  0  0  0  0  0  0  0  0  0
   -1.0968   -9.2231    3.7544 H   0  0  0  0  0  0  0  0  0  0  0  0
   -0.1224  -11.4085    3.7445 H   0  0  0  0  0  0  0  0  0  0  0  0
    1.4716  -10.8214    3.3604 H   0  0  0  0  0  0  0  0  0  0  0  0
    0.1822  -10.7103    2.1633 H   0  0  0  0  0  0  0  0  0  0  0  0
    0.6650   -7.7867    7.2367 H   0  0  0  0  0  0  0  0  0  0  0  0
    1.8932   -3.6526    2.5262 H   0  0  0  0  0  0  0  0  0  0  0  0
    1.5545   -0.2450    1.8305 H   0  0  0  0  0  0  0  0  0  0  0  0
    3.3806   -0.5045    4.9160 H   0  0  0  0  0  0  0  0  0  0  0  0
    6.2073   -0.5811    2.7948 H   0  0  0  0  0  0  0  0  0  0  0  0
    5.6813   -0.7401    4.4667 H   0  0  0  0  0  0  0  0  0  0  0  0
    5.5481    0.8173    3.6515 H   0  0  0  0  0  0  0  0  0  0  0  0
   -0.2124   -0.2418    3.5379 H   0  0  0  0  0  0  0  0  0  0  0  0
  1  2  1  0
  1 43  1  0
  1 44  1  0
  1 45  1  0
  2  3  1  0
  3 42  1  0
  3  4  1  0
  3 46  1  1
  4 39  1  0
  4  5  1  0
  4 47  1  6
  5  6  1  0
  5 48  1  0
  5 49  1  0
  6  7  1  0
  6 50  1  0
  6 51  1  0
  7  8  1  0
 10  7  1  1
  7 52  1  1
  8  9  1  0
  9 53  1  0
  9 54  1  0
  9 55  1  0
 10 15  1  0
 10 42  1  0
 10 11  1  0
 11 12  1  0
 11 13  1  0
 11 56  1  1
 12 57  1  0
 13 14  1  0
 13 58  1  0
 13 59  1  0
 14 15  1  0
 14 60  1  0
 14 61  1  0
 15 16  1  0
 15 62  1  1
 16 36  1  0
 16 17  1  1
 16 18  1  0
 17 63  1  0
 18 19  2  0
 18 20  1  0
 20 34  1  6
 20 21  1  0
 20 35  1  0
 21 22  2  3
 21 64  1  0
 22 23  1  0
 22 65  1  0
 23 24  2  3
 23 66  1  0
 24 25  1  0
 24 67  1  0
 25 68  1  0
 25 69  1  0
 25 26  1  0
 26 27  1  0
 26 70  1  6
 26 33  1  0
 27 28  1  0
 27 71  1  1
 27 29  1  0
 28 72  1  0
 28 73  1  0
 28 74  1  0
 29 31  1  0
 29 30  2  0
 31 33  2  0
 31 32  1  0
 32 75  1  0
 33 34  1  0
 35 36  2  0
 35 76  1  0
 36 37  1  0
 37 38  1  6
 37 39  1  0
 37 42  1  0
 38 77  1  0
 39 40  1  0
 39 78  1  1
 40 41  1  0
 41 79  1  0
 41 80  1  0
 41 81  1  0
 42 82  1  6
M  END
>  <i_m_ct_stereo_status>  (158) 
1

>  <s_m_source_file>  (158) 
/var/tmp/pbs.5076255.sched01/tmpco4mv84g/486h_uxm9x.sdf

>  <i_m_source_file_index>  (158) 
24

>  <i_lp_mmshare_version>  (158) 
48012

>  <i_f3d_flags>  (158) 
0

>  <s_epik_input>  (158) 
W0NIM11PW0NAQEhdMVtDSDJdW0NIMl1bQ0BASF0oW0NAQEhdMk9bQ0gzXSlbQ0BASF0oT1tDSDNdKVtDQEhdM1tDQF0yKFtPSF0pQyhbQ0BAXTQoW09IXSlbQ0BASF0oW0NAQF0xMzUpW0NIMl1bQ0gyXVtDQEBIXTVbT0hdKT1bQ0hdW0NAXTYoQzQ9TykvW0NIXT1bQ0hdL1tDSF09W0NIXVxbQ0gyXVtDQEhdN1tDQEhdKE82KUMoPU8pQyg9TylbQ0BASF03W0NIM10=

>  <s_epik_cmdline>  (158) 
J2VwaWtfcHl0aG9uJywgJy1waHQnLCAnMi4wJywgJy1waCcsICc3LjAnLCAnLXRuJywgJzgnLCAnLW1hJywgJzIwMCcsICctaW1hZScsICc8aW5maWxlLm1hZT4nLCAnLW9tYWUnLCAnPG91dGZpbGUubWFlPic=

>  <r_lp_tautomer_probability>  (158) 
0.499803

>  <r_epik_Ionization_Penalty>  (158) 
0.0152423

>  <r_epik_Ionization_Penalty_Charging>  (158) 
0

>  <r_epik_Ionization_Penalty_Neutral>  (158) 
0.0152423

>  <r_epik_State_Penalty>  (158) 
0.605736

>  <r_epik_Charging_Adjusted_Penalty>  (158) 
0.605736

>  <i_epik_Tot_Q>  (158) 
0

>  <i_epik_Tot_abs_Q>  (158) 
0

>  <s_lp_Force_Field>  (158) 
OPLS3e

>  <r_lp_Energy>  (158) 
86.4546

>  <b_lp_Chiralities_Consistent>  (158) 
1

>  <s_lp_Variant>  (158) 
40:0-6

>  <s_i_glide_gridfile>  (158) 
pfpi4k_grid

>  <i_i_glide_lignum>  (158) 
24

>  <i_i_glide_rotatable_bonds>  (158) 
7

>  <r_i_docking_score>  (158) 
-2.29337

>  <r_i_glide_ligand_efficiency>  (158) 
-0.054604

>  <r_i_glide_ligand_efficiency_sa>  (158) 
-0.189805

>  <r_i_glide_ligand_efficiency_ln>  (158) 
-0.484071

>  <r_i_glide_gscore>  (158) 
-2.29337

>  <r_i_glide_lipo>  (158) 
-0.163857

>  <r_i_glide_hbond>  (158) 
0

>  <r_i_glide_metal>  (158) 
-0

>  <r_i_glide_rewards>  (158) 
-0.5

>  <r_i_glide_evdw>  (158) 
-31.0852

>  <r_i_glide_ecoul>  (158) 
-0.147961

>  <r_i_glide_erotb>  (158) 
0

>  <r_i_glide_esite>  (158) 
-0.0530596

>  <r_i_glide_emodel>  (158) 
-32.3952

>  <r_i_glide_energy>  (158) 
-31.2331

>  <r_i_glide_einternal>  (158) 
17.492

>  <r_i_glide_intrahb_reward>  (158) 
-0.5

>  <i_i_glide_confnum>  (158) 
2

>  <i_i_glide_posenum>  (158) 
29

>  <r_i_glide_eff_state_penalty>  (158) 
0

>  <ligand_id>  (158) 
40

>  <original_smiles>  (158) 
COC1C2CCC(OC)C34C(O)CCC3C3(O)C(=O)C5(C=CC=CCC6C(C)C(=O)C(=O)C6O5)C=C3C(O)(C2OC)C14

>  <smiles>  (158) 
[H]OC1=C2OC3(C(=O)C4(O[H])C(=C3[H])C3(O[H])C([H])(OC([H])([H])[H])C5([H])C([H])([H])C([H])([H])C([H])(OC([H])([H])[H])C6(C([H])(O[H])C([H])([H])C([H])([H])C46[H])C3([H])C5([H])OC([H])([H])[H])C([H])=C([H])C([H])=C([H])C([H])([H])C2([H])C([H])(C([H])([H])[H])C1=O

$$$$
40:5:1
     RDKit          3D

 82 88  0  0  1  0  0  0  0  0999 V2000
    2.1999    3.6294    2.7404 C   0  0  0  0  0  0  0  0  0  0  0  0
    1.9184    2.2495    2.9640 O   0  0  0  0  0  0  0  0  0  0  0  0
    1.7212    1.8995    4.3304 C   0  0  2  0  0  0  0  0  0  0  0  0
    3.0645    1.7502    5.0608 C   0  0  1  0  0  0  0  0  0  0  0  0
    2.9683    2.3268    6.4928 C   0  0  0  0  0  0  0  0  0  0  0  0
    1.6115    2.1444    7.2157 C   0  0  0  0  0  0  0  0  0  0  0  0
    1.0402    0.7124    7.1749 C   0  0  1  0  0  0  0  0  0  0  0  0
    0.1252    0.5523    8.2642 O   0  0  0  0  0  0  0  0  0  0  0  0
    0.7035    0.2440    9.5274 C   0  0  0  0  0  0  0  0  0  0  0  0
    0.3186    0.2443    5.8393 C   0  0  2  0  0  0  0  0  0  0  0  0
   -1.1364    0.8107    5.7481 C   0  0  1  0  0  0  0  0  0  0  0  0
   -1.2858    2.1322    5.2681 O   0  0  0  0  0  0  0  0  0  0  0  0
   -1.9446   -0.1887    4.9131 C   0  0  0  0  0  0  0  0  0  0  0  0
   -1.2095   -1.5219    5.0413 C   0  0  0  0  0  0  0  0  0  0  0  0
   -0.0075   -1.2761    5.9756 C   0  0  1  0  0  0  0  0  0  0  0  0
    1.2122   -2.2364    5.8168 C   0  0  1  0  0  0  0  0  0  0  0  0
    2.0193   -2.2416    6.9708 O   0  0  0  0  0  0  0  0  0  0  0  0
    0.8591   -3.6920    5.5172 C   0  0  0  0  0  0  0  0  0  0  0  0
   -0.1403   -4.2451    5.9723 O   0  0  0  0  0  0  0  0  0  0  0  0
    1.8485   -4.3154    4.5173 C   0  0  1  0  0  0  0  0  0  0  0  0
    3.0605   -4.9651    5.1982 C   0  0  0  0  0  0  0  0  0  0  0  0
    4.1920   -5.3740    4.5848 C   0  0  0  0  0  0  0  0  0  0  0  0
    4.4021   -5.3153    3.1489 C   0  0  0  0  0  0  0  0  0  0  0  0
    3.8770   -6.1676    2.2463 C   0  0  0  0  0  0  0  0  0  0  0  0
    3.1275   -7.4621    2.5352 C   0  0  0  0  0  0  0  0  0  0  0  0
    1.5729   -7.3654    2.5779 C   0  0  1  0  0  0  0  0  0  0  0  0
    0.8954   -8.7214    2.9392 C   0  0  1  0  0  0  0  0  0  0  0  0
    1.5083  -10.0010    2.3730 C   0  0  0  0  0  0  0  0  0  0  0  0
    0.8677   -8.6682    4.4619 C   0  0  0  0  0  0  0  0  0  0  0  0
    0.7685   -9.6469    5.2011 O   0  0  0  0  0  0  0  0  0  0  0  0
    0.9160   -7.2732    4.8585 C   0  0  0  0  0  0  0  0  0  0  0  0
    0.6116   -6.9212    6.1108 O   0  0  0  0  0  0  0  0  0  0  0  0
    1.1812   -6.5281    3.7707 C   0  0  0  0  0  0  0  0  0  0  0  0
    1.1888   -5.1625    3.5712 O   0  0  0  0  0  0  0  0  0  0  0  0
    2.3063   -3.0174    3.8791 C   0  0  0  0  0  0  0  0  0  0  0  0
    2.0348   -1.9159    4.5992 C   0  0  0  0  0  0  0  0  0  0  0  0
    2.3019   -0.4619    4.2074 C   0  0  2  0  0  0  0  0  0  0  0  0
    2.6393   -0.4238    2.8232 O   0  0  0  0  0  0  0  0  0  0  0  0
    3.4349    0.2375    5.0022 C   0  0  1  0  0  0  0  0  0  0  0  0
    4.7171   -0.0262    4.4337 O   0  0  0  0  0  0  0  0  0  0  0  0
    5.8157    0.4063    5.2239 C   0  0  0  0  0  0  0  0  0  0  0  0
    1.0947    0.4898    4.4647 C   0  0  2  0  0  0  0  0  0  0  0  0
    2.3989    3.8030    1.6807 H   0  0  0  0  0  0  0  0  0  0  0  0
    3.0698    3.9908    3.2902 H   0  0  0  0  0  0  0  0  0  0  0  0
    1.3446    4.2494    3.0066 H   0  0  0  0  0  0  0  0  0  0  0  0
    1.0890    2.6742    4.7519 H   0  0  0  0  0  0  0  0  0  0  0  0
    3.8389    2.3103    4.5380 H   0  0  0  0  0  0  0  0  0  0  0  0
    3.7778    1.9318    7.1070 H   0  0  0  0  0  0  0  0  0  0  0  0
    3.1527    3.4001    6.4420 H   0  0  0  0  0  0  0  0  0  0  0  0
    1.7944    2.4309    8.2478 H   0  0  0  0  0  0  0  0  0  0  0  0
    0.8607    2.8597    6.8787 H   0  0  0  0  0  0  0  0  0  0  0  0
    1.8834    0.0725    7.3954 H   0  0  0  0  0  0  0  0  0  0  0  0
   -0.0849    0.1816   10.2768 H   0  0  0  0  0  0  0  0  0  0  0  0
    1.4073    1.0045    9.8634 H   0  0  0  0  0  0  0  0  0  0  0  0
    1.2176   -0.7167    9.5033 H   0  0  0  0  0  0  0  0  0  0  0  0
   -1.5993    0.8111    6.7354 H   0  0  0  0  0  0  0  0  0  0  0  0
   -0.9453    2.1799    4.3844 H   0  0  0  0  0  0  0  0  0  0  0  0
   -2.9699   -0.2607    5.2756 H   0  0  0  0  0  0  0  0  0  0  0  0
   -1.9891    0.1120    3.8666 H   0  0  0  0  0  0  0  0  0  0  0  0
   -1.8710   -2.2910    5.4404 H   0  0  0  0  0  0  0  0  0  0  0  0
   -0.8819   -1.8552    4.0581 H   0  0  0  0  0  0  0  0  0  0  0  0
   -0.4003   -1.4543    6.9749 H   0  0  0  0  0  0  0  0  0  0  0  0
    2.8049   -2.7342    6.7742 H   0  0  0  0  0  0  0  0  0  0  0  0
    2.9985   -5.0622    6.2721 H   0  0  0  0  0  0  0  0  0  0  0  0
    4.9864   -5.7711    5.1988 H   0  0  0  0  0  0  0  0  0  0  0  0
    4.9690   -4.4802    2.7724 H   0  0  0  0  0  0  0  0  0  0  0  0
    4.0538   -5.9644    1.2006 H   0  0  0  0  0  0  0  0  0  0  0  0
    3.4292   -8.1687    1.7601 H   0  0  0  0  0  0  0  0  0  0  0  0
    3.5018   -7.8717    3.4753 H   0  0  0  0  0  0  0  0  0  0  0  0
    1.1619   -6.9480    1.6621 H   0  0  0  0  0  0  0  0  0  0  0  0
   -0.1437   -8.6753    2.6126 H   0  0  0  0  0  0  0  0  0  0  0  0
    0.8714  -10.8590    2.5963 H   0  0  0  0  0  0  0  0  0  0  0  0
    2.4940  -10.2083    2.7874 H   0  0  0  0  0  0  0  0  0  0  0  0
    1.6060   -9.9252    1.2921 H   0  0  0  0  0  0  0  0  0  0  0  0
    0.5176   -7.7252    6.6019 H   0  0  0  0  0  0  0  0  0  0  0  0
    2.8042   -3.0158    2.9244 H   0  0  0  0  0  0  0  0  0  0  0  0
    1.8457   -0.4558    2.3069 H   0  0  0  0  0  0  0  0  0  0  0  0
    3.4596   -0.1748    6.0066 H   0  0  0  0  0  0  0  0  0  0  0  0
    6.7441    0.1686    4.7071 H   0  0  0  0  0  0  0  0  0  0  0  0
    5.8284   -0.0978    6.1891 H   0  0  0  0  0  0  0  0  0  0  0  0
    5.8020    1.4817    5.3946 H   0  0  0  0  0  0  0  0  0  0  0  0
    0.3830    0.3653    3.6468 H   0  0  0  0  0  0  0  0  0  0  0  0
  1  2  1  0
  1 43  1  0
  1 44  1  0
  1 45  1  0
  2  3  1  0
  3 42  1  0
  3  4  1  0
  3 46  1  1
  4 39  1  0
  4  5  1  0
  4 47  1  6
  5  6  1  0
  5 48  1  0
  5 49  1  0
  6  7  1  0
  6 50  1  0
  6 51  1  0
  7  8  1  0
 10  7  1  1
  7 52  1  1
  8  9  1  0
  9 53  1  0
  9 54  1  0
  9 55  1  0
 10 15  1  0
 10 42  1  0
 10 11  1  0
 11 12  1  0
 11 13  1  0
 11 56  1  1
 12 57  1  0
 13 14  1  0
 13 58  1  0
 13 59  1  0
 14 15  1  0
 14 60  1  0
 14 61  1  0
 15 16  1  0
 15 62  1  1
 16 36  1  0
 16 17  1  1
 16 18  1  0
 17 63  1  0
 18 19  2  0
 18 20  1  0
 20 34  1  6
 20 21  1  0
 20 35  1  0
 21 22  2  3
 21 64  1  0
 22 23  1  0
 22 65  1  0
 23 24  2  3
 23 66  1  0
 24 25  1  0
 24 67  1  0
 25 68  1  0
 25 69  1  0
 25 26  1  0
 26 27  1  0
 26 70  1  6
 26 33  1  0
 27 28  1  0
 27 71  1  6
 27 29  1  0
 28 72  1  0
 28 73  1  0
 28 74  1  0
 29 31  1  0
 29 30  2  0
 31 33  2  0
 31 32  1  0
 32 75  1  0
 33 34  1  0
 35 36  2  0
 35 76  1  0
 36 37  1  0
 37 38  1  6
 37 39  1  0
 37 42  1  0
 38 77  1  0
 39 40  1  0
 39 78  1  1
 40 41  1  0
 41 79  1  0
 41 80  1  0
 41 81  1  0
 42 82  1  6
M  END
>  <i_m_ct_stereo_status>  (159) 
1

>  <s_m_source_file>  (159) 
/var/tmp/pbs.5076255.sched01/tmpco4mv84g/486h_uxm9x.sdf

>  <i_m_source_file_index>  (159) 
24

>  <i_lp_mmshare_version>  (159) 
48012

>  <i_f3d_flags>  (159) 
0

>  <s_epik_input>  (159) 
W0NIM11PW0NAQEhdMVtDSDJdW0NIMl1bQ0BASF0oW0NAQEhdMk9bQ0gzXSlbQ0BASF0oT1tDSDNdKVtDQEhdM1tDQF0yKFtPSF0pQyhbQ0BAXTQoW09IXSlbQ0BASF0oW0NAQF0xMzUpW0NIMl1bQ0gyXVtDQEBIXTVbT0hdKT1bQ0hdW0NAXTYoQzQ9TykvW0NIXT1bQ0hdL1tDSF09W0NIXVxbQ0gyXVtDQEhdN1tDQEhdKE82KUMoPU8pQyg9TylbQ0BASF03W0NIM10=

>  <s_epik_cmdline>  (159) 
J2VwaWtfcHl0aG9uJywgJy1waHQnLCAnMi4wJywgJy1waCcsICc3LjAnLCAnLXRuJywgJzgnLCAnLW1hJywgJzIwMCcsICctaW1hZScsICc8aW5maWxlLm1hZT4nLCAnLW9tYWUnLCAnPG91dGZpbGUubWFlPic=

>  <r_lp_tautomer_probability>  (159) 
0.499803

>  <r_epik_Ionization_Penalty>  (159) 
0.0152423

>  <r_epik_Ionization_Penalty_Charging>  (159) 
0

>  <r_epik_Ionization_Penalty_Neutral>  (159) 
0.0152423

>  <r_epik_State_Penalty>  (159) 
0.605736

>  <r_epik_Charging_Adjusted_Penalty>  (159) 
0.605736

>  <i_epik_Tot_Q>  (159) 
0

>  <i_epik_Tot_abs_Q>  (159) 
0

>  <s_lp_Force_Field>  (159) 
OPLS3e

>  <r_lp_Energy>  (159) 
86.4546

>  <b_lp_Chiralities_Consistent>  (159) 
1

>  <s_lp_Variant>  (159) 
40:0-6

>  <s_i_glide_gridfile>  (159) 
pfpi4k_grid

>  <i_i_glide_lignum>  (159) 
24

>  <i_i_glide_rotatable_bonds>  (159) 
7

>  <r_i_docking_score>  (159) 
-1.88284

>  <r_i_glide_ligand_efficiency>  (159) 
-0.0448295

>  <r_i_glide_ligand_efficiency_sa>  (159) 
-0.155828

>  <r_i_glide_ligand_efficiency_ln>  (159) 
-0.397418

>  <r_i_glide_gscore>  (159) 
-1.88284

>  <r_i_glide_lipo>  (159) 
-0.251856

>  <r_i_glide_hbond>  (159) 
0

>  <r_i_glide_metal>  (159) 
-0

>  <r_i_glide_rewards>  (159) 
0

>  <r_i_glide_evdw>  (159) 
-27.5922

>  <r_i_glide_ecoul>  (159) 
-1.50039

>  <r_i_glide_erotb>  (159) 
0

>  <r_i_glide_esite>  (159) 
-0.0263125

>  <r_i_glide_emodel>  (159) 
-31.1696

>  <r_i_glide_energy>  (159) 
-29.0926

>  <r_i_glide_einternal>  (159) 
4.40424

>  <r_i_glide_intrahb_reward>  (159) 
-0

>  <i_i_glide_confnum>  (159) 
2

>  <i_i_glide_posenum>  (159) 
1

>  <r_i_glide_eff_state_penalty>  (159) 
0

>  <ligand_id>  (159) 
40

>  <original_smiles>  (159) 
COC1C2CCC(OC)C34C(O)CCC3C3(O)C(=O)C5(C=CC=CCC6C(C)C(=O)C(=O)C6O5)C=C3C(O)(C2OC)C14

>  <smiles>  (159) 
[H]OC1=C2OC3(C(=O)C4(O[H])C(=C3[H])C3(O[H])C([H])(OC([H])([H])[H])C5([H])C([H])([H])C([H])([H])C([H])(OC([H])([H])[H])C6(C([H])(O[H])C([H])([H])C([H])([H])C46[H])C3([H])C5([H])OC([H])([H])[H])C([H])=C([H])C([H])=C([H])C([H])([H])C2([H])C([H])(C([H])([H])[H])C1=O

$$$$
40:5:2
     RDKit          3D

 82 88  0  0  1  0  0  0  0  0999 V2000
    0.0016    1.9843    4.2816 C   0  0  0  0  0  0  0  0  0  0  0  0
    1.2887    1.5602    3.8532 O   0  0  0  0  0  0  0  0  0  0  0  0
    2.1614    1.1271    4.8930 C   0  0  2  0  0  0  0  0  0  0  0  0
    3.5771    1.0206    4.3113 C   0  0  1  0  0  0  0  0  0  0  0  0
    4.6247    1.5202    5.3317 C   0  0  0  0  0  0  0  0  0  0  0  0
    4.3227    1.2357    6.8217 C   0  0  0  0  0  0  0  0  0  0  0  0
    3.9240   -0.2188    7.1341 C   0  0  1  0  0  0  0  0  0  0  0  0
    4.1914   -0.4673    8.5141 O   0  0  0  0  0  0  0  0  0  0  0  0
    5.5270   -0.8234    8.8463 C   0  0  0  0  0  0  0  0  0  0  0  0
    2.4340   -0.6625    6.8173 C   0  0  2  0  0  0  0  0  0  0  0  0
    1.4428   -0.1648    7.9196 C   0  0  1  0  0  0  0  0  0  0  0  0
    0.9845    1.1693    7.8143 O   0  0  0  0  0  0  0  0  0  0  0  0
    0.2722   -1.1558    7.9384 C   0  0  0  0  0  0  0  0  0  0  0  0
    0.8250   -2.4583    7.3523 C   0  0  0  0  0  0  0  0  0  0  0  0
    2.3192   -2.2038    7.0407 C   0  0  1  0  0  0  0  0  0  0  0  0
    2.9706   -3.0873    5.9297 C   0  0  1  0  0  0  0  0  0  0  0  0
    4.3763   -3.1136    6.0325 O   0  0  0  0  0  0  0  0  0  0  0  0
    2.5045   -4.5411    5.9041 C   0  0  0  0  0  0  0  0  0  0  0  0
    2.2153   -5.1674    6.9218 O   0  0  0  0  0  0  0  0  0  0  0  0
    2.3566   -5.0583    4.4642 C   0  0  1  0  0  0  0  0  0  0  0  0
    3.6483   -5.6790    3.9169 C   0  0  0  0  0  0  0  0  0  0  0  0
    3.8878   -5.9994    2.6274 C   0  0  0  0  0  0  0  0  0  0  0  0
    2.9120   -5.8563    1.5618 C   0  0  0  0  0  0  0  0  0  0  0  0
    1.8745   -6.6866    1.3405 C   0  0  0  0  0  0  0  0  0  0  0  0
    1.6189   -8.0271    2.0178 C   0  0  0  0  0  0  0  0  0  0  0  0
    0.6583   -8.0164    3.2422 C   0  0  1  0  0  0  0  0  0  0  0  0
    0.4934   -9.4259    3.8920 C   0  0  1  0  0  0  0  0  0  0  0  0
    0.4404  -10.6460    2.9716 C   0  0  0  0  0  0  0  0  0  0  0  0
    1.6608   -9.4501    4.8717 C   0  0  0  0  0  0  0  0  0  0  0  0
    2.1834  -10.4703    5.3172 O   0  0  0  0  0  0  0  0  0  0  0  0
    2.0083   -8.0750    5.1909 C   0  0  0  0  0  0  0  0  0  0  0  0
    2.7876   -7.8028    6.2395 O   0  0  0  0  0  0  0  0  0  0  0  0
    1.3374   -7.2622    4.3542 C   0  0  0  0  0  0  0  0  0  0  0  0
    1.2019   -5.8887    4.3101 O   0  0  0  0  0  0  0  0  0  0  0  0
    2.1606   -3.7075    3.8000 C   0  0  0  0  0  0  0  0  0  0  0  0
    2.5552   -2.6639    4.5485 C   0  0  0  0  0  0  0  0  0  0  0  0
    2.4309   -1.1824    4.2104 C   0  0  2  0  0  0  0  0  0  0  0  0
    1.5620   -1.0397    3.0955 O   0  0  0  0  0  0  0  0  0  0  0  0
    3.7636   -0.4661    3.8870 C   0  0  1  0  0  0  0  0  0  0  0  0
    4.1219   -0.6319    2.5168 O   0  0  0  0  0  0  0  0  0  0  0  0
    5.5209   -0.7042    2.2817 C   0  0  0  0  0  0  0  0  0  0  0  0
    1.8656   -0.3179    5.3706 C   0  0  2  0  0  0  0  0  0  0  0  0
   -0.5755    2.3197    3.4193 H   0  0  0  0  0  0  0  0  0  0  0  0
    0.0634    2.8172    4.9830 H   0  0  0  0  0  0  0  0  0  0  0  0
   -0.5564    1.1758    4.7515 H   0  0  0  0  0  0  0  0  0  0  0  0
    2.1039    1.8758    5.6759 H   0  0  0  0  0  0  0  0  0  0  0  0
    3.6583    1.6520    3.4251 H   0  0  0  0  0  0  0  0  0  0  0  0
    5.6111    1.1373    5.0644 H   0  0  0  0  0  0  0  0  0  0  0  0
    4.7014    2.6031    5.2397 H   0  0  0  0  0  0  0  0  0  0  0  0
    5.2407    1.4810    7.3507 H   0  0  0  0  0  0  0  0  0  0  0  0
    3.5914    1.9278    7.2373 H   0  0  0  0  0  0  0  0  0  0  0  0
    4.6292   -0.8232    6.5811 H   0  0  0  0  0  0  0  0  0  0  0  0
    5.5959   -0.9625    9.9250 H   0  0  0  0  0  0  0  0  0  0  0  0
    6.2432   -0.0496    8.5741 H   0  0  0  0  0  0  0  0  0  0  0  0
    5.8234   -1.7589    8.3708 H   0  0  0  0  0  0  0  0  0  0  0  0
    1.9066   -0.2434    8.9049 H   0  0  0  0  0  0  0  0  0  0  0  0
    0.6746    1.3215    6.9327 H   0  0  0  0  0  0  0  0  0  0  0  0
   -0.0857   -1.2922    8.9608 H   0  0  0  0  0  0  0  0  0  0  0  0
   -0.5650   -0.8000    7.3348 H   0  0  0  0  0  0  0  0  0  0  0  0
    0.7024   -3.2841    8.0551 H   0  0  0  0  0  0  0  0  0  0  0  0
    0.2634   -2.7199    6.4540 H   0  0  0  0  0  0  0  0  0  0  0  0
    2.8334   -2.4459    7.9716 H   0  0  0  0  0  0  0  0  0  0  0  0
    4.6967   -2.2246    6.0107 H   0  0  0  0  0  0  0  0  0  0  0  0
    4.4366   -5.8248    4.6404 H   0  0  0  0  0  0  0  0  0  0  0  0
    4.8636   -6.3882    2.3764 H   0  0  0  0  0  0  0  0  0  0  0  0
    2.9940   -4.9790    0.9408 H   0  0  0  0  0  0  0  0  0  0  0  0
    1.1851   -6.4385    0.5492 H   0  0  0  0  0  0  0  0  0  0  0  0
    1.2024   -8.6772    1.2536 H   0  0  0  0  0  0  0  0  0  0  0  0
    2.5792   -8.4698    2.2902 H   0  0  0  0  0  0  0  0  0  0  0  0
   -0.3054   -7.5732    3.0095 H   0  0  0  0  0  0  0  0  0  0  0  0
   -0.4168   -9.4192    4.4928 H   0  0  0  0  0  0  0  0  0  0  0  0
    0.2182  -11.5430    3.5520 H   0  0  0  0  0  0  0  0  0  0  0  0
    1.3922  -10.8173    2.4754 H   0  0  0  0  0  0  0  0  0  0  0  0
   -0.3354  -10.5368    2.2152 H   0  0  0  0  0  0  0  0  0  0  0  0
    3.0835   -8.6331    6.5863 H   0  0  0  0  0  0  0  0  0  0  0  0
    1.7400   -3.6283    2.8105 H   0  0  0  0  0  0  0  0  0  0  0  0
    1.7101   -0.1732    2.7334 H   0  0  0  0  0  0  0  0  0  0  0  0
    4.5374   -0.9249    4.4937 H   0  0  0  0  0  0  0  0  0  0  0  0
    5.7118   -0.8111    1.2142 H   0  0  0  0  0  0  0  0  0  0  0  0
    5.9576   -1.5666    2.7836 H   0  0  0  0  0  0  0  0  0  0  0  0
    6.0325    0.1876    2.6353 H   0  0  0  0  0  0  0  0  0  0  0  0
    0.7872   -0.4749    5.3913 H   0  0  0  0  0  0  0  0  0  0  0  0
  1  2  1  0
  1 43  1  0
  1 44  1  0
  1 45  1  0
  2  3  1  0
  3 42  1  0
  3  4  1  0
  3 46  1  1
  4 39  1  0
  4  5  1  0
  4 47  1  6
  5  6  1  0
  5 48  1  0
  5 49  1  0
  6  7  1  0
  6 50  1  0
  6 51  1  0
  7  8  1  0
 10  7  1  1
  7 52  1  6
  8  9  1  0
  9 53  1  0
  9 54  1  0
  9 55  1  0
 10 15  1  0
 10 42  1  0
 10 11  1  0
 11 12  1  0
 11 13  1  0
 11 56  1  1
 12 57  1  0
 13 14  1  0
 13 58  1  0
 13 59  1  0
 14 15  1  0
 14 60  1  0
 14 61  1  0
 15 16  1  0
 15 62  1  1
 16 36  1  0
 16 17  1  6
 16 18  1  0
 17 63  1  0
 18 19  2  0
 18 20  1  0
 20 34  1  1
 20 21  1  0
 20 35  1  0
 21 22  2  3
 21 64  1  0
 22 23  1  0
 22 65  1  0
 23 24  2  3
 23 66  1  0
 24 25  1  0
 24 67  1  0
 25 68  1  0
 25 69  1  0
 25 26  1  0
 26 27  1  0
 26 70  1  6
 26 33  1  0
 27 28  1  0
 27 71  1  1
 27 29  1  0
 28 72  1  0
 28 73  1  0
 28 74  1  0
 29 31  1  0
 29 30  2  0
 31 33  2  0
 31 32  1  0
 32 75  1  0
 33 34  1  0
 35 36  2  0
 35 76  1  0
 36 37  1  0
 37 38  1  6
 37 39  1  0
 37 42  1  0
 38 77  1  0
 39 40  1  0
 39 78  1  1
 40 41  1  0
 41 79  1  0
 41 80  1  0
 41 81  1  0
 42 82  1  1
M  END
>  <i_m_ct_stereo_status>  (160) 
1

>  <s_m_source_file>  (160) 
/var/tmp/pbs.5076255.sched01/tmpco4mv84g/486h_uxm9x.sdf

>  <i_m_source_file_index>  (160) 
24

>  <i_lp_mmshare_version>  (160) 
48012

>  <i_f3d_flags>  (160) 
0

>  <s_epik_input>  (160) 
W0NIM11PW0NAQEhdMVtDSDJdW0NIMl1bQ0BASF0oW0NAQEhdMk9bQ0gzXSlbQ0BASF0oT1tDSDNdKVtDQEhdM1tDQF0yKFtPSF0pQyhbQ0BAXTQoW09IXSlbQ0BASF0oW0NAQF0xMzUpW0NIMl1bQ0gyXVtDQEBIXTVbT0hdKT1bQ0hdW0NAXTYoQzQ9TykvW0NIXT1bQ0hdL1tDSF09W0NIXVxbQ0gyXVtDQEhdN1tDQEhdKE82KUMoPU8pQyg9TylbQ0BASF03W0NIM10=

>  <s_epik_cmdline>  (160) 
J2VwaWtfcHl0aG9uJywgJy1waHQnLCAnMi4wJywgJy1waCcsICc3LjAnLCAnLXRuJywgJzgnLCAnLW1hJywgJzIwMCcsICctaW1hZScsICc8aW5maWxlLm1hZT4nLCAnLW9tYWUnLCAnPG91dGZpbGUubWFlPic=

>  <r_lp_tautomer_probability>  (160) 
0.499803

>  <r_epik_Ionization_Penalty>  (160) 
0.0152423

>  <r_epik_Ionization_Penalty_Charging>  (160) 
0

>  <r_epik_Ionization_Penalty_Neutral>  (160) 
0.0152423

>  <r_epik_State_Penalty>  (160) 
0.605736

>  <r_epik_Charging_Adjusted_Penalty>  (160) 
0.605736

>  <i_epik_Tot_Q>  (160) 
0

>  <i_epik_Tot_abs_Q>  (160) 
0

>  <s_lp_Force_Field>  (160) 
OPLS3e

>  <r_lp_Energy>  (160) 
86.4546

>  <b_lp_Chiralities_Consistent>  (160) 
1

>  <s_lp_Variant>  (160) 
40:0-6

>  <s_i_glide_gridfile>  (160) 
pfpi4k_grid

>  <i_i_glide_lignum>  (160) 
24

>  <i_i_glide_rotatable_bonds>  (160) 
7

>  <r_i_docking_score>  (160) 
-1.53066

>  <r_i_glide_ligand_efficiency>  (160) 
-0.0364444

>  <r_i_glide_ligand_efficiency_sa>  (160) 
-0.126682

>  <r_i_glide_ligand_efficiency_ln>  (160) 
-0.323084

>  <r_i_glide_gscore>  (160) 
-1.53066

>  <r_i_glide_lipo>  (160) 
-0.168165

>  <r_i_glide_hbond>  (160) 
0

>  <r_i_glide_metal>  (160) 
-0

>  <r_i_glide_rewards>  (160) 
-0.5

>  <r_i_glide_evdw>  (160) 
-23.7533

>  <r_i_glide_ecoul>  (160) 
2.34109

>  <r_i_glide_erotb>  (160) 
0

>  <r_i_glide_esite>  (160) 
-0.0259958

>  <r_i_glide_emodel>  (160) 
-27.9841

>  <r_i_glide_energy>  (160) 
-21.4122

>  <r_i_glide_einternal>  (160) 
3.52188

>  <r_i_glide_intrahb_reward>  (160) 
-0.5

>  <i_i_glide_confnum>  (160) 
1

>  <i_i_glide_posenum>  (160) 
33

>  <r_i_glide_eff_state_penalty>  (160) 
0

>  <ligand_id>  (160) 
40

>  <original_smiles>  (160) 
COC1C2CCC(OC)C34C(O)CCC3C3(O)C(=O)C5(C=CC=CCC6C(C)C(=O)C(=O)C6O5)C=C3C(O)(C2OC)C14

>  <smiles>  (160) 
[H]OC1=C2OC3(C(=O)C4(O[H])C(=C3[H])C3(O[H])C([H])(OC([H])([H])[H])C5([H])C([H])([H])C([H])([H])C([H])(OC([H])([H])[H])C6(C([H])(O[H])C([H])([H])C([H])([H])C46[H])C3([H])C5([H])OC([H])([H])[H])C([H])=C([H])C([H])=C([H])C([H])([H])C2([H])C([H])(C([H])([H])[H])C1=O

$$$$
40:6:0
     RDKit          3D

 82 88  0  0  1  0  0  0  0  0999 V2000
    2.5659   -2.6740   -2.1288 C   0  0  0  0  0  0  0  0  0  0  0  0
    2.4906   -3.0721   -0.7576 O   0  0  0  0  0  0  0  0  0  0  0  0
    3.2070   -2.2530    0.1687 C   0  0  2  0  0  0  0  0  0  0  0  0
    4.6954   -2.6260    0.0552 C   0  0  1  0  0  0  0  0  0  0  0  0
    5.6036   -1.3908    0.2007 C   0  0  0  0  0  0  0  0  0  0  0  0
    5.1128   -0.2996    1.1615 C   0  0  0  0  0  0  0  0  0  0  0  0
    4.6889   -0.8214    2.5485 C   0  0  1  0  0  0  0  0  0  0  0  0
    4.7770    0.2750    3.4592 O   0  0  0  0  0  0  0  0  0  0  0  0
    5.9402    0.3292    4.2691 C   0  0  0  0  0  0  0  0  0  0  0  0
    3.2527   -1.4755    2.7000 C   0  0  2  0  0  0  0  0  0  0  0  0
    2.1330   -0.3923    2.7470 C   0  0  1  0  0  0  0  0  0  0  0  0
    1.7172    0.1663    1.5189 O   0  0  0  0  0  0  0  0  0  0  0  0
    0.9757   -0.9930    3.5537 C   0  0  0  0  0  0  0  0  0  0  0  0
    1.6043   -2.0731    4.4375 C   0  0  0  0  0  0  0  0  0  0  0  0
    3.1253   -2.0540    4.1455 C   0  0  1  0  0  0  0  0  0  0  0  0
    3.9145   -3.3817    4.4072 C   0  0  1  0  0  0  0  0  0  0  0  0
    5.2939   -3.1300    4.5651 O   0  0  0  0  0  0  0  0  0  0  0  0
    3.4777   -4.1629    5.6442 C   0  0  0  0  0  0  0  0  0  0  0  0
    3.1104   -3.6363    6.6909 O   0  0  0  0  0  0  0  0  0  0  0  0
    3.5132   -5.6625    5.3768 C   0  0  1  0  0  0  0  0  0  0  0  0
    4.8500   -6.3072    5.7456 C   0  0  0  0  0  0  0  0  0  0  0  0
    5.2487   -7.4606    5.1726 C   0  0  0  0  0  0  0  0  0  0  0  0
    4.9700   -8.5936    6.0124 C   0  0  0  0  0  0  0  0  0  0  0  0
    3.7196   -9.0802    5.9092 C   0  0  0  0  0  0  0  0  0  0  0  0
    2.8720   -9.4453    7.1017 C   0  0  0  0  0  0  0  0  0  0  0  0
    1.8494   -8.3043    7.4354 C   0  0  1  0  0  0  0  0  0  0  0  0
    1.4634   -8.2557    8.9266 C   0  0  1  0  0  0  0  0  0  0  0  0
    1.3117   -9.5862    9.6833 C   0  0  0  0  0  0  0  0  0  0  0  0
    2.5388   -7.3404    9.5047 C   0  0  0  0  0  0  0  0  0  0  0  0
    2.8951   -7.3269   10.6849 O   0  0  0  0  0  0  0  0  0  0  0  0
    2.9889   -6.4552    8.4261 C   0  0  0  0  0  0  0  0  0  0  0  0
    3.6461   -5.3127    8.7103 O   0  0  0  0  0  0  0  0  0  0  0  0
    2.4697   -6.9183    7.2619 C   0  0  0  0  0  0  0  0  0  0  0  0
    2.3897   -6.3496    5.9970 O   0  0  0  0  0  0  0  0  0  0  0  0
    3.3751   -5.6003    3.8649 C   0  0  0  0  0  0  0  0  0  0  0  0
    3.6608   -4.4054    3.3290 C   0  0  0  0  0  0  0  0  0  0  0  0
    3.5658   -3.9713    1.8582 C   0  0  2  0  0  0  0  0  0  0  0  0
    2.7906   -4.9514    1.1882 O   0  0  0  0  0  0  0  0  0  0  0  0
    4.9060   -3.7555    1.1100 C   0  0  1  0  0  0  0  0  0  0  0  0
    5.4738   -4.9304    0.5407 O   0  0  0  0  0  0  0  0  0  0  0  0
    4.9542   -5.3701   -0.7041 C   0  0  0  0  0  0  0  0  0  0  0  0
    2.8652   -2.5989    1.6444 C   0  0  2  0  0  0  0  0  0  0  0  0
    1.9362   -3.3248   -2.7349 H   0  0  0  0  0  0  0  0  0  0  0  0
    3.5734   -2.7501   -2.5329 H   0  0  0  0  0  0  0  0  0  0  0  0
    2.2276   -1.6533   -2.3008 H   0  0  0  0  0  0  0  0  0  0  0  0
    3.0022   -1.2200   -0.0840 H   0  0  0  0  0  0  0  0  0  0  0  0
    4.9472   -2.9903   -0.9388 H   0  0  0  0  0  0  0  0  0  0  0  0
    6.6151   -1.7110    0.4492 H   0  0  0  0  0  0  0  0  0  0  0  0
    5.6780   -0.9289   -0.7807 H   0  0  0  0  0  0  0  0  0  0  0  0
    5.9542    0.3735    1.2818 H   0  0  0  0  0  0  0  0  0  0  0  0
    4.3266    0.3166    0.7182 H   0  0  0  0  0  0  0  0  0  0  0  0
    5.4657   -1.5314    2.8151 H   0  0  0  0  0  0  0  0  0  0  0  0
    5.8898    1.2162    4.8973 H   0  0  0  0  0  0  0  0  0  0  0  0
    6.8525    0.3901    3.6776 H   0  0  0  0  0  0  0  0  0  0  0  0
    6.0027   -0.5357    4.9276 H   0  0  0  0  0  0  0  0  0  0  0  0
    2.4750    0.4683    3.3291 H   0  0  0  0  0  0  0  0  0  0  0  0
    1.3880   -0.5181    0.9356 H   0  0  0  0  0  0  0  0  0  0  0  0
    0.4748   -0.2220    4.1404 H   0  0  0  0  0  0  0  0  0  0  0  0
    0.2298   -1.4440    2.8947 H   0  0  0  0  0  0  0  0  0  0  0  0
    1.4047   -1.8774    5.4930 H   0  0  0  0  0  0  0  0  0  0  0  0
    1.1601   -3.0414    4.1970 H   0  0  0  0  0  0  0  0  0  0  0  0
    3.5190   -1.3065    4.8375 H   0  0  0  0  0  0  0  0  0  0  0  0
    5.6016   -2.6848    3.7824 H   0  0  0  0  0  0  0  0  0  0  0  0
    5.0489   -6.2069    6.8048 H   0  0  0  0  0  0  0  0  0  0  0  0
    4.9808   -7.6459    4.1391 H   0  0  0  0  0  0  0  0  0  0  0  0
    5.5041   -8.6739    6.9475 H   0  0  0  0  0  0  0  0  0  0  0  0
    3.1376   -8.8578    5.0221 H   0  0  0  0  0  0  0  0  0  0  0  0
    2.3494  -10.3795    6.8956 H   0  0  0  0  0  0  0  0  0  0  0  0
    3.5428   -9.6330    7.9431 H   0  0  0  0  0  0  0  0  0  0  0  0
    0.9661   -8.3787    6.8059 H   0  0  0  0  0  0  0  0  0  0  0  0
    0.5199   -7.7203    9.0205 H   0  0  0  0  0  0  0  0  0  0  0  0
    0.9175   -9.4170   10.6897 H   0  0  0  0  0  0  0  0  0  0  0  0
    2.2603  -10.1149    9.7961 H   0  0  0  0  0  0  0  0  0  0  0  0
    0.6195  -10.2524    9.1632 H   0  0  0  0  0  0  0  0  0  0  0  0
    3.7716   -4.8195    7.8992 H   0  0  0  0  0  0  0  0  0  0  0  0
    3.0668   -6.4669    3.3017 H   0  0  0  0  0  0  0  0  0  0  0  0
    2.9369   -4.8306    0.2590 H   0  0  0  0  0  0  0  0  0  0  0  0
    5.6372   -3.4284    1.8331 H   0  0  0  0  0  0  0  0  0  0  0  0
    5.4152   -6.3310   -0.8962 H   0  0  0  0  0  0  0  0  0  0  0  0
    5.2071   -4.6836   -1.5156 H   0  0  0  0  0  0  0  0  0  0  0  0
    3.8766   -5.5435   -0.6253 H   0  0  0  0  0  0  0  0  0  0  0  0
    1.7889   -2.7688    1.7167 H   0  0  0  0  0  0  0  0  0  0  0  0
  1  2  1  0
  1 43  1  0
  1 44  1  0
  1 45  1  0
  2  3  1  0
  3 42  1  0
  3  4  1  0
  3 46  1  6
  4 39  1  0
  4  5  1  0
  4 47  1  6
  5  6  1  0
  5 48  1  0
  5 49  1  0
  6  7  1  0
  6 50  1  0
  6 51  1  0
  7  8  1  0
 10  7  1  6
  7 52  1  1
  8  9  1  0
  9 53  1  0
  9 54  1  0
  9 55  1  0
 10 15  1  0
 10 42  1  0
 10 11  1  0
 11 12  1  0
 11 13  1  0
 11 56  1  1
 12 57  1  0
 13 14  1  0
 13 58  1  0
 13 59  1  0
 14 15  1  0
 14 60  1  0
 14 61  1  0
 15 16  1  0
 15 62  1  1
 16 36  1  0
 16 17  1  1
 16 18  1  0
 17 63  1  0
 18 19  2  0
 18 20  1  0
 20 34  1  1
 20 21  1  0
 20 35  1  0
 21 22  2  3
 21 64  1  0
 22 23  1  0
 22 65  1  0
 23 24  2  3
 23 66  1  0
 24 25  1  0
 24 67  1  0
 25 68  1  0
 25 69  1  0
 25 26  1  0
 26 27  1  0
 26 70  1  6
 26 33  1  0
 27 28  1  0
 27 71  1  6
 27 29  1  0
 28 72  1  0
 28 73  1  0
 28 74  1  0
 29 31  1  0
 29 30  2  0
 31 33  2  0
 31 32  1  0
 32 75  1  0
 33 34  1  0
 35 36  2  0
 35 76  1  0
 36 37  1  0
 37 38  1  6
 37 39  1  0
 37 42  1  0
 38 77  1  0
 39 40  1  0
 39 78  1  1
 40 41  1  0
 41 79  1  0
 41 80  1  0
 41 81  1  0
 42 82  1  6
M  END
>  <i_m_ct_stereo_status>  (161) 
1

>  <s_m_source_file>  (161) 
/var/tmp/pbs.5076255.sched01/tmpco4mv84g/486h_uxm9x.sdf

>  <i_m_source_file_index>  (161) 
25

>  <i_lp_mmshare_version>  (161) 
48012

>  <i_f3d_flags>  (161) 
0

>  <s_epik_input>  (161) 
W0NIM11PW0NAQEhdMVtDSDJdW0NIMl1bQ0BASF0oW0NAQEhdMk9bQ0gzXSlbQ0BASF0oT1tDSDNdKVtDQEhdM1tDQF0yKFtPSF0pQyhbQ0BAXTQoW09IXSlbQ0BASF0oW0NAQF0xMzUpW0NIMl1bQ0gyXVtDQEBIXTVbT0hdKT1bQ0hdW0NAXTYoQzQ9TykvW0NIXT1bQ0hdL1tDSF09W0NIXVxbQ0gyXVtDQEhdN1tDQEhdKE82KUMoPU8pQyg9TylbQ0BASF03W0NIM10=

>  <s_epik_cmdline>  (161) 
J2VwaWtfcHl0aG9uJywgJy1waHQnLCAnMi4wJywgJy1waCcsICc3LjAnLCAnLXRuJywgJzgnLCAnLW1hJywgJzIwMCcsICctaW1hZScsICc8aW5maWxlLm1hZT4nLCAnLW9tYWUnLCAnPG91dGZpbGUubWFlPic=

>  <r_lp_tautomer_probability>  (161) 
0.499803

>  <r_epik_Ionization_Penalty>  (161) 
0.0152423

>  <r_epik_Ionization_Penalty_Charging>  (161) 
0

>  <r_epik_Ionization_Penalty_Neutral>  (161) 
0.0152423

>  <r_epik_State_Penalty>  (161) 
0.605736

>  <r_epik_Charging_Adjusted_Penalty>  (161) 
0.605736

>  <i_epik_Tot_Q>  (161) 
0

>  <i_epik_Tot_abs_Q>  (161) 
0

>  <s_lp_Force_Field>  (161) 
OPLS3e

>  <r_lp_Energy>  (161) 
128.592

>  <b_lp_Chiralities_Consistent>  (161) 
1

>  <s_lp_Variant>  (161) 
40:0-7

>  <s_i_glide_gridfile>  (161) 
pfpi4k_grid

>  <i_i_glide_lignum>  (161) 
25

>  <i_i_glide_rotatable_bonds>  (161) 
7

>  <r_i_docking_score>  (161) 
-3.26955

>  <r_i_glide_ligand_efficiency>  (161) 
-0.0778464

>  <r_i_glide_ligand_efficiency_sa>  (161) 
-0.270596

>  <r_i_glide_ligand_efficiency_ln>  (161) 
-0.690117

>  <r_i_glide_gscore>  (161) 
-3.26955

>  <r_i_glide_lipo>  (161) 
-0.459494

>  <r_i_glide_hbond>  (161) 
-0.151908

>  <r_i_glide_metal>  (161) 
-0

>  <r_i_glide_rewards>  (161) 
-1

>  <r_i_glide_evdw>  (161) 
-19.4827

>  <r_i_glide_ecoul>  (161) 
-4.56007

>  <r_i_glide_erotb>  (161) 
0

>  <r_i_glide_esite>  (161) 
0

>  <r_i_glide_emodel>  (161) 
-27.0622

>  <r_i_glide_energy>  (161) 
-24.0427

>  <r_i_glide_einternal>  (161) 
23.3822

>  <r_i_glide_intrahb_reward>  (161) 
-1

>  <i_i_glide_confnum>  (161) 
1

>  <i_i_glide_posenum>  (161) 
39

>  <r_i_glide_eff_state_penalty>  (161) 
0

>  <ligand_id>  (161) 
40

>  <original_smiles>  (161) 
COC1C2CCC(OC)C34C(O)CCC3C3(O)C(=O)C5(C=CC=CCC6C(C)C(=O)C(=O)C6O5)C=C3C(O)(C2OC)C14

>  <smiles>  (161) 
[H]OC1=C2OC3(C(=O)C4(O[H])C(=C3[H])C3(O[H])C([H])(OC([H])([H])[H])C5([H])C([H])([H])C([H])([H])C([H])(OC([H])([H])[H])C6(C([H])(O[H])C([H])([H])C([H])([H])C46[H])C3([H])C5([H])OC([H])([H])[H])C([H])=C([H])C([H])=C([H])C([H])([H])C2([H])C([H])(C([H])([H])[H])C1=O

$$$$
40:6:1
     RDKit          3D

 82 88  0  0  1  0  0  0  0  0999 V2000
    2.4602   -3.0812   -1.9467 C   0  0  0  0  0  0  0  0  0  0  0  0
    2.3075   -3.3533   -0.5544 O   0  0  0  0  0  0  0  0  0  0  0  0
    3.1162   -2.5541    0.3130 C   0  0  2  0  0  0  0  0  0  0  0  0
    4.5466   -3.1404    0.2935 C   0  0  1  0  0  0  0  0  0  0  0  0
    5.6226   -2.0250    0.3553 C   0  0  0  0  0  0  0  0  0  0  0  0
    5.2776   -0.7710    1.1684 C   0  0  0  0  0  0  0  0  0  0  0  0
    4.7266   -1.0623    2.5775 C   0  0  1  0  0  0  0  0  0  0  0  0
    4.9371    0.1210    3.3529 O   0  0  0  0  0  0  0  0  0  0  0  0
    6.1146    0.1453    4.1437 C   0  0  0  0  0  0  0  0  0  0  0  0
    3.2046   -1.4996    2.7243 C   0  0  2  0  0  0  0  0  0  0  0  0
    2.2418   -0.2873    2.5904 C   0  0  1  0  0  0  0  0  0  0  0  0
    1.9390    0.1667    1.2856 O   0  0  0  0  0  0  0  0  0  0  0  0
    0.9963   -0.6151    3.4165 C   0  0  0  0  0  0  0  0  0  0  0  0
    1.4371   -1.6632    4.4404 C   0  0  0  0  0  0  0  0  0  0  0  0
    2.9577   -1.8837    4.2175 C   0  0  1  0  0  0  0  0  0  0  0  0
    3.5539   -3.2642    4.6643 C   0  0  1  0  0  0  0  0  0  0  0  0
    4.9533   -3.1995    4.8486 O   0  0  0  0  0  0  0  0  0  0  0  0
    2.9595   -3.8232    5.9553 C   0  0  0  0  0  0  0  0  0  0  0  0
    2.5929   -3.1139    6.8938 O   0  0  0  0  0  0  0  0  0  0  0  0
    2.7880   -5.3404    5.8727 C   0  0  1  0  0  0  0  0  0  0  0  0
    4.0039   -6.1232    6.3647 C   0  0  0  0  0  0  0  0  0  0  0  0
    4.2559   -7.3774    5.9347 C   0  0  0  0  0  0  0  0  0  0  0  0
    3.7929   -8.3592    6.8792 C   0  0  0  0  0  0  0  0  0  0  0  0
    2.4897   -8.6776    6.7681 C   0  0  0  0  0  0  0  0  0  0  0  0
    1.5614   -8.7952    7.9546 C   0  0  0  0  0  0  0  0  0  0  0  0
    0.7006   -7.4942    8.1124 C   0  0  1  0  0  0  0  0  0  0  0  0
    0.2800   -7.2205    9.5681 C   0  0  1  0  0  0  0  0  0  0  0  0
   -0.0810   -8.4186   10.4622 C   0  0  0  0  0  0  0  0  0  0  0  0
    1.4537   -6.4058   10.0858 C   0  0  0  0  0  0  0  0  0  0  0  0
    1.7804   -6.2846   11.2751 O   0  0  0  0  0  0  0  0  0  0  0  0
    2.0559   -5.7321    8.9321 C   0  0  0  0  0  0  0  0  0  0  0  0
    2.8575   -4.6696    9.1344 O   0  0  0  0  0  0  0  0  0  0  0  0
    1.5093   -6.2422    7.8178 C   0  0  0  0  0  0  0  0  0  0  0  0
    1.5566   -5.8043    6.4977 O   0  0  0  0  0  0  0  0  0  0  0  0
    2.7242   -5.4360    4.3593 C   0  0  0  0  0  0  0  0  0  0  0  0
    3.1936   -4.3698    3.7068 C   0  0  0  0  0  0  0  0  0  0  0  0
    3.1975   -4.1060    2.1882 C   0  0  2  0  0  0  0  0  0  0  0  0
    2.3258   -5.0461    1.5791 O   0  0  0  0  0  0  0  0  0  0  0  0
    4.5678   -4.1710    1.4747 C   0  0  1  0  0  0  0  0  0  0  0  0
    4.9802   -5.4880    1.0778 O   0  0  0  0  0  0  0  0  0  0  0  0
    4.4797   -6.0107   -0.1490 C   0  0  0  0  0  0  0  0  0  0  0  0
    2.6942   -2.6843    1.7969 C   0  0  2  0  0  0  0  0  0  0  0  0
    1.7876   -3.7098   -2.5275 H   0  0  0  0  0  0  0  0  0  0  0  0
    3.4637   -3.2915   -2.3135 H   0  0  0  0  0  0  0  0  0  0  0  0
    2.2355   -2.0456   -2.1925 H   0  0  0  0  0  0  0  0  0  0  0  0
    3.0673   -1.5383   -0.0545 H   0  0  0  0  0  0  0  0  0  0  0  0
    4.7583   -3.6669   -0.6473 H   0  0  0  0  0  0  0  0  0  0  0  0
    6.5704   -2.4543    0.6807 H   0  0  0  0  0  0  0  0  0  0  0  0
    5.7957   -1.6969   -0.6670 H   0  0  0  0  0  0  0  0  0  0  0  0
    6.2088   -0.2142    1.2625 H   0  0  0  0  0  0  0  0  0  0  0  0
    4.5988   -0.1069    0.6253 H   0  0  0  0  0  0  0  0  0  0  0  0
    5.3840   -1.8337    2.9675 H   0  0  0  0  0  0  0  0  0  0  0  0
    6.1681    1.0799    4.6962 H   0  0  0  0  0  0  0  0  0  0  0  0
    7.0086    0.0658    3.5261 H   0  0  0  0  0  0  0  0  0  0  0  0
    6.1127   -0.6554    4.8828 H   0  0  0  0  0  0  0  0  0  0  0  0
    2.6836    0.5847    3.0875 H   0  0  0  0  0  0  0  0  0  0  0  0
    1.4816   -0.4810    0.7544 H   0  0  0  0  0  0  0  0  0  0  0  0
    0.5941    0.2774    3.8950 H   0  0  0  0  0  0  0  0  0  0  0  0
    0.2103   -1.0298    2.7841 H   0  0  0  0  0  0  0  0  0  0  0  0
    1.2331   -1.3247    5.4587 H   0  0  0  0  0  0  0  0  0  0  0  0
    0.8695   -2.5844    4.2891 H   0  0  0  0  0  0  0  0  0  0  0  0
    3.4322   -1.1234    4.8433 H   0  0  0  0  0  0  0  0  0  0  0  0
    5.2460   -4.0867    5.0049 H   0  0  0  0  0  0  0  0  0  0  0  0
    4.1836   -5.9273    7.4151 H   0  0  0  0  0  0  0  0  0  0  0  0
    4.0013   -7.6458    4.9142 H   0  0  0  0  0  0  0  0  0  0  0  0
    4.2832   -8.4073    7.8377 H   0  0  0  0  0  0  0  0  0  0  0  0
    1.9770   -8.4861    5.8339 H   0  0  0  0  0  0  0  0  0  0  0  0
    0.9253   -9.6719    7.8305 H   0  0  0  0  0  0  0  0  0  0  0  0
    2.1787   -8.9707    8.8373 H   0  0  0  0  0  0  0  0  0  0  0  0
   -0.1641   -7.5131    7.4497 H   0  0  0  0  0  0  0  0  0  0  0  0
   -0.5645   -6.5366    9.5551 H   0  0  0  0  0  0  0  0  0  0  0  0
   -0.4784   -8.0835   11.4258 H   0  0  0  0  0  0  0  0  0  0  0  0
    0.7820   -9.0550   10.6732 H   0  0  0  0  0  0  0  0  0  0  0  0
   -0.8457   -9.0401    9.9894 H   0  0  0  0  0  0  0  0  0  0  0  0
    2.9989   -4.6050   10.0749 H   0  0  0  0  0  0  0  0  0  0  0  0
    2.3011   -6.3070    3.8893 H   0  0  0  0  0  0  0  0  0  0  0  0
    2.8043   -5.8672    1.5401 H   0  0  0  0  0  0  0  0  0  0  0  0
    5.3091   -3.8542    2.1845 H   0  0  0  0  0  0  0  0  0  0  0  0
    4.8310   -7.0596   -0.2483 H   0  0  0  0  0  0  0  0  0  0  0  0
    4.8411   -5.4245   -0.9959 H   0  0  0  0  0  0  0  0  0  0  0  0
    3.3783   -6.0029   -0.1154 H   0  0  0  0  0  0  0  0  0  0  0  0
    1.5993   -2.6949    1.8334 H   0  0  0  0  0  0  0  0  0  0  0  0
  1  2  1  0
  1 43  1  0
  1 44  1  0
  1 45  1  0
  2  3  1  0
  3 42  1  0
  3  4  1  0
  3 46  1  6
  4 39  1  0
  4  5  1  0
  4 47  1  6
  5  6  1  0
  5 48  1  0
  5 49  1  0
  6  7  1  0
  6 50  1  0
  6 51  1  0
  7  8  1  0
 10  7  1  1
  7 52  1  1
  8  9  1  0
  9 53  1  0
  9 54  1  0
  9 55  1  0
 10 15  1  0
 10 42  1  0
 10 11  1  0
 11 12  1  0
 11 13  1  0
 11 56  1  1
 12 57  1  0
 13 14  1  0
 13 58  1  0
 13 59  1  0
 14 15  1  0
 14 60  1  0
 14 61  1  0
 15 16  1  0
 15 62  1  1
 16 36  1  0
 16 17  1  1
 16 18  1  0
 17 63  1  0
 18 19  2  0
 18 20  1  0
 20 34  1  1
 20 21  1  0
 20 35  1  0
 21 22  2  3
 21 64  1  0
 22 23  1  0
 22 65  1  0
 23 24  2  3
 23 66  1  0
 24 25  1  0
 24 67  1  0
 25 68  1  0
 25 69  1  0
 25 26  1  0
 26 27  1  0
 26 70  1  6
 26 33  1  0
 27 28  1  0
 27 71  1  6
 27 29  1  0
 28 72  1  0
 28 73  1  0
 28 74  1  0
 29 31  1  0
 29 30  2  0
 31 33  2  0
 31 32  1  0
 32 75  1  0
 33 34  1  0
 35 36  2  0
 35 76  1  0
 36 37  1  0
 37 38  1  6
 37 39  1  0
 37 42  1  0
 38 77  1  0
 39 40  1  0
 39 78  1  1
 40 41  1  0
 41 79  1  0
 41 80  1  0
 41 81  1  0
 42 82  1  6
M  END
>  <i_m_ct_stereo_status>  (162) 
1

>  <s_m_source_file>  (162) 
/var/tmp/pbs.5076255.sched01/tmpco4mv84g/486h_uxm9x.sdf

>  <i_m_source_file_index>  (162) 
25

>  <i_lp_mmshare_version>  (162) 
48012

>  <i_f3d_flags>  (162) 
0

>  <s_epik_input>  (162) 
W0NIM11PW0NAQEhdMVtDSDJdW0NIMl1bQ0BASF0oW0NAQEhdMk9bQ0gzXSlbQ0BASF0oT1tDSDNdKVtDQEhdM1tDQF0yKFtPSF0pQyhbQ0BAXTQoW09IXSlbQ0BASF0oW0NAQF0xMzUpW0NIMl1bQ0gyXVtDQEBIXTVbT0hdKT1bQ0hdW0NAXTYoQzQ9TykvW0NIXT1bQ0hdL1tDSF09W0NIXVxbQ0gyXVtDQEhdN1tDQEhdKE82KUMoPU8pQyg9TylbQ0BASF03W0NIM10=

>  <s_epik_cmdline>  (162) 
J2VwaWtfcHl0aG9uJywgJy1waHQnLCAnMi4wJywgJy1waCcsICc3LjAnLCAnLXRuJywgJzgnLCAnLW1hJywgJzIwMCcsICctaW1hZScsICc8aW5maWxlLm1hZT4nLCAnLW9tYWUnLCAnPG91dGZpbGUubWFlPic=

>  <r_lp_tautomer_probability>  (162) 
0.499803

>  <r_epik_Ionization_Penalty>  (162) 
0.0152423

>  <r_epik_Ionization_Penalty_Charging>  (162) 
0

>  <r_epik_Ionization_Penalty_Neutral>  (162) 
0.0152423

>  <r_epik_State_Penalty>  (162) 
0.605736

>  <r_epik_Charging_Adjusted_Penalty>  (162) 
0.605736

>  <i_epik_Tot_Q>  (162) 
0

>  <i_epik_Tot_abs_Q>  (162) 
0

>  <s_lp_Force_Field>  (162) 
OPLS3e

>  <r_lp_Energy>  (162) 
128.592

>  <b_lp_Chiralities_Consistent>  (162) 
1

>  <s_lp_Variant>  (162) 
40:0-7

>  <s_i_glide_gridfile>  (162) 
pfpi4k_grid

>  <i_i_glide_lignum>  (162) 
25

>  <i_i_glide_rotatable_bonds>  (162) 
7

>  <r_i_docking_score>  (162) 
-2.47378

>  <r_i_glide_ligand_efficiency>  (162) 
-0.0588995

>  <r_i_glide_ligand_efficiency_sa>  (162) 
-0.204736

>  <r_i_glide_ligand_efficiency_ln>  (162) 
-0.522151

>  <r_i_glide_gscore>  (162) 
-2.47378

>  <r_i_glide_lipo>  (162) 
-0.443286

>  <r_i_glide_hbond>  (162) 
-0.169028

>  <r_i_glide_metal>  (162) 
-0

>  <r_i_glide_rewards>  (162) 
0

>  <r_i_glide_evdw>  (162) 
-23.4737

>  <r_i_glide_ecoul>  (162) 
-4.58232

>  <r_i_glide_erotb>  (162) 
0

>  <r_i_glide_esite>  (162) 
-0.000434871

>  <r_i_glide_emodel>  (162) 
-17.7824

>  <r_i_glide_energy>  (162) 
-28.056

>  <r_i_glide_einternal>  (162) 
26.5457

>  <r_i_glide_intrahb_reward>  (162) 
-0

>  <i_i_glide_confnum>  (162) 
1

>  <i_i_glide_posenum>  (162) 
6

>  <r_i_glide_eff_state_penalty>  (162) 
0

>  <ligand_id>  (162) 
40

>  <original_smiles>  (162) 
COC1C2CCC(OC)C34C(O)CCC3C3(O)C(=O)C5(C=CC=CCC6C(C)C(=O)C(=O)C6O5)C=C3C(O)(C2OC)C14

>  <smiles>  (162) 
[H]OC1=C2OC3(C(=O)C4(O[H])C(=C3[H])C3(O[H])C([H])(OC([H])([H])[H])C5([H])C([H])([H])C([H])([H])C([H])(OC([H])([H])[H])C6(C([H])(O[H])C([H])([H])C([H])([H])C46[H])C3([H])C5([H])OC([H])([H])[H])C([H])=C([H])C([H])=C([H])C([H])([H])C2([H])C([H])(C([H])([H])[H])C1=O

$$$$
40:6:2
     RDKit          3D

 82 88  0  0  1  0  0  0  0  0999 V2000
   -0.1306    1.6953    1.5702 C   0  0  0  0  0  0  0  0  0  0  0  0
    1.1934    1.5420    2.0678 O   0  0  0  0  0  0  0  0  0  0  0  0
    1.2921    1.4214    3.4821 C   0  0  2  0  0  0  0  0  0  0  0  0
    2.7874    1.4295    3.8450 C   0  0  1  0  0  0  0  0  0  0  0  0
    3.0460    2.1926    5.1541 C   0  0  0  0  0  0  0  0  0  0  0  0
    1.9322    2.1126    6.2070 C   0  0  0  0  0  0  0  0  0  0  0  0
    1.3401    0.7227    6.5433 C   0  0  1  0  0  0  0  0  0  0  0  0
    0.7747    0.7233    7.8722 O   0  0  0  0  0  0  0  0  0  0  0  0
    0.0892    1.8815    8.3609 C   0  0  0  0  0  0  0  0  0  0  0  0
    0.3799   -0.0066    5.5024 C   0  0  2  0  0  0  0  0  0  0  0  0
   -1.0960    0.4847    5.6750 C   0  0  1  0  0  0  0  0  0  0  0  0
   -1.4145    1.7459    5.1107 O   0  0  0  0  0  0  0  0  0  0  0  0
   -2.0213   -0.6141    5.1562 C   0  0  0  0  0  0  0  0  0  0  0  0
   -1.1960   -1.8935    5.3228 C   0  0  0  0  0  0  0  0  0  0  0  0
    0.1867   -1.4979    5.9095 C   0  0  1  0  0  0  0  0  0  0  0  0
    1.3830   -2.4431    5.5819 C   0  0  1  0  0  0  0  0  0  0  0  0
    2.4477   -2.2794    6.4879 O   0  0  0  0  0  0  0  0  0  0  0  0
    1.0273   -3.9282    5.5629 C   0  0  0  0  0  0  0  0  0  0  0  0
    0.1607   -4.4105    6.2972 O   0  0  0  0  0  0  0  0  0  0  0  0
    1.7508   -4.6724    4.4320 C   0  0  1  0  0  0  0  0  0  0  0  0
    3.1054   -5.2464    4.8606 C   0  0  0  0  0  0  0  0  0  0  0  0
    4.0772   -5.4775    3.9578 C   0  0  0  0  0  0  0  0  0  0  0  0
    4.1195   -6.8597    3.5688 C   0  0  0  0  0  0  0  0  0  0  0  0
    3.2637   -7.1943    2.5866 C   0  0  0  0  0  0  0  0  0  0  0  0
    2.3975   -8.4285    2.6332 C   0  0  0  0  0  0  0  0  0  0  0  0
    0.9282   -8.0634    3.0868 C   0  0  1  0  0  0  0  0  0  0  0  0
    0.2245   -9.2577    3.8080 C   0  0  1  0  0  0  0  0  0  0  0  0
    0.4874  -10.6694    3.2924 C   0  0  0  0  0  0  0  0  0  0  0  0
    0.6409   -9.0047    5.2484 C   0  0  0  0  0  0  0  0  0  0  0  0
    0.6387   -9.8518    6.1403 O   0  0  0  0  0  0  0  0  0  0  0  0
    0.9089   -7.5880    5.4054 C   0  0  0  0  0  0  0  0  0  0  0  0
    0.9334   -7.0504    6.6206 O   0  0  0  0  0  0  0  0  0  0  0  0
    0.9242   -7.0072    4.1907 C   0  0  0  0  0  0  0  0  0  0  0  0
    0.9103   -5.6633    3.7890 O   0  0  0  0  0  0  0  0  0  0  0  0
    1.9811   -3.4695    3.5309 C   0  0  0  0  0  0  0  0  0  0  0  0
    1.8706   -2.2919    4.1623 C   0  0  0  0  0  0  0  0  0  0  0  0
    1.9577   -0.8974    3.5384 C   0  0  2  0  0  0  0  0  0  0  0  0
    1.8846   -1.0260    2.1215 O   0  0  0  0  0  0  0  0  0  0  0  0
    3.2164   -0.0641    3.9188 C   0  0  1  0  0  0  0  0  0  0  0  0
    4.3472   -0.3573    3.0996 O   0  0  0  0  0  0  0  0  0  0  0  0
    5.5920   -0.0655    3.7211 C   0  0  0  0  0  0  0  0  0  0  0  0
    0.8003    0.0393    3.9749 C   0  0  2  0  0  0  0  0  0  0  0  0
   -0.0790    1.8428    0.4918 H   0  0  0  0  0  0  0  0  0  0  0  0
   -0.6409    2.5429    2.0272 H   0  0  0  0  0  0  0  0  0  0  0  0
   -0.7388    0.8028    1.7164 H   0  0  0  0  0  0  0  0  0  0  0  0
    0.7572    2.2665    3.9006 H   0  0  0  0  0  0  0  0  0  0  0  0
    3.3561    1.9398    3.0644 H   0  0  0  0  0  0  0  0  0  0  0  0
    3.9971    1.8946    5.5944 H   0  0  0  0  0  0  0  0  0  0  0  0
    3.1601    3.2511    4.9271 H   0  0  0  0  0  0  0  0  0  0  0  0
    2.4193    2.4762    7.1098 H   0  0  0  0  0  0  0  0  0  0  0  0
    1.1285    2.8118    5.9776 H   0  0  0  0  0  0  0  0  0  0  0  0
    2.2269    0.1049    6.6623 H   0  0  0  0  0  0  0  0  0  0  0  0
   -0.3588    1.6105    9.3209 H   0  0  0  0  0  0  0  0  0  0  0  0
   -0.6998    2.1810    7.6809 H   0  0  0  0  0  0  0  0  0  0  0  0
    0.7788    2.7102    8.5569 H   0  0  0  0  0  0  0  0  0  0  0  0
   -1.3236    0.5240    6.7347 H   0  0  0  0  0  0  0  0  0  0  0  0
   -1.2537    1.7296    4.1773 H   0  0  0  0  0  0  0  0  0  0  0  0
   -2.9145   -0.6166    5.7764 H   0  0  0  0  0  0  0  0  0  0  0  0
   -2.3350   -0.4677    4.1199 H   0  0  0  0  0  0  0  0  0  0  0  0
   -1.7154   -2.6104    5.9668 H   0  0  0  0  0  0  0  0  0  0  0  0
   -1.0727   -2.3428    4.3378 H   0  0  0  0  0  0  0  0  0  0  0  0
    0.0586   -1.5223    6.9902 H   0  0  0  0  0  0  0  0  0  0  0  0
    2.7227   -1.3789    6.4755 H   0  0  0  0  0  0  0  0  0  0  0  0
    2.9802   -5.9883    5.6362 H   0  0  0  0  0  0  0  0  0  0  0  0
    4.1770   -4.8173    3.1096 H   0  0  0  0  0  0  0  0  0  0  0  0
    4.4046   -7.5860    4.3147 H   0  0  0  0  0  0  0  0  0  0  0  0
    2.8599   -6.4169    1.9540 H   0  0  0  0  0  0  0  0  0  0  0  0
    2.3789   -8.9082    1.6501 H   0  0  0  0  0  0  0  0  0  0  0  0
    2.8569   -9.1368    3.3264 H   0  0  0  0  0  0  0  0  0  0  0  0
    0.3354   -7.6965    2.2486 H   0  0  0  0  0  0  0  0  0  0  0  0
   -0.8532   -9.0793    3.7645 H   0  0  0  0  0  0  0  0  0  0  0  0
   -0.1588  -11.3649    3.8161 H   0  0  0  0  0  0  0  0  0  0  0  0
    1.5067  -10.9975    3.4621 H   0  0  0  0  0  0  0  0  0  0  0  0
    0.2683  -10.7472    2.2317 H   0  0  0  0  0  0  0  0  0  0  0  0
    0.9264   -7.7606    7.2466 H   0  0  0  0  0  0  0  0  0  0  0  0
    2.2249   -3.5857    2.4799 H   0  0  0  0  0  0  0  0  0  0  0  0
    1.7476   -0.1516    1.7721 H   0  0  0  0  0  0  0  0  0  0  0  0
    3.4706   -0.3319    4.9447 H   0  0  0  0  0  0  0  0  0  0  0  0
    6.3948   -0.1394    2.9894 H   0  0  0  0  0  0  0  0  0  0  0  0
    5.7880   -0.7889    4.5118 H   0  0  0  0  0  0  0  0  0  0  0  0
    5.6239    0.9361    4.1541 H   0  0  0  0  0  0  0  0  0  0  0  0
   -0.0658   -0.2849    3.4079 H   0  0  0  0  0  0  0  0  0  0  0  0
  1  2  1  0
  1 43  1  0
  1 44  1  0
  1 45  1  0
  2  3  1  0
  3 42  1  0
  3  4  1  0
  3 46  1  1
  4 39  1  0
  4  5  1  0
  4 47  1  6
  5  6  1  0
  5 48  1  0
  5 49  1  0
  6  7  1  0
  6 50  1  0
  6 51  1  0
  7  8  1  0
 10  7  1  1
  7 52  1  1
  8  9  1  0
  9 53  1  0
  9 54  1  0
  9 55  1  0
 10 15  1  0
 10 42  1  0
 10 11  1  0
 11 12  1  0
 11 13  1  0
 11 56  1  1
 12 57  1  0
 13 14  1  0
 13 58  1  0
 13 59  1  0
 14 15  1  0
 14 60  1  0
 14 61  1  0
 15 16  1  0
 15 62  1  1
 16 36  1  0
 16 17  1  1
 16 18  1  0
 17 63  1  0
 18 19  2  0
 18 20  1  0
 20 34  1  6
 20 21  1  0
 20 35  1  0
 21 22  2  3
 21 64  1  0
 22 23  1  0
 22 65  1  0
 23 24  2  3
 23 66  1  0
 24 25  1  0
 24 67  1  0
 25 68  1  0
 25 69  1  0
 25 26  1  0
 26 27  1  0
 26 70  1  6
 26 33  1  0
 27 28  1  0
 27 71  1  1
 27 29  1  0
 28 72  1  0
 28 73  1  0
 28 74  1  0
 29 31  1  0
 29 30  2  0
 31 33  2  0
 31 32  1  0
 32 75  1  0
 33 34  1  0
 35 36  2  0
 35 76  1  0
 36 37  1  0
 37 38  1  6
 37 39  1  0
 37 42  1  0
 38 77  1  0
 39 40  1  0
 39 78  1  1
 40 41  1  0
 41 79  1  0
 41 80  1  0
 41 81  1  0
 42 82  1  6
M  END
>  <i_m_ct_stereo_status>  (163) 
1

>  <s_m_source_file>  (163) 
/var/tmp/pbs.5076255.sched01/tmpco4mv84g/486h_uxm9x.sdf

>  <i_m_source_file_index>  (163) 
25

>  <i_lp_mmshare_version>  (163) 
48012

>  <i_f3d_flags>  (163) 
0

>  <s_epik_input>  (163) 
W0NIM11PW0NAQEhdMVtDSDJdW0NIMl1bQ0BASF0oW0NAQEhdMk9bQ0gzXSlbQ0BASF0oT1tDSDNdKVtDQEhdM1tDQF0yKFtPSF0pQyhbQ0BAXTQoW09IXSlbQ0BASF0oW0NAQF0xMzUpW0NIMl1bQ0gyXVtDQEBIXTVbT0hdKT1bQ0hdW0NAXTYoQzQ9TykvW0NIXT1bQ0hdL1tDSF09W0NIXVxbQ0gyXVtDQEhdN1tDQEhdKE82KUMoPU8pQyg9TylbQ0BASF03W0NIM10=

>  <s_epik_cmdline>  (163) 
J2VwaWtfcHl0aG9uJywgJy1waHQnLCAnMi4wJywgJy1waCcsICc3LjAnLCAnLXRuJywgJzgnLCAnLW1hJywgJzIwMCcsICctaW1hZScsICc8aW5maWxlLm1hZT4nLCAnLW9tYWUnLCAnPG91dGZpbGUubWFlPic=

>  <r_lp_tautomer_probability>  (163) 
0.499803

>  <r_epik_Ionization_Penalty>  (163) 
0.0152423

>  <r_epik_Ionization_Penalty_Charging>  (163) 
0

>  <r_epik_Ionization_Penalty_Neutral>  (163) 
0.0152423

>  <r_epik_State_Penalty>  (163) 
0.605736

>  <r_epik_Charging_Adjusted_Penalty>  (163) 
0.605736

>  <i_epik_Tot_Q>  (163) 
0

>  <i_epik_Tot_abs_Q>  (163) 
0

>  <s_lp_Force_Field>  (163) 
OPLS3e

>  <r_lp_Energy>  (163) 
128.592

>  <b_lp_Chiralities_Consistent>  (163) 
1

>  <s_lp_Variant>  (163) 
40:0-7

>  <s_i_glide_gridfile>  (163) 
pfpi4k_grid

>  <i_i_glide_lignum>  (163) 
25

>  <i_i_glide_rotatable_bonds>  (163) 
7

>  <r_i_docking_score>  (163) 
-2.1897

>  <r_i_glide_ligand_efficiency>  (163) 
-0.0521357

>  <r_i_glide_ligand_efficiency_sa>  (163) 
-0.181225

>  <r_i_glide_ligand_efficiency_ln>  (163) 
-0.462189

>  <r_i_glide_gscore>  (163) 
-2.1897

>  <r_i_glide_lipo>  (163) 
-0.131122

>  <r_i_glide_hbond>  (163) 
0

>  <r_i_glide_metal>  (163) 
-0

>  <r_i_glide_rewards>  (163) 
-0.5

>  <r_i_glide_evdw>  (163) 
-29.8891

>  <r_i_glide_ecoul>  (163) 
-0.134508

>  <r_i_glide_erotb>  (163) 
0

>  <r_i_glide_esite>  (163) 
-0.0439465

>  <r_i_glide_emodel>  (163) 
-32.9974

>  <r_i_glide_energy>  (163) 
-30.0236

>  <r_i_glide_einternal>  (163) 
10.3094

>  <r_i_glide_intrahb_reward>  (163) 
-0.5

>  <i_i_glide_confnum>  (163) 
1

>  <i_i_glide_posenum>  (163) 
4

>  <r_i_glide_eff_state_penalty>  (163) 
0

>  <ligand_id>  (163) 
40

>  <original_smiles>  (163) 
COC1C2CCC(OC)C34C(O)CCC3C3(O)C(=O)C5(C=CC=CCC6C(C)C(=O)C(=O)C6O5)C=C3C(O)(C2OC)C14

>  <smiles>  (163) 
[H]OC1=C2OC3(C(=O)C4(O[H])C(=C3[H])C3(O[H])C([H])(OC([H])([H])[H])C5([H])C([H])([H])C([H])([H])C([H])(OC([H])([H])[H])C6(C([H])(O[H])C([H])([H])C([H])([H])C46[H])C3([H])C5([H])OC([H])([H])[H])C([H])=C([H])C([H])=C([H])C([H])([H])C2([H])C([H])(C([H])([H])[H])C1=O

$$$$
40:7:0
     RDKit          3D

 82 88  0  0  1  0  0  0  0  0999 V2000
    3.5805   -1.5954   -1.7618 C   0  0  0  0  0  0  0  0  0  0  0  0
    3.4161   -2.4829   -0.6552 O   0  0  0  0  0  0  0  0  0  0  0  0
    3.8727   -1.9561    0.5895 C   0  0  2  0  0  0  0  0  0  0  0  0
    5.4014   -2.0950    0.6715 C   0  0  1  0  0  0  0  0  0  0  0  0
    6.0285   -0.8585    1.3226 C   0  0  0  0  0  0  0  0  0  0  0  0
    5.2049   -0.2095    2.4409 C   0  0  0  0  0  0  0  0  0  0  0  0
    4.6106   -1.1269    3.5277 C   0  0  1  0  0  0  0  0  0  0  0  0
    4.4049   -0.3654    4.7360 O   0  0  0  0  0  0  0  0  0  0  0  0
    3.9365    0.9866    4.6574 C   0  0  0  0  0  0  0  0  0  0  0  0
    3.3540   -2.0509    3.1892 C   0  0  2  0  0  0  0  0  0  0  0  0
    2.0181   -1.2651    3.3480 C   0  0  1  0  0  0  0  0  0  0  0  0
    1.6649   -0.3923    2.2869 O   0  0  0  0  0  0  0  0  0  0  0  0
    0.9142   -2.2568    3.6946 C   0  0  0  0  0  0  0  0  0  0  0  0
    1.6478   -3.4457    4.3155 C   0  0  0  0  0  0  0  0  0  0  0  0
    3.1555   -3.0887    4.3426 C   0  0  1  0  0  0  0  0  0  0  0  0
    4.1362   -4.2993    4.3315 C   0  0  1  0  0  0  0  0  0  0  0  0
    5.4206   -3.9259    4.7618 O   0  0  0  0  0  0  0  0  0  0  0  0
    3.7128   -5.4879    5.1969 C   0  0  0  0  0  0  0  0  0  0  0  0
    3.3027   -5.3883    6.3538 O   0  0  0  0  0  0  0  0  0  0  0  0
    3.8192   -6.8098    4.4364 C   0  0  1  0  0  0  0  0  0  0  0  0
    5.1255   -7.5279    4.8338 C   0  0  0  0  0  0  0  0  0  0  0  0
    5.3400   -8.8597    4.9004 C   0  0  0  0  0  0  0  0  0  0  0  0
    4.3172   -9.7969    4.5109 C   0  0  0  0  0  0  0  0  0  0  0  0
    3.7953   -9.7224    3.2794 C   0  0  0  0  0  0  0  0  0  0  0  0
    2.3473  -10.0088    2.9893 C   0  0  0  0  0  0  0  0  0  0  0  0
    1.6029   -8.6675    2.7398 C   0  0  1  0  0  0  0  0  0  0  0  0
    0.0967   -8.7459    2.3409 C   0  0  1  0  0  0  0  0  0  0  0  0
   -0.6033  -10.0730    2.6625 C   0  0  0  0  0  0  0  0  0  0  0  0
   -0.5434   -7.6008    3.1231 C   0  0  0  0  0  0  0  0  0  0  0  0
   -1.6928   -7.2069    2.9085 O   0  0  0  0  0  0  0  0  0  0  0  0
    0.4044   -7.0869    4.0982 C   0  0  0  0  0  0  0  0  0  0  0  0
    0.0354   -6.2600    5.0908 O   0  0  0  0  0  0  0  0  0  0  0  0
    1.5918   -7.6527    3.8856 C   0  0  0  0  0  0  0  0  0  0  0  0
    2.6425   -7.5763    4.7717 O   0  0  0  0  0  0  0  0  0  0  0  0
    3.9595   -6.2594    3.0266 C   0  0  0  0  0  0  0  0  0  0  0  0
    4.1936   -4.9351    2.9718 C   0  0  0  0  0  0  0  0  0  0  0  0
    4.2961   -4.0617    1.7194 C   0  0  2  0  0  0  0  0  0  0  0  0
    3.8926   -4.8254    0.5891 O   0  0  0  0  0  0  0  0  0  0  0  0
    5.6859   -3.4266    1.4182 C   0  0  1  0  0  0  0  0  0  0  0  0
    6.5539   -4.2231    0.6120 O   0  0  0  0  0  0  0  0  0  0  0  0
    7.1209   -5.3452    1.2655 C   0  0  0  0  0  0  0  0  0  0  0  0
    3.3761   -2.8124    1.7829 C   0  0  2  0  0  0  0  0  0  0  0  0
    3.2334   -2.0818   -2.6739 H   0  0  0  0  0  0  0  0  0  0  0  0
    4.6208   -1.3081   -1.9241 H   0  0  0  0  0  0  0  0  0  0  0  0
    3.0040   -0.6789   -1.6352 H   0  0  0  0  0  0  0  0  0  0  0  0
    3.5104   -0.9326    0.6442 H   0  0  0  0  0  0  0  0  0  0  0  0
    5.8403   -2.1675   -0.3223 H   0  0  0  0  0  0  0  0  0  0  0  0
    7.0332   -1.0829    1.6766 H   0  0  0  0  0  0  0  0  0  0  0  0
    6.1569   -0.0876    0.5633 H   0  0  0  0  0  0  0  0  0  0  0  0
    5.9233    0.4448    2.9291 H   0  0  0  0  0  0  0  0  0  0  0  0
    4.4198    0.4285    2.0359 H   0  0  0  0  0  0  0  0  0  0  0  0
    5.4490   -1.7625    3.7871 H   0  0  0  0  0  0  0  0  0  0  0  0
    3.7174    1.3332    5.6690 H   0  0  0  0  0  0  0  0  0  0  0  0
    3.0366    1.0853    4.0607 H   0  0  0  0  0  0  0  0  0  0  0  0
    4.6888    1.6643    4.2528 H   0  0  0  0  0  0  0  0  0  0  0  0
    2.0654   -0.6836    4.2606 H   0  0  0  0  0  0  0  0  0  0  0  0
    1.5576   -0.8665    1.4662 H   0  0  0  0  0  0  0  0  0  0  0  0
    0.2275   -1.7902    4.3990 H   0  0  0  0  0  0  0  0  0  0  0  0
    0.3308   -2.5618    2.8287 H   0  0  0  0  0  0  0  0  0  0  0  0
    1.2755   -3.6519    5.3212 H   0  0  0  0  0  0  0  0  0  0  0  0
    1.4590   -4.3221    3.6963 H   0  0  0  0  0  0  0  0  0  0  0  0
    3.3186   -2.5682    5.2875 H   0  0  0  0  0  0  0  0  0  0  0  0
    5.9949   -4.6751    4.6778 H   0  0  0  0  0  0  0  0  0  0  0  0
    5.9404   -6.8791    5.1179 H   0  0  0  0  0  0  0  0  0  0  0  0
    6.3088   -9.2257    5.2104 H   0  0  0  0  0  0  0  0  0  0  0  0
    3.7515  -10.2735    5.2969 H   0  0  0  0  0  0  0  0  0  0  0  0
    4.3127   -9.1561    2.5195 H   0  0  0  0  0  0  0  0  0  0  0  0
    2.3015  -10.6366    2.1012 H   0  0  0  0  0  0  0  0  0  0  0  0
    1.9041  -10.5727    3.8116 H   0  0  0  0  0  0  0  0  0  0  0  0
    2.1006   -8.1712    1.9071 H   0  0  0  0  0  0  0  0  0  0  0  0
   -0.0136   -8.5170    1.2828 H   0  0  0  0  0  0  0  0  0  0  0  0
   -1.6582  -10.0163    2.3976 H   0  0  0  0  0  0  0  0  0  0  0  0
   -0.5465  -10.2969    3.7245 H   0  0  0  0  0  0  0  0  0  0  0  0
   -0.1717  -10.9074    2.1079 H   0  0  0  0  0  0  0  0  0  0  0  0
    0.7961   -6.1121    5.6380 H   0  0  0  0  0  0  0  0  0  0  0  0
    3.9091   -6.9022    2.1622 H   0  0  0  0  0  0  0  0  0  0  0  0
    3.8841   -4.2323   -0.1549 H   0  0  0  0  0  0  0  0  0  0  0  0
    6.2074   -3.2058    2.3483 H   0  0  0  0  0  0  0  0  0  0  0  0
    7.8305   -5.8280    0.5942 H   0  0  0  0  0  0  0  0  0  0  0  0
    6.3591   -6.0791    1.5222 H   0  0  0  0  0  0  0  0  0  0  0  0
    7.6568   -5.0544    2.1694 H   0  0  0  0  0  0  0  0  0  0  0  0
    2.3589   -3.1379    1.5647 H   0  0  0  0  0  0  0  0  0  0  0  0
  1  2  1  0
  1 43  1  0
  1 44  1  0
  1 45  1  0
  2  3  1  0
  3 42  1  0
  3  4  1  0
  3 46  1  1
  4 39  1  0
  4  5  1  0
  4 47  1  6
  5  6  1  0
  5 48  1  0
  5 49  1  0
  6  7  1  0
  6 50  1  0
  6 51  1  0
  7  8  1  0
 10  7  1  1
  7 52  1  1
  8  9  1  0
  9 53  1  0
  9 54  1  0
  9 55  1  0
 10 15  1  0
 10 42  1  0
 10 11  1  0
 11 12  1  0
 11 13  1  0
 11 56  1  1
 12 57  1  0
 13 14  1  0
 13 58  1  0
 13 59  1  0
 14 15  1  0
 14 60  1  0
 14 61  1  0
 15 16  1  0
 15 62  1  1
 16 36  1  0
 16 17  1  1
 16 18  1  0
 17 63  1  0
 18 19  2  0
 18 20  1  0
 20 34  1  6
 20 21  1  0
 20 35  1  0
 21 22  2  3
 21 64  1  0
 22 23  1  0
 22 65  1  0
 23 24  2  3
 23 66  1  0
 24 25  1  0
 24 67  1  0
 25 68  1  0
 25 69  1  0
 25 26  1  0
 26 27  1  0
 26 70  1  6
 26 33  1  0
 27 28  1  0
 27 71  1  6
 27 29  1  0
 28 72  1  0
 28 73  1  0
 28 74  1  0
 29 31  1  0
 29 30  2  0
 31 33  2  0
 31 32  1  0
 32 75  1  0
 33 34  1  0
 35 36  2  0
 35 76  1  0
 36 37  1  0
 37 38  1  6
 37 39  1  0
 37 42  1  0
 38 77  1  0
 39 40  1  0
 39 78  1  1
 40 41  1  0
 41 79  1  0
 41 80  1  0
 41 81  1  0
 42 82  1  6
M  END
>  <i_m_ct_stereo_status>  (164) 
1

>  <s_m_source_file>  (164) 
/var/tmp/pbs.5076255.sched01/tmpco4mv84g/486h_uxm9x.sdf

>  <i_m_source_file_index>  (164) 
26

>  <i_lp_mmshare_version>  (164) 
48012

>  <i_f3d_flags>  (164) 
0

>  <s_epik_input>  (164) 
W0NIM11PW0NAQEhdMVtDSDJdW0NIMl1bQ0BASF0oW0NAQEhdMk9bQ0gzXSlbQ0BASF0oT1tDSDNdKVtDQEhdM1tDQF0yKFtPSF0pQyhbQ0BAXTQoW09IXSlbQ0BASF0oW0NAQF0xMzUpW0NIMl1bQ0gyXVtDQEBIXTVbT0hdKT1bQ0hdW0NAXTYoQzQ9TykvW0NIXT1bQ0hdL1tDSF09W0NIXVxbQ0gyXVtDQEhdN1tDQEhdKE82KUMoPU8pQyg9TylbQ0BASF03W0NIM10=

>  <s_epik_cmdline>  (164) 
J2VwaWtfcHl0aG9uJywgJy1waHQnLCAnMi4wJywgJy1waCcsICc3LjAnLCAnLXRuJywgJzgnLCAnLW1hJywgJzIwMCcsICctaW1hZScsICc8aW5maWxlLm1hZT4nLCAnLW9tYWUnLCAnPG91dGZpbGUubWFlPic=

>  <r_lp_tautomer_probability>  (164) 
0.499803

>  <r_epik_Ionization_Penalty>  (164) 
0.0152423

>  <r_epik_Ionization_Penalty_Charging>  (164) 
0

>  <r_epik_Ionization_Penalty_Neutral>  (164) 
0.0152423

>  <r_epik_State_Penalty>  (164) 
0.605736

>  <r_epik_Charging_Adjusted_Penalty>  (164) 
0.605736

>  <i_epik_Tot_Q>  (164) 
0

>  <i_epik_Tot_abs_Q>  (164) 
0

>  <s_lp_Force_Field>  (164) 
OPLS3e

>  <r_lp_Energy>  (164) 
88.4017

>  <b_lp_Chiralities_Consistent>  (164) 
1

>  <s_lp_Variant>  (164) 
40:0-8

>  <s_i_glide_gridfile>  (164) 
pfpi4k_grid

>  <i_i_glide_lignum>  (164) 
26

>  <i_i_glide_rotatable_bonds>  (164) 
7

>  <r_i_docking_score>  (164) 
-3.41845

>  <r_i_glide_ligand_efficiency>  (164) 
-0.0813916

>  <r_i_glide_ligand_efficiency_sa>  (164) 
-0.282919

>  <r_i_glide_ligand_efficiency_ln>  (164) 
-0.721546

>  <r_i_glide_gscore>  (164) 
-3.41845

>  <r_i_glide_lipo>  (164) 
-0.564035

>  <r_i_glide_hbond>  (164) 
-0.148617

>  <r_i_glide_metal>  (164) 
-0

>  <r_i_glide_rewards>  (164) 
-0.5

>  <r_i_glide_evdw>  (164) 
-30.5184

>  <r_i_glide_ecoul>  (164) 
-4.1226

>  <r_i_glide_erotb>  (164) 
0

>  <r_i_glide_esite>  (164) 
-0.061485

>  <r_i_glide_emodel>  (164) 
-42.2331

>  <r_i_glide_energy>  (164) 
-34.641

>  <r_i_glide_einternal>  (164) 
9.0238

>  <r_i_glide_intrahb_reward>  (164) 
-0.5

>  <i_i_glide_confnum>  (164) 
1

>  <i_i_glide_posenum>  (164) 
16

>  <r_i_glide_eff_state_penalty>  (164) 
0

>  <ligand_id>  (164) 
40

>  <original_smiles>  (164) 
COC1C2CCC(OC)C34C(O)CCC3C3(O)C(=O)C5(C=CC=CCC6C(C)C(=O)C(=O)C6O5)C=C3C(O)(C2OC)C14

>  <smiles>  (164) 
[H]OC1=C2OC3(C(=O)C4(O[H])C(=C3[H])C3(O[H])C([H])(OC([H])([H])[H])C5([H])C([H])([H])C([H])([H])C([H])(OC([H])([H])[H])C6(C([H])(O[H])C([H])([H])C([H])([H])C46[H])C3([H])C5([H])OC([H])([H])[H])C([H])=C([H])C([H])=C([H])C([H])([H])C2([H])C([H])(C([H])([H])[H])C1=O

$$$$
40:7:1
     RDKit          3D

 82 88  0  0  1  0  0  0  0  0999 V2000
    3.5837   -1.5931   -1.7639 C   0  0  0  0  0  0  0  0  0  0  0  0
    3.4165   -2.4793   -0.6569 O   0  0  0  0  0  0  0  0  0  0  0  0
    3.8772   -1.9529    0.5866 C   0  0  2  0  0  0  0  0  0  0  0  0
    5.4059   -2.0936    0.6691 C   0  0  1  0  0  0  0  0  0  0  0  0
    6.0341   -0.8563    1.3209 C   0  0  0  0  0  0  0  0  0  0  0  0
    5.2094   -0.2032    2.4377 C   0  0  0  0  0  0  0  0  0  0  0  0
    4.6122   -1.1203    3.5240 C   0  0  1  0  0  0  0  0  0  0  0  0
    4.4103   -0.3621    4.7323 O   0  0  0  0  0  0  0  0  0  0  0  0
    3.9353    0.9872    4.6519 C   0  0  0  0  0  0  0  0  0  0  0  0
    3.3568   -2.0449    3.1863 C   0  0  2  0  0  0  0  0  0  0  0  0
    2.0231   -1.2563    3.3425 C   0  0  1  0  0  0  0  0  0  0  0  0
    1.6713   -0.3861    2.2774 O   0  0  0  0  0  0  0  0  0  0  0  0
    0.9176   -2.2477    3.6892 C   0  0  0  0  0  0  0  0  0  0  0  0
    1.6491   -3.4365    4.3119 C   0  0  0  0  0  0  0  0  0  0  0  0
    3.1575   -3.0807    4.3411 C   0  0  1  0  0  0  0  0  0  0  0  0
    4.1377   -4.2911    4.3340 C   0  0  1  0  0  0  0  0  0  0  0  0
    5.4256   -3.9282    4.7706 O   0  0  0  0  0  0  0  0  0  0  0  0
    3.7106   -5.4800    5.1946 C   0  0  0  0  0  0  0  0  0  0  0  0
    3.2894   -5.3796    6.3530 O   0  0  0  0  0  0  0  0  0  0  0  0
    3.8180   -6.8036    4.4409 C   0  0  1  0  0  0  0  0  0  0  0  0
    5.1266   -7.5196    4.8382 C   0  0  0  0  0  0  0  0  0  0  0  0
    5.3400   -8.8517    4.9079 C   0  0  0  0  0  0  0  0  0  0  0  0
    4.3168   -9.7889    4.5189 C   0  0  0  0  0  0  0  0  0  0  0  0
    3.7971   -9.7165    3.2863 C   0  0  0  0  0  0  0  0  0  0  0  0
    2.3483  -10.0029    2.9942 C   0  0  0  0  0  0  0  0  0  0  0  0
    1.6043   -8.6605    2.7436 C   0  0  1  0  0  0  0  0  0  0  0  0
    0.0986   -8.7408    2.3503 C   0  0  1  0  0  0  0  0  0  0  0  0
   -0.6022  -10.0659    2.6648 C   0  0  0  0  0  0  0  0  0  0  0  0
   -0.5373   -7.5968    3.1233 C   0  0  0  0  0  0  0  0  0  0  0  0
   -1.6925   -7.1986    2.9078 O   0  0  0  0  0  0  0  0  0  0  0  0
    0.4024   -7.0748    4.0984 C   0  0  0  0  0  0  0  0  0  0  0  0
    0.0364   -6.2523    5.0897 O   0  0  0  0  0  0  0  0  0  0  0  0
    1.5952   -7.6461    3.8849 C   0  0  0  0  0  0  0  0  0  0  0  0
    2.6423   -7.5704    4.7752 O   0  0  0  0  0  0  0  0  0  0  0  0
    3.9601   -6.2540    3.0283 C   0  0  0  0  0  0  0  0  0  0  0  0
    4.1951   -4.9331    2.9729 C   0  0  0  0  0  0  0  0  0  0  0  0
    4.2986   -4.0589    1.7189 C   0  0  2  0  0  0  0  0  0  0  0  0
    3.8955   -4.8224    0.5871 O   0  0  0  0  0  0  0  0  0  0  0  0
    5.6883   -3.4249    1.4162 C   0  0  1  0  0  0  0  0  0  0  0  0
    6.5601   -4.2212    0.6146 O   0  0  0  0  0  0  0  0  0  0  0  0
    7.1221   -5.3457    1.2700 C   0  0  0  0  0  0  0  0  0  0  0  0
    3.3796   -2.8083    1.7810 C   0  0  2  0  0  0  0  0  0  0  0  0
    3.2386   -2.0795   -2.6766 H   0  0  0  0  0  0  0  0  0  0  0  0
    4.6236   -1.3036   -1.9241 H   0  0  0  0  0  0  0  0  0  0  0  0
    3.0080   -0.6766   -1.6375 H   0  0  0  0  0  0  0  0  0  0  0  0
    3.5170   -0.9287    0.6405 H   0  0  0  0  0  0  0  0  0  0  0  0
    5.8454   -2.1654   -0.3243 H   0  0  0  0  0  0  0  0  0  0  0  0
    7.0388   -1.0790    1.6764 H   0  0  0  0  0  0  0  0  0  0  0  0
    6.1652   -0.0864    0.5616 H   0  0  0  0  0  0  0  0  0  0  0  0
    5.9261    0.4510    2.9260 H   0  0  0  0  0  0  0  0  0  0  0  0
    4.4253    0.4348    2.0294 H   0  0  0  0  0  0  0  0  0  0  0  0
    5.4500   -1.7555    3.7833 H   0  0  0  0  0  0  0  0  0  0  0  0
    3.7168    1.3387    5.6618 H   0  0  0  0  0  0  0  0  0  0  0  0
    3.0353    1.0787    4.0576 H   0  0  0  0  0  0  0  0  0  0  0  0
    4.6838    1.6670    4.2420 H   0  0  0  0  0  0  0  0  0  0  0  0
    2.0701   -0.6698    4.2502 H   0  0  0  0  0  0  0  0  0  0  0  0
    1.5584   -0.8611    1.4603 H   0  0  0  0  0  0  0  0  0  0  0  0
    0.2289   -1.7808    4.3913 H   0  0  0  0  0  0  0  0  0  0  0  0
    0.3360   -2.5539    2.8217 H   0  0  0  0  0  0  0  0  0  0  0  0
    1.2747   -3.6425    5.3168 H   0  0  0  0  0  0  0  0  0  0  0  0
    1.4610   -4.3141    3.6938 H   0  0  0  0  0  0  0  0  0  0  0  0
    3.3162   -2.5601    5.2867 H   0  0  0  0  0  0  0  0  0  0  0  0
    5.7309   -3.1961    4.2621 H   0  0  0  0  0  0  0  0  0  0  0  0
    5.9385   -6.8643    5.1190 H   0  0  0  0  0  0  0  0  0  0  0  0
    6.3080   -9.2181    5.2192 H   0  0  0  0  0  0  0  0  0  0  0  0
    3.7499  -10.2654    5.3035 H   0  0  0  0  0  0  0  0  0  0  0  0
    4.3148   -9.1513    2.5261 H   0  0  0  0  0  0  0  0  0  0  0  0
    2.3031  -10.6317    2.1066 H   0  0  0  0  0  0  0  0  0  0  0  0
    1.9037  -10.5658    3.8169 H   0  0  0  0  0  0  0  0  0  0  0  0
    2.1030   -8.1672    1.9102 H   0  0  0  0  0  0  0  0  0  0  0  0
   -0.0113   -8.5100    1.2968 H   0  0  0  0  0  0  0  0  0  0  0  0
   -1.6574  -10.0092    2.3980 H   0  0  0  0  0  0  0  0  0  0  0  0
   -0.5480  -10.2904    3.7279 H   0  0  0  0  0  0  0  0  0  0  0  0
   -0.1706  -10.9014    2.1112 H   0  0  0  0  0  0  0  0  0  0  0  0
    0.7956   -6.1022    5.6356 H   0  0  0  0  0  0  0  0  0  0  0  0
    3.9135   -6.9003    2.1642 H   0  0  0  0  0  0  0  0  0  0  0  0
    3.8896   -4.2315   -0.1574 H   0  0  0  0  0  0  0  0  0  0  0  0
    6.2076   -3.2037    2.3467 H   0  0  0  0  0  0  0  0  0  0  0  0
    7.8329   -5.8295    0.6009 H   0  0  0  0  0  0  0  0  0  0  0  0
    6.3576   -6.0780    1.5232 H   0  0  0  0  0  0  0  0  0  0  0  0
    7.6551   -5.0571    2.1765 H   0  0  0  0  0  0  0  0  0  0  0  0
    2.3623   -3.1337    1.5615 H   0  0  0  0  0  0  0  0  0  0  0  0
  1  2  1  0
  1 43  1  0
  1 44  1  0
  1 45  1  0
  2  3  1  0
  3 42  1  0
  3  4  1  0
  3 46  1  1
  4 39  1  0
  4  5  1  0
  4 47  1  6
  5  6  1  0
  5 48  1  0
  5 49  1  0
  6  7  1  0
  6 50  1  0
  6 51  1  0
  7  8  1  0
 10  7  1  1
  7 52  1  1
  8  9  1  0
  9 53  1  0
  9 54  1  0
  9 55  1  0
 10 15  1  0
 10 42  1  0
 10 11  1  0
 11 12  1  0
 11 13  1  0
 11 56  1  1
 12 57  1  0
 13 14  1  0
 13 58  1  0
 13 59  1  0
 14 15  1  0
 14 60  1  0
 14 61  1  0
 15 16  1  0
 15 62  1  1
 16 36  1  0
 16 17  1  1
 16 18  1  0
 17 63  1  0
 18 19  2  0
 18 20  1  0
 20 34  1  6
 20 21  1  0
 20 35  1  0
 21 22  2  3
 21 64  1  0
 22 23  1  0
 22 65  1  0
 23 24  2  3
 23 66  1  0
 24 25  1  0
 24 67  1  0
 25 68  1  0
 25 69  1  0
 25 26  1  0
 26 27  1  0
 26 70  1  6
 26 33  1  0
 27 28  1  0
 27 71  1  6
 27 29  1  0
 28 72  1  0
 28 73  1  0
 28 74  1  0
 29 31  1  0
 29 30  2  0
 31 33  2  0
 31 32  1  0
 32 75  1  0
 33 34  1  0
 35 36  2  0
 35 76  1  0
 36 37  1  0
 37 38  1  6
 37 39  1  0
 37 42  1  0
 38 77  1  0
 39 40  1  0
 39 78  1  1
 40 41  1  0
 41 79  1  0
 41 80  1  0
 41 81  1  0
 42 82  1  6
M  END
>  <i_m_ct_stereo_status>  (165) 
1

>  <s_m_source_file>  (165) 
/var/tmp/pbs.5076255.sched01/tmpco4mv84g/486h_uxm9x.sdf

>  <i_m_source_file_index>  (165) 
26

>  <i_lp_mmshare_version>  (165) 
48012

>  <i_f3d_flags>  (165) 
0

>  <s_epik_input>  (165) 
W0NIM11PW0NAQEhdMVtDSDJdW0NIMl1bQ0BASF0oW0NAQEhdMk9bQ0gzXSlbQ0BASF0oT1tDSDNdKVtDQEhdM1tDQF0yKFtPSF0pQyhbQ0BAXTQoW09IXSlbQ0BASF0oW0NAQF0xMzUpW0NIMl1bQ0gyXVtDQEBIXTVbT0hdKT1bQ0hdW0NAXTYoQzQ9TykvW0NIXT1bQ0hdL1tDSF09W0NIXVxbQ0gyXVtDQEhdN1tDQEhdKE82KUMoPU8pQyg9TylbQ0BASF03W0NIM10=

>  <s_epik_cmdline>  (165) 
J2VwaWtfcHl0aG9uJywgJy1waHQnLCAnMi4wJywgJy1waCcsICc3LjAnLCAnLXRuJywgJzgnLCAnLW1hJywgJzIwMCcsICctaW1hZScsICc8aW5maWxlLm1hZT4nLCAnLW9tYWUnLCAnPG91dGZpbGUubWFlPic=

>  <r_lp_tautomer_probability>  (165) 
0.499803

>  <r_epik_Ionization_Penalty>  (165) 
0.0152423

>  <r_epik_Ionization_Penalty_Charging>  (165) 
0

>  <r_epik_Ionization_Penalty_Neutral>  (165) 
0.0152423

>  <r_epik_State_Penalty>  (165) 
0.605736

>  <r_epik_Charging_Adjusted_Penalty>  (165) 
0.605736

>  <i_epik_Tot_Q>  (165) 
0

>  <i_epik_Tot_abs_Q>  (165) 
0

>  <s_lp_Force_Field>  (165) 
OPLS3e

>  <r_lp_Energy>  (165) 
88.4017

>  <b_lp_Chiralities_Consistent>  (165) 
1

>  <s_lp_Variant>  (165) 
40:0-8

>  <s_i_glide_gridfile>  (165) 
pfpi4k_grid

>  <i_i_glide_lignum>  (165) 
26

>  <i_i_glide_rotatable_bonds>  (165) 
7

>  <r_i_docking_score>  (165) 
-3.40956

>  <r_i_glide_ligand_efficiency>  (165) 
-0.0811799

>  <r_i_glide_ligand_efficiency_sa>  (165) 
-0.282184

>  <r_i_glide_ligand_efficiency_ln>  (165) 
-0.71967

>  <r_i_glide_gscore>  (165) 
-3.40956

>  <r_i_glide_lipo>  (165) 
-0.562333

>  <r_i_glide_hbond>  (165) 
-0.153633

>  <r_i_glide_metal>  (165) 
-0

>  <r_i_glide_rewards>  (165) 
-0.5

>  <r_i_glide_evdw>  (165) 
-30.5036

>  <r_i_glide_ecoul>  (165) 
-4.04684

>  <r_i_glide_erotb>  (165) 
0

>  <r_i_glide_esite>  (165) 
-0.0613828

>  <r_i_glide_emodel>  (165) 
-43.0495

>  <r_i_glide_energy>  (165) 
-34.5505

>  <r_i_glide_einternal>  (165) 
7.25676

>  <r_i_glide_intrahb_reward>  (165) 
-0.5

>  <i_i_glide_confnum>  (165) 
1

>  <i_i_glide_posenum>  (165) 
5

>  <r_i_glide_eff_state_penalty>  (165) 
0

>  <ligand_id>  (165) 
40

>  <original_smiles>  (165) 
COC1C2CCC(OC)C34C(O)CCC3C3(O)C(=O)C5(C=CC=CCC6C(C)C(=O)C(=O)C6O5)C=C3C(O)(C2OC)C14

>  <smiles>  (165) 
[H]OC1=C2OC3(C(=O)C4(O[H])C(=C3[H])C3(O[H])C([H])(OC([H])([H])[H])C5([H])C([H])([H])C([H])([H])C([H])(OC([H])([H])[H])C6(C([H])(O[H])C([H])([H])C([H])([H])C46[H])C3([H])C5([H])OC([H])([H])[H])C([H])=C([H])C([H])=C([H])C([H])([H])C2([H])C([H])(C([H])([H])[H])C1=O

$$$$
40:7:2
     RDKit          3D

 82 88  0  0  1  0  0  0  0  0999 V2000
   -1.1508   -7.8024    2.3261 C   0  0  0  0  0  0  0  0  0  0  0  0
   -0.4410   -6.6516    2.7780 O   0  0  0  0  0  0  0  0  0  0  0  0
    0.9839   -6.7625    2.7550 C   0  0  2  0  0  0  0  0  0  0  0  0
    1.4837   -7.6202    3.9261 C   0  0  1  0  0  0  0  0  0  0  0  0
    2.6373   -8.5404    3.4738 C   0  0  0  0  0  0  0  0  0  0  0  0
    3.6036   -7.9510    2.4203 C   0  0  0  0  0  0  0  0  0  0  0  0
    4.1308   -6.5379    2.7450 C   0  0  1  0  0  0  0  0  0  0  0  0
    5.3543   -6.3455    2.0346 O   0  0  0  0  0  0  0  0  0  0  0  0
    6.5318   -6.8475    2.6534 C   0  0  0  0  0  0  0  0  0  0  0  0
    3.1757   -5.2967    2.4595 C   0  0  2  0  0  0  0  0  0  0  0  0
    3.1709   -4.9132    0.9392 C   0  0  1  0  0  0  0  0  0  0  0  0
    2.2669   -5.6129    0.1023 O   0  0  0  0  0  0  0  0  0  0  0  0
    2.8855   -3.4161    0.8575 C   0  0  0  0  0  0  0  0  0  0  0  0
    3.2790   -2.8438    2.2159 C   0  0  0  0  0  0  0  0  0  0  0  0
    3.8585   -4.0145    3.0394 C   0  0  1  0  0  0  0  0  0  0  0  0
    3.8017   -3.8669    4.5901 C   0  0  1  0  0  0  0  0  0  0  0  0
    4.6945   -4.7388    5.2472 O   0  0  0  0  0  0  0  0  0  0  0  0
    4.1022   -2.4597    5.1184 C   0  0  0  0  0  0  0  0  0  0  0  0
    5.0382   -1.7585    4.7299 O   0  0  0  0  0  0  0  0  0  0  0  0
    3.0636   -1.9946    6.1371 C   0  0  1  0  0  0  0  0  0  0  0  0
    3.6122   -2.2004    7.5632 C   0  0  0  0  0  0  0  0  0  0  0  0
    3.3540   -1.4528    8.6575 C   0  0  0  0  0  0  0  0  0  0  0  0
    2.4209   -0.3562    8.6043 C   0  0  0  0  0  0  0  0  0  0  0  0
    1.1661   -0.5841    8.1956 C   0  0  0  0  0  0  0  0  0  0  0  0
    0.3821    0.4097    7.3810 C   0  0  0  0  0  0  0  0  0  0  0  0
    0.3078   -0.0826    5.9074 C   0  0  1  0  0  0  0  0  0  0  0  0
   -0.5378    0.7727    4.9101 C   0  0  1  0  0  0  0  0  0  0  0  0
   -0.8276    2.2155    5.3501 C   0  0  0  0  0  0  0  0  0  0  0  0
    0.3063    0.7613    3.6322 C   0  0  0  0  0  0  0  0  0  0  0  0
   -0.1272    1.1749    2.5578 O   0  0  0  0  0  0  0  0  0  0  0  0
    1.6328    0.2263    3.9231 C   0  0  0  0  0  0  0  0  0  0  0  0
    2.6723    0.3535    3.0825 O   0  0  0  0  0  0  0  0  0  0  0  0
    1.6342   -0.2594    5.1672 C   0  0  0  0  0  0  0  0  0  0  0  0
    2.7775   -0.6079    5.8495 O   0  0  0  0  0  0  0  0  0  0  0  0
    1.9888   -3.0377    5.8684 C   0  0  0  0  0  0  0  0  0  0  0  0
    2.3962   -4.0634    5.0976 C   0  0  0  0  0  0  0  0  0  0  0  0
    1.5374   -5.2135    4.5628 C   0  0  2  0  0  0  0  0  0  0  0  0
    0.1815   -4.9349    4.8834 O   0  0  0  0  0  0  0  0  0  0  0  0
    1.8599   -6.6422    5.0824 C   0  0  1  0  0  0  0  0  0  0  0  0
    1.1887   -6.9637    6.3025 O   0  0  0  0  0  0  0  0  0  0  0  0
    1.6214   -8.1842    6.9029 C   0  0  0  0  0  0  0  0  0  0  0  0
    1.6774   -5.3979    3.0204 C   0  0  2  0  0  0  0  0  0  0  0  0
   -2.2225   -7.6395    2.4671 H   0  0  0  0  0  0  0  0  0  0  0  0
   -0.8949   -8.7107    2.8740 H   0  0  0  0  0  0  0  0  0  0  0  0
   -0.9646   -7.9765    1.2646 H   0  0  0  0  0  0  0  0  0  0  0  0
    1.2342   -7.1658    1.7782 H   0  0  0  0  0  0  0  0  0  0  0  0
    0.6872   -8.2709    4.2814 H   0  0  0  0  0  0  0  0  0  0  0  0
    3.1996   -8.8852    4.3419 H   0  0  0  0  0  0  0  0  0  0  0  0
    2.2108   -9.4449    3.0398 H   0  0  0  0  0  0  0  0  0  0  0  0
    4.4422   -8.6450    2.3758 H   0  0  0  0  0  0  0  0  0  0  0  0
    3.1876   -7.9795    1.4124 H   0  0  0  0  0  0  0  0  0  0  0  0
    4.3958   -6.5792    3.7923 H   0  0  0  0  0  0  0  0  0  0  0  0
    7.3842   -6.6574    2.0016 H   0  0  0  0  0  0  0  0  0  0  0  0
    6.4854   -7.9221    2.8230 H   0  0  0  0  0  0  0  0  0  0  0  0
    6.7250   -6.3501    3.6039 H   0  0  0  0  0  0  0  0  0  0  0  0
    4.1661   -5.0550    0.5159 H   0  0  0  0  0  0  0  0  0  0  0  0
    2.5964   -5.5795   -0.7903 H   0  0  0  0  0  0  0  0  0  0  0  0
    3.4280   -2.9565    0.0346 H   0  0  0  0  0  0  0  0  0  0  0  0
    1.8280   -3.2186    0.6745 H   0  0  0  0  0  0  0  0  0  0  0  0
    4.0046   -2.0404    2.0947 H   0  0  0  0  0  0  0  0  0  0  0  0
    2.3957   -2.4159    2.6902 H   0  0  0  0  0  0  0  0  0  0  0  0
    4.9118   -4.0436    2.7680 H   0  0  0  0  0  0  0  0  0  0  0  0
    4.5126   -5.6209    4.9724 H   0  0  0  0  0  0  0  0  0  0  0  0
    4.3007   -3.0264    7.6665 H   0  0  0  0  0  0  0  0  0  0  0  0
    3.8223   -1.7104    9.5967 H   0  0  0  0  0  0  0  0  0  0  0  0
    2.8271    0.6393    8.5323 H   0  0  0  0  0  0  0  0  0  0  0  0
    0.8056   -1.5992    8.1647 H   0  0  0  0  0  0  0  0  0  0  0  0
   -0.6189    0.4855    7.8006 H   0  0  0  0  0  0  0  0  0  0  0  0
    0.8382    1.3967    7.4570 H   0  0  0  0  0  0  0  0  0  0  0  0
   -0.1448   -1.0722    5.9125 H   0  0  0  0  0  0  0  0  0  0  0  0
   -1.4763    0.2664    4.6957 H   0  0  0  0  0  0  0  0  0  0  0  0
   -1.3741    2.7483    4.5730 H   0  0  0  0  0  0  0  0  0  0  0  0
    0.0928    2.7666    5.5331 H   0  0  0  0  0  0  0  0  0  0  0  0
   -1.4339    2.2532    6.2555 H   0  0  0  0  0  0  0  0  0  0  0  0
    3.4393   -0.0038    3.5028 H   0  0  0  0  0  0  0  0  0  0  0  0
    1.0045   -2.9481    6.2963 H   0  0  0  0  0  0  0  0  0  0  0  0
   -0.0462   -4.1238    4.4639 H   0  0  0  0  0  0  0  0  0  0  0  0
    2.9228   -6.7044    5.3012 H   0  0  0  0  0  0  0  0  0  0  0  0
    0.9850   -8.4286    7.7545 H   0  0  0  0  0  0  0  0  0  0  0  0
    2.6476   -8.0895    7.2575 H   0  0  0  0  0  0  0  0  0  0  0  0
    1.5757   -9.0351    6.2215 H   0  0  0  0  0  0  0  0  0  0  0  0
    1.0853   -4.6225    2.5344 H   0  0  0  0  0  0  0  0  0  0  0  0
  1  2  1  0
  1 43  1  0
  1 44  1  0
  1 45  1  0
  2  3  1  0
  3 42  1  0
  3  4  1  0
  3 46  1  6
  4 39  1  0
  4  5  1  0
  4 47  1  1
  5  6  1  0
  5 48  1  0
  5 49  1  0
  6  7  1  0
  6 50  1  0
  6 51  1  0
  7  8  1  0
 10  7  1  6
  7 52  1  1
  8  9  1  0
  9 53  1  0
  9 54  1  0
  9 55  1  0
 10 15  1  0
 10 42  1  0
 10 11  1  0
 11 12  1  0
 11 13  1  0
 11 56  1  6
 12 57  1  0
 13 14  1  0
 13 58  1  0
 13 59  1  0
 14 15  1  0
 14 60  1  0
 14 61  1  0
 15 16  1  0
 15 62  1  6
 16 36  1  0
 16 17  1  1
 16 18  1  0
 17 63  1  0
 18 19  2  0
 18 20  1  0
 20 34  1  6
 20 21  1  0
 20 35  1  0
 21 22  2  3
 21 64  1  0
 22 23  1  0
 22 65  1  0
 23 24  2  3
 23 66  1  0
 24 25  1  0
 24 67  1  0
 25 68  1  0
 25 69  1  0
 25 26  1  0
 26 27  1  0
 26 70  1  1
 26 33  1  0
 27 28  1  0
 27 71  1  6
 27 29  1  0
 28 72  1  0
 28 73  1  0
 28 74  1  0
 29 31  1  0
 29 30  2  0
 31 33  2  0
 31 32  1  0
 32 75  1  0
 33 34  1  0
 35 36  2  0
 35 76  1  0
 36 37  1  0
 37 38  1  6
 37 39  1  0
 37 42  1  0
 38 77  1  0
 39 40  1  0
 39 78  1  1
 40 41  1  0
 41 79  1  0
 41 80  1  0
 41 81  1  0
 42 82  1  6
M  END
>  <i_m_ct_stereo_status>  (166) 
1

>  <s_m_source_file>  (166) 
/var/tmp/pbs.5076255.sched01/tmpco4mv84g/486h_uxm9x.sdf

>  <i_m_source_file_index>  (166) 
26

>  <i_lp_mmshare_version>  (166) 
48012

>  <i_f3d_flags>  (166) 
0

>  <s_epik_input>  (166) 
W0NIM11PW0NAQEhdMVtDSDJdW0NIMl1bQ0BASF0oW0NAQEhdMk9bQ0gzXSlbQ0BASF0oT1tDSDNdKVtDQEhdM1tDQF0yKFtPSF0pQyhbQ0BAXTQoW09IXSlbQ0BASF0oW0NAQF0xMzUpW0NIMl1bQ0gyXVtDQEBIXTVbT0hdKT1bQ0hdW0NAXTYoQzQ9TykvW0NIXT1bQ0hdL1tDSF09W0NIXVxbQ0gyXVtDQEhdN1tDQEhdKE82KUMoPU8pQyg9TylbQ0BASF03W0NIM10=

>  <s_epik_cmdline>  (166) 
J2VwaWtfcHl0aG9uJywgJy1waHQnLCAnMi4wJywgJy1waCcsICc3LjAnLCAnLXRuJywgJzgnLCAnLW1hJywgJzIwMCcsICctaW1hZScsICc8aW5maWxlLm1hZT4nLCAnLW9tYWUnLCAnPG91dGZpbGUubWFlPic=

>  <r_lp_tautomer_probability>  (166) 
0.499803

>  <r_epik_Ionization_Penalty>  (166) 
0.0152423

>  <r_epik_Ionization_Penalty_Charging>  (166) 
0

>  <r_epik_Ionization_Penalty_Neutral>  (166) 
0.0152423

>  <r_epik_State_Penalty>  (166) 
0.605736

>  <r_epik_Charging_Adjusted_Penalty>  (166) 
0.605736

>  <i_epik_Tot_Q>  (166) 
0

>  <i_epik_Tot_abs_Q>  (166) 
0

>  <s_lp_Force_Field>  (166) 
OPLS3e

>  <r_lp_Energy>  (166) 
88.4017

>  <b_lp_Chiralities_Consistent>  (166) 
1

>  <s_lp_Variant>  (166) 
40:0-8

>  <s_i_glide_gridfile>  (166) 
pfpi4k_grid

>  <i_i_glide_lignum>  (166) 
26

>  <i_i_glide_rotatable_bonds>  (166) 
7

>  <r_i_docking_score>  (166) 
-2.84441

>  <r_i_glide_ligand_efficiency>  (166) 
-0.0677241

>  <r_i_glide_ligand_efficiency_sa>  (166) 
-0.235411

>  <r_i_glide_ligand_efficiency_ln>  (166) 
-0.600382

>  <r_i_glide_gscore>  (166) 
-2.84441

>  <r_i_glide_lipo>  (166) 
-0.0159735

>  <r_i_glide_hbond>  (166) 
-0.48

>  <r_i_glide_metal>  (166) 
-0

>  <r_i_glide_rewards>  (166) 
0

>  <r_i_glide_evdw>  (166) 
-23.1765

>  <r_i_glide_ecoul>  (166) 
-7.80151

>  <r_i_glide_erotb>  (166) 
0

>  <r_i_glide_esite>  (166) 
-0.0193851

>  <r_i_glide_emodel>  (166) 
-36.0432

>  <r_i_glide_energy>  (166) 
-30.9781

>  <r_i_glide_einternal>  (166) 
1.4823

>  <r_i_glide_intrahb_reward>  (166) 
-0

>  <i_i_glide_confnum>  (166) 
2

>  <i_i_glide_posenum>  (166) 
7

>  <r_i_glide_eff_state_penalty>  (166) 
0

>  <ligand_id>  (166) 
40

>  <original_smiles>  (166) 
COC1C2CCC(OC)C34C(O)CCC3C3(O)C(=O)C5(C=CC=CCC6C(C)C(=O)C(=O)C6O5)C=C3C(O)(C2OC)C14

>  <smiles>  (166) 
[H]OC1=C2OC3(C(=O)C4(O[H])C(=C3[H])C3(O[H])C([H])(OC([H])([H])[H])C5([H])C([H])([H])C([H])([H])C([H])(OC([H])([H])[H])C6(C([H])(O[H])C([H])([H])C([H])([H])C46[H])C3([H])C5([H])OC([H])([H])[H])C([H])=C([H])C([H])=C([H])C([H])([H])C2([H])C([H])(C([H])([H])[H])C1=O

$$$$
41:0:0
     RDKit          3D

 36 40  0  0  1  0  0  0  0  0999 V2000
   -1.3961    1.9390    2.6457 C   0  0  0  0  0  0  0  0  0  0  0  0
   -1.2119    2.9738    3.5739 C   0  0  0  0  0  0  0  0  0  0  0  0
    0.0752    3.2394    4.0685 C   0  0  0  0  0  0  0  0  0  0  0  0
    1.1581    2.4414    3.6127 C   0  0  0  0  0  0  0  0  0  0  0  0
    0.9975    1.3737    2.6890 C   0  0  0  0  0  0  0  0  0  0  0  0
   -0.3143    1.1524    2.2157 C   0  0  0  0  0  0  0  0  0  0  0  0
    2.1389    0.5467    2.3274 C   0  0  0  0  0  0  0  0  0  0  0  0
    2.2116   -0.3531    1.2827 N   0  0  0  0  0  0  0  0  0  0  0  0
    3.4551   -0.9495    1.2694 C   0  0  0  0  0  0  0  0  0  0  0  0
    3.9031   -1.8932    0.3917 N   0  0  0  0  0  0  0  0  0  0  0  0
    5.1698   -2.3013    0.5946 C   0  0  0  0  0  0  0  0  0  0  0  0
    6.0042   -1.8095    1.6187 C   0  0  0  0  0  0  0  0  0  0  0  0
    5.5013   -0.8426    2.5165 C   0  0  0  0  0  0  0  0  0  0  0  0
    4.1832   -0.3819    2.3578 C   0  0  0  0  0  0  0  0  0  0  0  0
    3.3137    0.5600    3.0168 C   0  0  0  0  0  0  0  0  0  0  0  0
    3.5116    1.4676    4.1940 C   0  0  0  0  0  0  0  0  0  0  0  0
    2.6148    2.7334    4.0536 C   0  0  2  0  0  0  0  0  0  0  0  0
    2.7136    3.5906    5.2560 N   0  0  0  0  0  0  0  0  0  0  0  0
    1.8249    4.7605    5.1756 C   0  0  0  0  0  0  0  0  0  0  0  0
    0.3799    4.2753    5.1345 C   0  0  0  0  0  0  0  0  0  0  0  0
    1.4843   -0.5561    0.5925 H   0  0  0  0  0  0  0  0  0  0  0  0
   -2.3796    1.7458    2.2511 H   0  0  0  0  0  0  0  0  0  0  0  0
   -2.0584    3.5607    3.9054 H   0  0  0  0  0  0  0  0  0  0  0  0
   -0.4922    0.3581    1.5095 H   0  0  0  0  0  0  0  0  0  0  0  0
    5.5459   -3.0519   -0.0893 H   0  0  0  0  0  0  0  0  0  0  0  0
    7.0110   -2.1789    1.7101 H   0  0  0  0  0  0  0  0  0  0  0  0
    6.1205   -0.4500    3.3106 H   0  0  0  0  0  0  0  0  0  0  0  0
    3.2334    0.9318    5.0977 H   0  0  0  0  0  0  0  0  0  0  0  0
    4.5591    1.7394    4.2977 H   0  0  0  0  0  0  0  0  0  0  0  0
    3.0396    3.3222    3.2387 H   0  0  0  0  0  0  0  0  0  0  0  0
    2.4412    3.0387    6.0577 H   0  0  0  0  0  0  0  0  0  0  0  0
    1.9732    5.4020    6.0424 H   0  0  0  0  0  0  0  0  0  0  0  0
    2.0566    5.3530    4.2903 H   0  0  0  0  0  0  0  0  0  0  0  0
   -0.2742    5.1314    4.9668 H   0  0  0  0  0  0  0  0  0  0  0  0
    0.0937    3.8555    6.1028 H   0  0  0  0  0  0  0  0  0  0  0  0
    3.6653    3.9103    5.3621 H   0  0  0  0  0  0  0  0  0  0  0  0
  1  6  2  0
  1  2  1  0
  1 22  1  0
  2  3  2  0
  2 23  1  0
  3 20  1  0
  3  4  1  0
  4 17  1  0
  4  5  2  0
  5  6  1  0
  5  7  1  0
  6 24  1  0
  7 15  2  0
  7  8  1  0
  8 21  1  0
  8  9  1  0
  9 14  2  0
  9 10  1  0
 10 11  2  0
 11 12  1  0
 11 25  1  0
 12 13  2  0
 12 26  1  0
 13 14  1  0
 13 27  1  0
 14 15  1  0
 15 16  1  0
 16 17  1  0
 16 28  1  0
 16 29  1  0
 17 18  1  0
 17 30  1  6
 18 19  1  0
 18 31  1  0
 18 36  1  0
 19 20  1  0
 19 32  1  0
 19 33  1  0
 20 34  1  0
 20 35  1  0
M  CHG  1  18   1
M  END
>  <i_m_ct_stereo_status>  (167) 
1

>  <s_m_source_file>  (167) 
/var/tmp/pbs.5076255.sched01/tmpco4mv84g/486h_uxm9x.sdf

>  <i_m_source_file_index>  (167) 
27

>  <i_lp_mmshare_version>  (167) 
48012

>  <i_f3d_flags>  (167) 
0

>  <s_epik_input>  (167) 
W2NIXTFbY0hdW2NIXWMoYzJjMTMpYzRjKFtDSDJdW0NAQEhdMltOSF1bQ0gyXVtDSDJdMyljNWMoW25IXTQpbltjSF1bY0hdW2NIXTU=

>  <s_epik_cmdline>  (167) 
J2VwaWtfcHl0aG9uJywgJy1waHQnLCAnMi4wJywgJy1waCcsICc3LjAnLCAnLXRuJywgJzgnLCAnLW1hJywgJzIwMCcsICctaW1hZScsICc8aW5maWxlLm1hZT4nLCAnLW9tYWUnLCAnPG91dGZpbGUubWFlPic=

>  <r_lp_tautomer_probability>  (167) 
0.999998

>  <r_epik_Ionization_Penalty>  (167) 
0.0236174

>  <r_epik_Ionization_Penalty_Charging>  (167) 
0.0226116

>  <r_epik_Ionization_Penalty_Neutral>  (167) 
0.00100576

>  <r_epik_State_Penalty>  (167) 
0.0182538

>  <r_epik_Charging_Adjusted_Penalty>  (167) 
0.0408654

>  <i_epik_Tot_Q>  (167) 
1

>  <i_epik_Tot_abs_Q>  (167) 
1

>  <s_lp_Force_Field>  (167) 
OPLS3e

>  <r_lp_Energy>  (167) 
37.4662

>  <b_lp_Chiralities_Consistent>  (167) 
1

>  <s_lp_Variant>  (167) 
41:0-1

>  <s_i_glide_gridfile>  (167) 
pfpi4k_grid

>  <i_i_glide_lignum>  (167) 
27

>  <i_i_glide_rotatable_bonds>  (167) 
0

>  <r_i_docking_score>  (167) 
-3.90517

>  <r_i_glide_ligand_efficiency>  (167) 
-0.195258

>  <r_i_glide_ligand_efficiency_sa>  (167) 
-0.530013

>  <r_i_glide_ligand_efficiency_ln>  (167) 
-0.977335

>  <r_i_glide_gscore>  (167) 
-3.90517

>  <r_i_glide_lipo>  (167) 
-0.355629

>  <r_i_glide_hbond>  (167) 
-0.16

>  <r_i_glide_metal>  (167) 
-0

>  <r_i_glide_rewards>  (167) 
-1.62048

>  <r_i_glide_evdw>  (167) 
-18.6878

>  <r_i_glide_ecoul>  (167) 
-4.78079

>  <r_i_glide_erotb>  (167) 
0

>  <r_i_glide_esite>  (167) 
-0.117547

>  <r_i_glide_emodel>  (167) 
-32.9301

>  <r_i_glide_energy>  (167) 
-23.4686

>  <r_i_glide_einternal>  (167) 
0

>  <r_i_glide_intrahb_reward>  (167) 
-0

>  <i_i_glide_confnum>  (167) 
1

>  <i_i_glide_posenum>  (167) 
7

>  <r_i_glide_eff_state_penalty>  (167) 
0

>  <ligand_id>  (167) 
41

>  <original_smiles>  (167) 
c1cc2c3c(c1)-c1[nH]c4ncccc4c1CC3NCC2

>  <smiles>  (167) 
[H]c1nc2c(c([H])c1[H])c1c(n2[H])-c2c([H])c([H])c([H])c3c2C([H])(C1([H])[H])[N+]([H])([H])C([H])([H])C3([H])[H]

$$$$
41:0:1
     RDKit          3D

 36 40  0  0  1  0  0  0  0  0999 V2000
   -0.5329   -2.0069    5.2804 C   0  0  0  0  0  0  0  0  0  0  0  0
   -1.2147   -0.7944    5.0793 C   0  0  0  0  0  0  0  0  0  0  0  0
   -0.7356    0.1361    4.1426 C   0  0  0  0  0  0  0  0  0  0  0  0
    0.4412   -0.1786    3.4080 C   0  0  0  0  0  0  0  0  0  0  0  0
    1.1663   -1.3853    3.6024 C   0  0  0  0  0  0  0  0  0  0  0  0
    0.6423   -2.2886    4.5548 C   0  0  0  0  0  0  0  0  0  0  0  0
    2.4050   -1.5956    2.8723 C   0  0  0  0  0  0  0  0  0  0  0  0
    3.1019   -2.7881    2.7667 N   0  0  0  0  0  0  0  0  0  0  0  0
    4.2300   -2.6000    1.9901 C   0  0  0  0  0  0  0  0  0  0  0  0
    5.1555   -3.5412    1.6546 N   0  0  0  0  0  0  0  0  0  0  0  0
    6.1654   -3.0890    0.8803 C   0  0  0  0  0  0  0  0  0  0  0  0
    6.2889   -1.7536    0.4392 C   0  0  0  0  0  0  0  0  0  0  0  0
    5.3078   -0.8127    0.8073 C   0  0  0  0  0  0  0  0  0  0  0  0
    4.2245   -1.2256    1.6128 C   0  0  0  0  0  0  0  0  0  0  0  0
    3.0575   -0.6166    2.1898 C   0  0  0  0  0  0  0  0  0  0  0  0
    2.5194    0.7806    2.1457 C   0  0  0  0  0  0  0  0  0  0  0  0
    0.9694    0.7711    2.2889 C   0  0  2  0  0  0  0  0  0  0  0  0
    0.4257    2.1446    2.3668 N   0  0  0  0  0  0  0  0  0  0  0  0
   -1.0269    2.1395    2.5658 C   0  0  0  0  0  0  0  0  0  0  0  0
   -1.3441    1.5107    3.9165 C   0  0  0  0  0  0  0  0  0  0  0  0
    2.8168   -3.6571    3.1867 H   0  0  0  0  0  0  0  0  0  0  0  0
   -0.8981   -2.7192    6.0031 H   0  0  0  0  0  0  0  0  0  0  0  0
   -2.1011   -0.5649    5.6546 H   0  0  0  0  0  0  0  0  0  0  0  0
    1.1619   -3.2134    4.7496 H   0  0  0  0  0  0  0  0  0  0  0  0
    6.9179   -3.8155    0.6025 H   0  0  0  0  0  0  0  0  0  0  0  0
    7.1335   -1.4632   -0.1639 H   0  0  0  0  0  0  0  0  0  0  0  0
    5.3730    0.2145    0.4794 H   0  0  0  0  0  0  0  0  0  0  0  0
    2.9500    1.3434    2.9735 H   0  0  0  0  0  0  0  0  0  0  0  0
    2.8302    1.2843    1.2342 H   0  0  0  0  0  0  0  0  0  0  0  0
    0.5847    0.3452    1.3582 H   0  0  0  0  0  0  0  0  0  0  0  0
    0.8617    2.6232    3.1392 H   0  0  0  0  0  0  0  0  0  0  0  0
   -1.4025    3.1618    2.5341 H   0  0  0  0  0  0  0  0  0  0  0  0
   -1.5194    1.5901    1.7628 H   0  0  0  0  0  0  0  0  0  0  0  0
   -2.4256    1.4171    4.0304 H   0  0  0  0  0  0  0  0  0  0  0  0
   -1.0121    2.1647    4.7267 H   0  0  0  0  0  0  0  0  0  0  0  0
    0.6057    2.6793    1.5187 H   0  0  0  0  0  0  0  0  0  0  0  0
  1  6  2  0
  1  2  1  0
  1 22  1  0
  2  3  2  0
  2 23  1  0
  3 20  1  0
  3  4  1  0
  4 17  1  0
  4  5  2  0
  5  6  1  0
  5  7  1  0
  6 24  1  0
  7 15  2  0
  7  8  1  0
  8 21  1  0
  8  9  1  0
  9 14  2  0
  9 10  1  0
 10 11  2  0
 11 12  1  0
 11 25  1  0
 12 13  2  0
 12 26  1  0
 13 14  1  0
 13 27  1  0
 14 15  1  0
 15 16  1  0
 16 17  1  0
 16 28  1  0
 16 29  1  0
 17 18  1  0
 17 30  1  6
 18 19  1  0
 18 31  1  0
 18 36  1  0
 19 20  1  0
 19 32  1  0
 19 33  1  0
 20 34  1  0
 20 35  1  0
M  CHG  1  18   1
M  END
>  <i_m_ct_stereo_status>  (168) 
1

>  <s_m_source_file>  (168) 
/var/tmp/pbs.5076255.sched01/tmpco4mv84g/486h_uxm9x.sdf

>  <i_m_source_file_index>  (168) 
27

>  <i_lp_mmshare_version>  (168) 
48012

>  <i_f3d_flags>  (168) 
0

>  <s_epik_input>  (168) 
W2NIXTFbY0hdW2NIXWMoYzJjMTMpYzRjKFtDSDJdW0NAQEhdMltOSF1bQ0gyXVtDSDJdMyljNWMoW25IXTQpbltjSF1bY0hdW2NIXTU=

>  <s_epik_cmdline>  (168) 
J2VwaWtfcHl0aG9uJywgJy1waHQnLCAnMi4wJywgJy1waCcsICc3LjAnLCAnLXRuJywgJzgnLCAnLW1hJywgJzIwMCcsICctaW1hZScsICc8aW5maWxlLm1hZT4nLCAnLW9tYWUnLCAnPG91dGZpbGUubWFlPic=

>  <r_lp_tautomer_probability>  (168) 
0.999998

>  <r_epik_Ionization_Penalty>  (168) 
0.0236174

>  <r_epik_Ionization_Penalty_Charging>  (168) 
0.0226116

>  <r_epik_Ionization_Penalty_Neutral>  (168) 
0.00100576

>  <r_epik_State_Penalty>  (168) 
0.0182538

>  <r_epik_Charging_Adjusted_Penalty>  (168) 
0.0408654

>  <i_epik_Tot_Q>  (168) 
1

>  <i_epik_Tot_abs_Q>  (168) 
1

>  <s_lp_Force_Field>  (168) 
OPLS3e

>  <r_lp_Energy>  (168) 
37.4662

>  <b_lp_Chiralities_Consistent>  (168) 
1

>  <s_lp_Variant>  (168) 
41:0-1

>  <s_i_glide_gridfile>  (168) 
pfpi4k_grid

>  <i_i_glide_lignum>  (168) 
27

>  <i_i_glide_rotatable_bonds>  (168) 
0

>  <r_i_docking_score>  (168) 
-3.80497

>  <r_i_glide_ligand_efficiency>  (168) 
-0.190248

>  <r_i_glide_ligand_efficiency_sa>  (168) 
-0.516413

>  <r_i_glide_ligand_efficiency_ln>  (168) 
-0.952258

>  <r_i_glide_gscore>  (168) 
-3.80497

>  <r_i_glide_lipo>  (168) 
-0.324278

>  <r_i_glide_hbond>  (168) 
-0.15756

>  <r_i_glide_metal>  (168) 
-0

>  <r_i_glide_rewards>  (168) 
-1.63027

>  <r_i_glide_evdw>  (168) 
-22.0056

>  <r_i_glide_ecoul>  (168) 
-3.28348

>  <r_i_glide_erotb>  (168) 
0

>  <r_i_glide_esite>  (168) 
-0.100062

>  <r_i_glide_emodel>  (168) 
-34.526

>  <r_i_glide_energy>  (168) 
-25.289

>  <r_i_glide_einternal>  (168) 
0

>  <r_i_glide_intrahb_reward>  (168) 
-0

>  <i_i_glide_confnum>  (168) 
2

>  <i_i_glide_posenum>  (168) 
2

>  <r_i_glide_eff_state_penalty>  (168) 
0

>  <ligand_id>  (168) 
41

>  <original_smiles>  (168) 
c1cc2c3c(c1)-c1[nH]c4ncccc4c1CC3NCC2

>  <smiles>  (168) 
[H]c1nc2c(c([H])c1[H])c1c(n2[H])-c2c([H])c([H])c([H])c3c2C([H])(C1([H])[H])[N+]([H])([H])C([H])([H])C3([H])[H]

$$$$
41:0:2
     RDKit          3D

 36 40  0  0  1  0  0  0  0  0999 V2000
   -0.4101   -2.0740    5.2983 C   0  0  0  0  0  0  0  0  0  0  0  0
   -1.0384   -0.8189    5.2543 C   0  0  0  0  0  0  0  0  0  0  0  0
   -0.6568    0.1238    4.2848 C   0  0  0  0  0  0  0  0  0  0  0  0
    0.3664   -0.2197    3.3630 C   0  0  0  0  0  0  0  0  0  0  0  0
    1.0358   -1.4715    3.3962 C   0  0  0  0  0  0  0  0  0  0  0  0
    0.6138   -2.3894    4.3858 C   0  0  0  0  0  0  0  0  0  0  0  0
    2.1276   -1.7221    2.4693 C   0  0  0  0  0  0  0  0  0  0  0  0
    2.7175   -2.9453    2.2034 N   0  0  0  0  0  0  0  0  0  0  0  0
    3.7154   -2.7878    1.2607 C   0  0  0  0  0  0  0  0  0  0  0  0
    4.5124   -3.7642    0.7435 N   0  0  0  0  0  0  0  0  0  0  0  0
    5.4135   -3.3353   -0.1672 C   0  0  0  0  0  0  0  0  0  0  0  0
    5.5481   -1.9927   -0.5747 C   0  0  0  0  0  0  0  0  0  0  0  0
    4.7036   -1.0136   -0.0133 C   0  0  0  0  0  0  0  0  0  0  0  0
    3.7426   -1.4002    0.9426 C   0  0  0  0  0  0  0  0  0  0  0  0
    2.7244   -0.7513    1.7258 C   0  0  0  0  0  0  0  0  0  0  0  0
    2.2743    0.6735    1.8171 C   0  0  0  0  0  0  0  0  0  0  0  0
    0.7718    0.7437    2.2083 C   0  0  2  0  0  0  0  0  0  0  0  0
    0.3323    2.1416    2.4209 N   0  0  0  0  0  0  0  0  0  0  0  0
   -1.0686    2.2164    2.8573 C   0  0  0  0  0  0  0  0  0  0  0  0
   -1.2048    1.5386    4.2137 C   0  0  0  0  0  0  0  0  0  0  0  0
    2.4517   -3.8148    2.6349 H   0  0  0  0  0  0  0  0  0  0  0  0
   -0.6994   -2.7969    6.0453 H   0  0  0  0  0  0  0  0  0  0  0  0
   -1.8021   -0.5637    5.9747 H   0  0  0  0  0  0  0  0  0  0  0  0
    1.0995   -3.3511    4.4592 H   0  0  0  0  0  0  0  0  0  0  0  0
    6.0619   -4.0915   -0.5930 H   0  0  0  0  0  0  0  0  0  0  0  0
    6.2814   -1.7252   -1.3173 H   0  0  0  0  0  0  0  0  0  0  0  0
    4.7737    0.0221   -0.3066 H   0  0  0  0  0  0  0  0  0  0  0  0
    2.8666    1.1762    2.5806 H   0  0  0  0  0  0  0  0  0  0  0  0
    2.4627    1.1895    0.8801 H   0  0  0  0  0  0  0  0  0  0  0  0
    0.2169    0.3903    1.3384 H   0  0  0  0  0  0  0  0  0  0  0  0
    0.9174    2.5611    3.1304 H   0  0  0  0  0  0  0  0  0  0  0  0
   -1.3778    3.2585    2.9234 H   0  0  0  0  0  0  0  0  0  0  0  0
   -1.7186    1.7379    2.1206 H   0  0  0  0  0  0  0  0  0  0  0  0
   -2.2575    1.5014    4.4841 H   0  0  0  0  0  0  0  0  0  0  0  0
   -0.7111    2.1363    4.9822 H   0  0  0  0  0  0  0  0  0  0  0  0
    0.4106    2.7021    1.5699 H   0  0  0  0  0  0  0  0  0  0  0  0
  1  6  2  0
  1  2  1  0
  1 22  1  0
  2  3  2  0
  2 23  1  0
  3 20  1  0
  3  4  1  0
  4 17  1  0
  4  5  2  0
  5  6  1  0
  5  7  1  0
  6 24  1  0
  7 15  2  0
  7  8  1  0
  8 21  1  0
  8  9  1  0
  9 14  2  0
  9 10  1  0
 10 11  2  0
 11 12  1  0
 11 25  1  0
 12 13  2  0
 12 26  1  0
 13 14  1  0
 13 27  1  0
 14 15  1  0
 15 16  1  0
 16 17  1  0
 16 28  1  0
 16 29  1  0
 17 18  1  0
 17 30  1  6
 18 19  1  0
 18 31  1  0
 18 36  1  0
 19 20  1  0
 19 32  1  0
 19 33  1  0
 20 34  1  0
 20 35  1  0
M  CHG  1  18   1
M  END
>  <i_m_ct_stereo_status>  (169) 
1

>  <s_m_source_file>  (169) 
/var/tmp/pbs.5076255.sched01/tmpco4mv84g/486h_uxm9x.sdf

>  <i_m_source_file_index>  (169) 
27

>  <i_lp_mmshare_version>  (169) 
48012

>  <i_f3d_flags>  (169) 
0

>  <s_epik_input>  (169) 
W2NIXTFbY0hdW2NIXWMoYzJjMTMpYzRjKFtDSDJdW0NAQEhdMltOSF1bQ0gyXVtDSDJdMyljNWMoW25IXTQpbltjSF1bY0hdW2NIXTU=

>  <s_epik_cmdline>  (169) 
J2VwaWtfcHl0aG9uJywgJy1waHQnLCAnMi4wJywgJy1waCcsICc3LjAnLCAnLXRuJywgJzgnLCAnLW1hJywgJzIwMCcsICctaW1hZScsICc8aW5maWxlLm1hZT4nLCAnLW9tYWUnLCAnPG91dGZpbGUubWFlPic=

>  <r_lp_tautomer_probability>  (169) 
0.999998

>  <r_epik_Ionization_Penalty>  (169) 
0.0236174

>  <r_epik_Ionization_Penalty_Charging>  (169) 
0.0226116

>  <r_epik_Ionization_Penalty_Neutral>  (169) 
0.00100576

>  <r_epik_State_Penalty>  (169) 
0.0182538

>  <r_epik_Charging_Adjusted_Penalty>  (169) 
0.0408654

>  <i_epik_Tot_Q>  (169) 
1

>  <i_epik_Tot_abs_Q>  (169) 
1

>  <s_lp_Force_Field>  (169) 
OPLS3e

>  <r_lp_Energy>  (169) 
37.4662

>  <b_lp_Chiralities_Consistent>  (169) 
1

>  <s_lp_Variant>  (169) 
41:0-1

>  <s_i_glide_gridfile>  (169) 
pfpi4k_grid

>  <i_i_glide_lignum>  (169) 
27

>  <i_i_glide_rotatable_bonds>  (169) 
0

>  <r_i_docking_score>  (169) 
-3.58239

>  <r_i_glide_ligand_efficiency>  (169) 
-0.17912

>  <r_i_glide_ligand_efficiency_sa>  (169) 
-0.486205

>  <r_i_glide_ligand_efficiency_ln>  (169) 
-0.896555

>  <r_i_glide_gscore>  (169) 
-3.58239

>  <r_i_glide_lipo>  (169) 
-0.0972937

>  <r_i_glide_hbond>  (169) 
-0.191634

>  <r_i_glide_metal>  (169) 
-0

>  <r_i_glide_rewards>  (169) 
-1.62048

>  <r_i_glide_evdw>  (169) 
-22.3136

>  <r_i_glide_ecoul>  (169) 
-2.98625

>  <r_i_glide_erotb>  (169) 
0

>  <r_i_glide_esite>  (169) 
-0.109366

>  <r_i_glide_emodel>  (169) 
-33.9925

>  <r_i_glide_energy>  (169) 
-25.2998

>  <r_i_glide_einternal>  (169) 
0

>  <r_i_glide_intrahb_reward>  (169) 
-0

>  <i_i_glide_confnum>  (169) 
2

>  <i_i_glide_posenum>  (169) 
40

>  <r_i_glide_eff_state_penalty>  (169) 
0

>  <ligand_id>  (169) 
41

>  <original_smiles>  (169) 
c1cc2c3c(c1)-c1[nH]c4ncccc4c1CC3NCC2

>  <smiles>  (169) 
[H]c1nc2c(c([H])c1[H])c1c(n2[H])-c2c([H])c([H])c([H])c3c2C([H])(C1([H])[H])[N+]([H])([H])C([H])([H])C3([H])[H]

$$$$
41:1:0
     RDKit          3D

 35 39  0  0  1  0  0  0  0  0999 V2000
   -8.2015  -10.8476   -9.9807 C   0  0  0  0  0  0  0  0  0  0  0  0
   -7.4182  -11.9433   -9.5665 C   0  0  0  0  0  0  0  0  0  0  0  0
   -6.6333  -11.8452   -8.4056 C   0  0  0  0  0  0  0  0  0  0  0  0
   -6.6478  -10.6249   -7.6846 C   0  0  0  0  0  0  0  0  0  0  0  0
   -7.4124   -9.4963   -8.0789 C   0  0  0  0  0  0  0  0  0  0  0  0
   -8.1912   -9.6448   -9.2469 C   0  0  0  0  0  0  0  0  0  0  0  0
   -7.3150   -8.2713   -7.3031 C   0  0  0  0  0  0  0  0  0  0  0  0
   -8.1551   -7.1740   -7.4019 N   0  0  0  0  0  0  0  0  0  0  0  0
   -7.7655   -6.2116   -6.4907 C   0  0  0  0  0  0  0  0  0  0  0  0
   -8.3605   -5.0084   -6.2772 N   0  0  0  0  0  0  0  0  0  0  0  0
   -7.7705   -4.2591   -5.3213 C   0  0  0  0  0  0  0  0  0  0  0  0
   -6.6228   -4.6445   -4.5939 C   0  0  0  0  0  0  0  0  0  0  0  0
   -6.0486   -5.9033   -4.8412 C   0  0  0  0  0  0  0  0  0  0  0  0
   -6.6243   -6.7409   -5.8198 C   0  0  0  0  0  0  0  0  0  0  0  0
   -6.3680   -8.0456   -6.3545 C   0  0  0  0  0  0  0  0  0  0  0  0
   -5.3259   -9.0744   -6.0459 C   0  0  0  0  0  0  0  0  0  0  0  0
   -5.8624  -10.4989   -6.3549 C   0  0  2  0  0  0  0  0  0  0  0  0
   -4.7912  -11.4724   -6.1686 N   0  0  0  0  0  0  0  0  0  0  0  0
   -5.3136  -12.8049   -6.4088 C   0  0  0  0  0  0  0  0  0  0  0  0
   -5.6969  -12.9207   -7.8850 C   0  0  0  0  0  0  0  0  0  0  0  0
   -8.9542   -7.1243   -8.0097 H   0  0  0  0  0  0  0  0  0  0  0  0
   -8.7966  -10.9196  -10.8777 H   0  0  0  0  0  0  0  0  0  0  0  0
   -7.4087  -12.8519  -10.1560 H   0  0  0  0  0  0  0  0  0  0  0  0
   -8.7777   -8.8107   -9.5988 H   0  0  0  0  0  0  0  0  0  0  0  0
   -8.2117   -3.2863   -5.1420 H   0  0  0  0  0  0  0  0  0  0  0  0
   -6.1936   -3.9728   -3.8624 H   0  0  0  0  0  0  0  0  0  0  0  0
   -5.1794   -6.2343   -4.2943 H   0  0  0  0  0  0  0  0  0  0  0  0
   -4.4649   -8.8818   -6.6809 H   0  0  0  0  0  0  0  0  0  0  0  0
   -4.9841   -8.9899   -5.0146 H   0  0  0  0  0  0  0  0  0  0  0  0
   -6.6184  -10.6955   -5.5944 H   0  0  0  0  0  0  0  0  0  0  0  0
   -4.4692  -11.4292   -5.2077 H   0  0  0  0  0  0  0  0  0  0  0  0
   -4.5440  -13.5418   -6.1740 H   0  0  0  0  0  0  0  0  0  0  0  0
   -6.1672  -13.0120   -5.7614 H   0  0  0  0  0  0  0  0  0  0  0  0
   -6.1849  -13.8809   -8.0464 H   0  0  0  0  0  0  0  0  0  0  0  0
   -4.7983  -12.9163   -8.5053 H   0  0  0  0  0  0  0  0  0  0  0  0
  1  6  2  0
  1  2  1  0
  1 22  1  0
  2  3  2  0
  2 23  1  0
  3 20  1  0
  3  4  1  0
  4 17  1  0
  4  5  2  0
  5  6  1  0
  5  7  1  0
  6 24  1  0
  7 15  2  0
  7  8  1  0
  8 21  1  0
  8  9  1  0
  9 14  2  0
  9 10  1  0
 10 11  2  0
 11 12  1  0
 11 25  1  0
 12 13  2  0
 12 26  1  0
 13 14  1  0
 13 27  1  0
 14 15  1  0
 15 16  1  0
 16 17  1  0
 16 28  1  0
 16 29  1  0
 17 18  1  0
 17 30  1  1
 18 19  1  0
 18 31  1  0
 19 20  1  0
 19 32  1  0
 19 33  1  0
 20 34  1  0
 20 35  1  0
M  END
>  <i_m_ct_stereo_status>  (170) 
1

>  <s_m_source_file>  (170) 
/var/tmp/pbs.5076255.sched01/tmpco4mv84g/486h_uxm9x.sdf

>  <i_m_source_file_index>  (170) 
28

>  <i_lp_mmshare_version>  (170) 
48012

>  <i_f3d_flags>  (170) 
0

>  <s_epik_input>  (170) 
W2NIXTFbY0hdW2NIXWMoYzJjMTMpYzRjKFtDSDJdW0NAQEhdMltOSF1bQ0gyXVtDSDJdMyljNWMoW25IXTQpbltjSF1bY0hdW2NIXTU=

>  <s_epik_cmdline>  (170) 
J2VwaWtfcHl0aG9uJywgJy1waHQnLCAnMi4wJywgJy1waCcsICc3LjAnLCAnLXRuJywgJzgnLCAnLW1hJywgJzIwMCcsICctaW1hZScsICc8aW5maWxlLm1hZT4nLCAnLW9tYWUnLCAnPG91dGZpbGUubWFlPic=

>  <r_lp_tautomer_probability>  (170) 
0.999998

>  <r_epik_Ionization_Penalty>  (170) 
1.95065

>  <r_epik_Ionization_Penalty_Charging>  (170) 
0

>  <r_epik_Ionization_Penalty_Neutral>  (170) 
1.95065

>  <r_epik_State_Penalty>  (170) 
2.07093

>  <r_epik_Charging_Adjusted_Penalty>  (170) 
2.07093

>  <i_epik_Tot_Q>  (170) 
0

>  <i_epik_Tot_abs_Q>  (170) 
0

>  <s_lp_Force_Field>  (170) 
OPLS3e

>  <r_lp_Energy>  (170) 
35.9683

>  <b_lp_Chiralities_Consistent>  (170) 
1

>  <s_lp_Variant>  (170) 
41:0-2

>  <s_i_glide_gridfile>  (170) 
pfpi4k_grid

>  <i_i_glide_lignum>  (170) 
28

>  <i_i_glide_rotatable_bonds>  (170) 
0

>  <r_i_docking_score>  (170) 
-6.04746

>  <r_i_glide_ligand_efficiency>  (170) 
-0.302373

>  <r_i_glide_ligand_efficiency_sa>  (170) 
-0.820767

>  <r_i_glide_ligand_efficiency_ln>  (170) 
-1.51348

>  <r_i_glide_gscore>  (170) 
-6.04746

>  <r_i_glide_lipo>  (170) 
-2.39505

>  <r_i_glide_hbond>  (170) 
0

>  <r_i_glide_metal>  (170) 
-0

>  <r_i_glide_rewards>  (170) 
-1.96366

>  <r_i_glide_evdw>  (170) 
-30.676

>  <r_i_glide_ecoul>  (170) 
-1.03303

>  <r_i_glide_erotb>  (170) 
0

>  <r_i_glide_esite>  (170) 
0

>  <r_i_glide_emodel>  (170) 
-43.0644

>  <r_i_glide_energy>  (170) 
-31.709

>  <r_i_glide_einternal>  (170) 
0

>  <r_i_glide_intrahb_reward>  (170) 
-0

>  <i_i_glide_confnum>  (170) 
1

>  <i_i_glide_posenum>  (170) 
19

>  <r_i_glide_eff_state_penalty>  (170) 
0

>  <ligand_id>  (170) 
41

>  <original_smiles>  (170) 
c1cc2c3c(c1)-c1[nH]c4ncccc4c1CC3NCC2

>  <smiles>  (170) 
[H]c1nc2c(c([H])c1[H])c1c(n2[H])-c2c([H])c([H])c([H])c3c2C([H])(N([H])C([H])([H])C3([H])[H])C1([H])[H]

$$$$
41:1:1
     RDKit          3D

 35 39  0  0  1  0  0  0  0  0999 V2000
    5.4620   -2.6686   -1.5139 C   0  0  0  0  0  0  0  0  0  0  0  0
    6.7841   -2.8571   -1.0630 C   0  0  0  0  0  0  0  0  0  0  0  0
    7.0618   -3.8370   -0.0946 C   0  0  0  0  0  0  0  0  0  0  0  0
    5.9867   -4.6168    0.4020 C   0  0  0  0  0  0  0  0  0  0  0  0
    4.6427   -4.4509   -0.0162 C   0  0  0  0  0  0  0  0  0  0  0  0
    4.4124   -3.4544   -0.9919 C   0  0  0  0  0  0  0  0  0  0  0  0
    3.6033   -5.2584    0.6045 C   0  0  0  0  0  0  0  0  0  0  0  0
    2.2999   -5.3939    0.1611 N   0  0  0  0  0  0  0  0  0  0  0  0
    1.6094   -6.2507    0.9959 C   0  0  0  0  0  0  0  0  0  0  0  0
    0.2982   -6.6195    0.8838 N   0  0  0  0  0  0  0  0  0  0  0  0
   -0.1239   -7.4769    1.8417 C   0  0  0  0  0  0  0  0  0  0  0  0
    0.6820   -7.9424    2.9037 C   0  0  0  0  0  0  0  0  0  0  0  0
    2.0249   -7.5233    2.9858 C   0  0  0  0  0  0  0  0  0  0  0  0
    2.5342   -6.6464    2.0058 C   0  0  0  0  0  0  0  0  0  0  0  0
    3.7884   -6.0022    1.7270 C   0  0  0  0  0  0  0  0  0  0  0  0
    5.1150   -6.0314    2.4183 C   0  0  0  0  0  0  0  0  0  0  0  0
    6.2630   -5.7701    1.4009 C   0  0  2  0  0  0  0  0  0  0  0  0
    7.5319   -5.6843    2.1147 N   0  0  0  0  0  0  0  0  0  0  0  0
    8.6048   -5.4815    1.1592 C   0  0  0  0  0  0  0  0  0  0  0  0
    8.4292   -4.1092    0.5069 C   0  0  0  0  0  0  0  0  0  0  0  0
    1.9751   -4.9730   -0.6963 H   0  0  0  0  0  0  0  0  0  0  0  0
    5.2441   -1.9130   -2.2559 H   0  0  0  0  0  0  0  0  0  0  0  0
    7.5885   -2.2528   -1.4562 H   0  0  0  0  0  0  0  0  0  0  0  0
    3.4048   -3.2755   -1.3366 H   0  0  0  0  0  0  0  0  0  0  0  0
   -1.1489   -7.8108    1.7678 H   0  0  0  0  0  0  0  0  0  0  0  0
    0.2792   -8.6264    3.6419 H   0  0  0  0  0  0  0  0  0  0  0  0
    2.6675   -7.8707    3.7846 H   0  0  0  0  0  0  0  0  0  0  0  0
    5.1295   -5.2452    3.1718 H   0  0  0  0  0  0  0  0  0  0  0  0
    5.2571   -6.9745    2.9447 H   0  0  0  0  0  0  0  0  0  0  0  0
    6.3178   -6.6647    0.7764 H   0  0  0  0  0  0  0  0  0  0  0  0
    7.7010   -6.5617    2.5903 H   0  0  0  0  0  0  0  0  0  0  0  0
    9.5581   -5.5156    1.6871 H   0  0  0  0  0  0  0  0  0  0  0  0
    8.6198   -6.2782    0.4144 H   0  0  0  0  0  0  0  0  0  0  0  0
    9.1605   -3.9946   -0.2913 H   0  0  0  0  0  0  0  0  0  0  0  0
    8.6372   -3.3272    1.2365 H   0  0  0  0  0  0  0  0  0  0  0  0
  1  6  2  0
  1  2  1  0
  1 22  1  0
  2  3  2  0
  2 23  1  0
  3 20  1  0
  3  4  1  0
  4 17  1  0
  4  5  2  0
  5  6  1  0
  5  7  1  0
  6 24  1  0
  7 15  2  0
  7  8  1  0
  8 21  1  0
  8  9  1  0
  9 14  2  0
  9 10  1  0
 10 11  2  0
 11 12  1  0
 11 25  1  0
 12 13  2  0
 12 26  1  0
 13 14  1  0
 13 27  1  0
 14 15  1  0
 15 16  1  0
 16 17  1  0
 16 28  1  0
 16 29  1  0
 17 18  1  0
 17 30  1  6
 18 19  1  0
 18 31  1  0
 19 20  1  0
 19 32  1  0
 19 33  1  0
 20 34  1  0
 20 35  1  0
M  END
>  <i_m_ct_stereo_status>  (171) 
1

>  <s_m_source_file>  (171) 
/var/tmp/pbs.5076255.sched01/tmpco4mv84g/486h_uxm9x.sdf

>  <i_m_source_file_index>  (171) 
28

>  <i_lp_mmshare_version>  (171) 
48012

>  <i_f3d_flags>  (171) 
0

>  <s_epik_input>  (171) 
W2NIXTFbY0hdW2NIXWMoYzJjMTMpYzRjKFtDSDJdW0NAQEhdMltOSF1bQ0gyXVtDSDJdMyljNWMoW25IXTQpbltjSF1bY0hdW2NIXTU=

>  <s_epik_cmdline>  (171) 
J2VwaWtfcHl0aG9uJywgJy1waHQnLCAnMi4wJywgJy1waCcsICc3LjAnLCAnLXRuJywgJzgnLCAnLW1hJywgJzIwMCcsICctaW1hZScsICc8aW5maWxlLm1hZT4nLCAnLW9tYWUnLCAnPG91dGZpbGUubWFlPic=

>  <r_lp_tautomer_probability>  (171) 
0.999998

>  <r_epik_Ionization_Penalty>  (171) 
1.95065

>  <r_epik_Ionization_Penalty_Charging>  (171) 
0

>  <r_epik_Ionization_Penalty_Neutral>  (171) 
1.95065

>  <r_epik_State_Penalty>  (171) 
2.07093

>  <r_epik_Charging_Adjusted_Penalty>  (171) 
2.07093

>  <i_epik_Tot_Q>  (171) 
0

>  <i_epik_Tot_abs_Q>  (171) 
0

>  <s_lp_Force_Field>  (171) 
OPLS3e

>  <r_lp_Energy>  (171) 
35.9683

>  <b_lp_Chiralities_Consistent>  (171) 
1

>  <s_lp_Variant>  (171) 
41:0-2

>  <s_i_glide_gridfile>  (171) 
pfpi4k_grid

>  <i_i_glide_lignum>  (171) 
28

>  <i_i_glide_rotatable_bonds>  (171) 
0

>  <r_i_docking_score>  (171) 
-4.04751

>  <r_i_glide_ligand_efficiency>  (171) 
-0.202375

>  <r_i_glide_ligand_efficiency_sa>  (171) 
-0.549331

>  <r_i_glide_ligand_efficiency_ln>  (171) 
-1.01296

>  <r_i_glide_gscore>  (171) 
-4.04751

>  <r_i_glide_lipo>  (171) 
-0.460071

>  <r_i_glide_hbond>  (171) 
-0.163095

>  <r_i_glide_metal>  (171) 
-0

>  <r_i_glide_rewards>  (171) 
-1.62736

>  <r_i_glide_evdw>  (171) 
-24.5415

>  <r_i_glide_ecoul>  (171) 
-2.93963

>  <r_i_glide_erotb>  (171) 
0

>  <r_i_glide_esite>  (171) 
-0.128965

>  <r_i_glide_emodel>  (171) 
-35.0426

>  <r_i_glide_energy>  (171) 
-27.4811

>  <r_i_glide_einternal>  (171) 
0

>  <r_i_glide_intrahb_reward>  (171) 
-0

>  <i_i_glide_confnum>  (171) 
1

>  <i_i_glide_posenum>  (171) 
4

>  <r_i_glide_eff_state_penalty>  (171) 
0

>  <ligand_id>  (171) 
41

>  <original_smiles>  (171) 
c1cc2c3c(c1)-c1[nH]c4ncccc4c1CC3NCC2

>  <smiles>  (171) 
[H]c1nc2c(c([H])c1[H])c1c(n2[H])-c2c([H])c([H])c([H])c3c2C([H])(N([H])C([H])([H])C3([H])[H])C1([H])[H]

$$$$
41:1:2
     RDKit          3D

 35 39  0  0  1  0  0  0  0  0999 V2000
    3.8131   -2.1157   -2.2503 C   0  0  0  0  0  0  0  0  0  0  0  0
    4.6579   -1.2261   -1.5562 C   0  0  0  0  0  0  0  0  0  0  0  0
    4.8692   -1.3984   -0.1763 C   0  0  0  0  0  0  0  0  0  0  0  0
    4.2065   -2.4619    0.4820 C   0  0  0  0  0  0  0  0  0  0  0  0
    3.3390   -3.3674   -0.1747 C   0  0  0  0  0  0  0  0  0  0  0  0
    3.1642   -3.1629   -1.5630 C   0  0  0  0  0  0  0  0  0  0  0  0
    2.6651   -4.3902    0.6054 C   0  0  0  0  0  0  0  0  0  0  0  0
    1.9853   -5.4780    0.0971 N   0  0  0  0  0  0  0  0  0  0  0  0
    1.4860   -6.2389    1.1392 C   0  0  0  0  0  0  0  0  0  0  0  0
    0.7379   -7.3716    1.0407 N   0  0  0  0  0  0  0  0  0  0  0  0
    0.3695   -7.9229    2.2163 C   0  0  0  0  0  0  0  0  0  0  0  0
    0.6681   -7.3629    3.4776 C   0  0  0  0  0  0  0  0  0  0  0  0
    1.4233   -6.1711    3.5377 C   0  0  0  0  0  0  0  0  0  0  0  0
    1.8624   -5.5702    2.3395 C   0  0  0  0  0  0  0  0  0  0  0  0
    2.6148   -4.4034    1.9637 C   0  0  0  0  0  0  0  0  0  0  0  0
    3.2551   -3.3224    2.7657 C   0  0  0  0  0  0  0  0  0  0  0  0
    4.4650   -2.7248    1.9910 C   0  0  2  0  0  0  0  0  0  0  0  0
    5.0002   -1.5955    2.7423 N   0  0  0  0  0  0  0  0  0  0  0  0
    6.1489   -1.0701    2.0319 C   0  0  0  0  0  0  0  0  0  0  0  0
    5.6831   -0.4761    0.7067 C   0  0  0  0  0  0  0  0  0  0  0  0
    1.9731   -5.6932   -0.8939 H   0  0  0  0  0  0  0  0  0  0  0  0
    3.6435   -1.9843   -3.3089 H   0  0  0  0  0  0  0  0  0  0  0  0
    5.1203   -0.4024   -2.0791 H   0  0  0  0  0  0  0  0  0  0  0  0
    2.5005   -3.8145   -2.1137 H   0  0  0  0  0  0  0  0  0  0  0  0
   -0.1912   -8.8463    2.1529 H   0  0  0  0  0  0  0  0  0  0  0  0
    0.3348   -7.8535    4.3847 H   0  0  0  0  0  0  0  0  0  0  0  0
    1.6679   -5.7189    4.4888 H   0  0  0  0  0  0  0  0  0  0  0  0
    2.5228   -2.5324    2.9324 H   0  0  0  0  0  0  0  0  0  0  0  0
    3.5517   -3.6907    3.7471 H   0  0  0  0  0  0  0  0  0  0  0  0
    5.2339   -3.5022    1.9971 H   0  0  0  0  0  0  0  0  0  0  0  0
    5.3077   -1.9285    3.6478 H   0  0  0  0  0  0  0  0  0  0  0  0
    6.6136   -0.2924    2.6396 H   0  0  0  0  0  0  0  0  0  0  0  0
    6.8929   -1.8430    1.8564 H   0  0  0  0  0  0  0  0  0  0  0  0
    6.5596   -0.1791    0.1381 H   0  0  0  0  0  0  0  0  0  0  0  0
    5.1000    0.4271    0.8868 H   0  0  0  0  0  0  0  0  0  0  0  0
  1  6  2  0
  1  2  1  0
  1 22  1  0
  2  3  2  0
  2 23  1  0
  3 20  1  0
  3  4  1  0
  4 17  1  0
  4  5  2  0
  5  6  1  0
  5  7  1  0
  6 24  1  0
  7 15  2  0
  7  8  1  0
  8 21  1  0
  8  9  1  0
  9 14  2  0
  9 10  1  0
 10 11  2  0
 11 12  1  0
 11 25  1  0
 12 13  2  0
 12 26  1  0
 13 14  1  0
 13 27  1  0
 14 15  1  0
 15 16  1  0
 16 17  1  0
 16 28  1  0
 16 29  1  0
 17 18  1  0
 17 30  1  6
 18 19  1  0
 18 31  1  0
 19 20  1  0
 19 32  1  0
 19 33  1  0
 20 34  1  0
 20 35  1  0
M  END
>  <i_m_ct_stereo_status>  (172) 
1

>  <s_m_source_file>  (172) 
/var/tmp/pbs.5076255.sched01/tmpco4mv84g/486h_uxm9x.sdf

>  <i_m_source_file_index>  (172) 
28

>  <i_lp_mmshare_version>  (172) 
48012

>  <i_f3d_flags>  (172) 
0

>  <s_epik_input>  (172) 
W2NIXTFbY0hdW2NIXWMoYzJjMTMpYzRjKFtDSDJdW0NAQEhdMltOSF1bQ0gyXVtDSDJdMyljNWMoW25IXTQpbltjSF1bY0hdW2NIXTU=

>  <s_epik_cmdline>  (172) 
J2VwaWtfcHl0aG9uJywgJy1waHQnLCAnMi4wJywgJy1waCcsICc3LjAnLCAnLXRuJywgJzgnLCAnLW1hJywgJzIwMCcsICctaW1hZScsICc8aW5maWxlLm1hZT4nLCAnLW9tYWUnLCAnPG91dGZpbGUubWFlPic=

>  <r_lp_tautomer_probability>  (172) 
0.999998

>  <r_epik_Ionization_Penalty>  (172) 
1.95065

>  <r_epik_Ionization_Penalty_Charging>  (172) 
0

>  <r_epik_Ionization_Penalty_Neutral>  (172) 
1.95065

>  <r_epik_State_Penalty>  (172) 
2.07093

>  <r_epik_Charging_Adjusted_Penalty>  (172) 
2.07093

>  <i_epik_Tot_Q>  (172) 
0

>  <i_epik_Tot_abs_Q>  (172) 
0

>  <s_lp_Force_Field>  (172) 
OPLS3e

>  <r_lp_Energy>  (172) 
35.9683

>  <b_lp_Chiralities_Consistent>  (172) 
1

>  <s_lp_Variant>  (172) 
41:0-2

>  <s_i_glide_gridfile>  (172) 
pfpi4k_grid

>  <i_i_glide_lignum>  (172) 
28

>  <i_i_glide_rotatable_bonds>  (172) 
0

>  <r_i_docking_score>  (172) 
-3.71754

>  <r_i_glide_ligand_efficiency>  (172) 
-0.185877

>  <r_i_glide_ligand_efficiency_sa>  (172) 
-0.504547

>  <r_i_glide_ligand_efficiency_ln>  (172) 
-0.930377

>  <r_i_glide_gscore>  (172) 
-3.71754

>  <r_i_glide_lipo>  (172) 
-0.3392

>  <r_i_glide_hbond>  (172) 
-0.32

>  <r_i_glide_metal>  (172) 
-0

>  <r_i_glide_rewards>  (172) 
-1.62736

>  <r_i_glide_evdw>  (172) 
-21.1628

>  <r_i_glide_ecoul>  (172) 
-1.46614

>  <r_i_glide_erotb>  (172) 
0

>  <r_i_glide_esite>  (172) 
-0.152919

>  <r_i_glide_emodel>  (172) 
-29.5324

>  <r_i_glide_energy>  (172) 
-22.6289

>  <r_i_glide_einternal>  (172) 
0

>  <r_i_glide_intrahb_reward>  (172) 
-0

>  <i_i_glide_confnum>  (172) 
1

>  <i_i_glide_posenum>  (172) 
6

>  <r_i_glide_eff_state_penalty>  (172) 
0

>  <ligand_id>  (172) 
41

>  <original_smiles>  (172) 
c1cc2c3c(c1)-c1[nH]c4ncccc4c1CC3NCC2

>  <smiles>  (172) 
[H]c1nc2c(c([H])c1[H])c1c(n2[H])-c2c([H])c([H])c([H])c3c2C([H])(N([H])C([H])([H])C3([H])[H])C1([H])[H]

$$$$
42:0:0
     RDKit          3D

 46 47  0  0  1  0  0  0  0  0999 V2000
    2.5766    2.0353    2.7551 C   0  0  0  0  0  0  0  0  0  0  0  0
    2.3318    0.8027    3.2562 C   0  0  0  0  0  0  0  0  0  0  0  0
    1.2111   -0.1624    2.8063 C   0  0  1  0  0  0  0  0  0  0  0  0
    0.5700    0.4184    1.6654 O   0  0  0  0  0  0  0  0  0  0  0  0
    1.7509   -1.5252    2.2903 C   0  0  0  0  0  0  0  0  0  0  0  0
    2.9561   -1.4117    1.3836 C   0  0  0  0  0  0  0  0  0  0  0  0
    3.3740   -2.7634    1.1777 O   0  0  0  0  0  0  0  0  0  0  0  0
    3.1392   -3.4279    0.0318 C   0  0  0  0  0  0  0  0  0  0  0  0
    2.7275   -4.5888    0.0614 O   0  0  0  0  0  0  0  0  0  0  0  0
    3.4142   -2.6623   -1.2262 C   0  0  0  0  0  0  0  0  0  0  0  0
    4.2627   -1.5270   -1.2355 C   0  0  0  0  0  0  0  0  0  0  0  0
    4.4274   -0.7532   -2.3894 C   0  0  0  0  0  0  0  0  0  0  0  0
    3.8052   -1.1287   -3.5899 C   0  0  0  0  0  0  0  0  0  0  0  0
    3.0091   -2.2902   -3.6121 C   0  0  0  0  0  0  0  0  0  0  0  0
    2.7969   -3.0480   -2.4394 C   0  0  0  0  0  0  0  0  0  0  0  0
    0.1620   -0.3351    3.8974 C   0  0  0  0  0  0  0  0  0  0  0  0
   -0.9923    0.3317    3.8477 N   0  0  0  0  0  0  0  0  0  0  0  0
   -1.6647   -0.0905    4.9739 N   0  0  0  0  0  0  0  0  0  0  0  0
   -0.9265   -0.9024    5.7044 N   0  0  0  0  0  0  0  0  0  0  0  0
    0.2205   -1.1459    4.9950 N   0  0  0  0  0  0  0  0  0  0  0  0
    1.2408   -2.0864    5.5430 C   0  0  0  0  0  0  0  0  0  0  0  0
    0.7326   -3.5351    5.7684 C   0  0  0  0  0  0  0  0  0  0  0  0
   -0.4819   -3.6909    6.7371 C   0  0  0  0  0  0  0  0  0  0  0  0
   -0.9670   -5.1202    6.9747 C   0  0  0  0  0  0  0  0  0  0  0  0
    1.9514    2.4755    1.9922 H   0  0  0  0  0  0  0  0  0  0  0  0
    3.4050    2.6297    3.0943 H   0  0  0  0  0  0  0  0  0  0  0  0
    2.9873    0.4397    4.0404 H   0  0  0  0  0  0  0  0  0  0  0  0
    0.8971   -0.0151    0.8798 H   0  0  0  0  0  0  0  0  0  0  0  0
    2.1742   -2.1529    3.0166 H   0  0  0  0  0  0  0  0  0  0  0  0
    0.9519   -2.0672    1.7878 H   0  0  0  0  0  0  0  0  0  0  0  0
    2.6370   -0.8763    0.4773 H   0  0  0  0  0  0  0  0  0  0  0  0
    3.7905   -0.8545    1.8447 H   0  0  0  0  0  0  0  0  0  0  0  0
    4.7756   -1.1801   -0.3505 H   0  0  0  0  0  0  0  0  0  0  0  0
    5.0243    0.1402   -2.3197 H   0  0  0  0  0  0  0  0  0  0  0  0
    3.9579   -0.5219   -4.4731 H   0  0  0  0  0  0  0  0  0  0  0  0
    2.5374   -2.5917   -4.5350 H   0  0  0  0  0  0  0  0  0  0  0  0
    2.1391   -3.9118   -2.4755 H   0  0  0  0  0  0  0  0  0  0  0  0
    2.1164   -2.1854    4.9439 H   0  0  0  0  0  0  0  0  0  0  0  0
    1.6154   -1.6244    6.4589 H   0  0  0  0  0  0  0  0  0  0  0  0
    0.4899   -4.0447    4.8251 H   0  0  0  0  0  0  0  0  0  0  0  0
    1.5648   -4.1041    6.1875 H   0  0  0  0  0  0  0  0  0  0  0  0
   -0.2374   -3.1819    7.6777 H   0  0  0  0  0  0  0  0  0  0  0  0
   -1.3665   -3.2470    6.3010 H   0  0  0  0  0  0  0  0  0  0  0  0
   -1.8950   -5.0616    7.5432 H   0  0  0  0  0  0  0  0  0  0  0  0
   -0.2226   -5.7055    7.5173 H   0  0  0  0  0  0  0  0  0  0  0  0
   -1.1897   -5.5887    6.0141 H   0  0  0  0  0  0  0  0  0  0  0  0
  1  2  2  0
  1 25  1  0
  1 26  1  0
  2  3  1  0
  2 27  1  0
  3  4  1  6
  3  5  1  0
  3 16  1  0
  4 28  1  0
  5  6  1  0
  5 29  1  0
  5 30  1  0
  6  7  1  0
  6 31  1  0
  6 32  1  0
  7  8  1  0
  8  9  2  0
  8 10  1  0
 10 15  1  0
 10 11  2  0
 11 12  1  0
 11 33  1  0
 12 13  2  0
 12 34  1  0
 13 14  1  0
 13 35  1  0
 14 15  2  0
 14 36  1  0
 15 37  1  0
 16 20  1  0
 16 17  2  0
 17 18  1  0
 18 19  2  0
 19 20  1  0
 20 21  1  0
 21 22  1  0
 21 38  1  0
 21 39  1  0
 22 23  1  0
 22 40  1  0
 22 41  1  0
 23 24  1  0
 23 42  1  0
 23 43  1  0
 24 44  1  0
 24 45  1  0
 24 46  1  0
M  END
>  <i_m_ct_stereo_status>  (173) 
1

>  <s_m_source_file>  (173) 
/var/tmp/pbs.5076255.sched01/tmpco4mv84g/486h_uxm9x.sdf

>  <i_m_source_file_index>  (173) 
29

>  <i_lp_mmshare_version>  (173) 
48012

>  <i_f3d_flags>  (173) 
0

>  <s_epik_input>  (173) 
W0NIM11bQ0gyXVtDSDJdW0NIMl1uMW5ubmMxW0NAQF0oW09IXSkoW0NIXT1bQ0gyXSlbQ0gyXVtDSDJdT0MoPU8pYzJbY0hdW2NIXVtjSF1bY0hdW2NIXTI=

>  <s_epik_cmdline>  (173) 
J2VwaWtfcHl0aG9uJywgJy1waHQnLCAnMi4wJywgJy1waCcsICc3LjAnLCAnLXRuJywgJzgnLCAnLW1hJywgJzIwMCcsICctaW1hZScsICc8aW5maWxlLm1hZT4nLCAnLW9tYWUnLCAnPG91dGZpbGUubWFlPic=

>  <r_lp_tautomer_probability>  (173) 
1

>  <r_epik_Ionization_Penalty>  (173) 
1.83387e-05

>  <r_epik_Ionization_Penalty_Charging>  (173) 
0

>  <r_epik_Ionization_Penalty_Neutral>  (173) 
1.83387e-05

>  <r_epik_State_Penalty>  (173) 
-0

>  <r_epik_Charging_Adjusted_Penalty>  (173) 
0

>  <i_epik_Tot_Q>  (173) 
0

>  <i_epik_Tot_abs_Q>  (173) 
0

>  <s_epik_Chemistry_Notes>  (173) 
This compound has an ester and may undergo hydrolysis at high or low pH.

>  <s_lp_Force_Field>  (173) 
OPLS3e

>  <r_lp_Energy>  (173) 
14.6976

>  <b_lp_Chiralities_Consistent>  (173) 
1

>  <s_lp_Variant>  (173) 
42:0-1

>  <s_i_glide_gridfile>  (173) 
pfpi4k_grid

>  <i_i_glide_lignum>  (173) 
29

>  <i_i_glide_rotatable_bonds>  (173) 
11

>  <r_i_docking_score>  (173) 
-2.8195

>  <r_i_glide_ligand_efficiency>  (173) 
-0.117479

>  <r_i_glide_ligand_efficiency_sa>  (173) 
-0.338868

>  <r_i_glide_ligand_efficiency_ln>  (173) 
-0.674835

>  <r_i_glide_gscore>  (173) 
-2.8195

>  <r_i_glide_lipo>  (173) 
-0.560143

>  <r_i_glide_hbond>  (173) 
-0.16

>  <r_i_glide_metal>  (173) 
-0

>  <r_i_glide_rewards>  (173) 
-1.15649

>  <r_i_glide_evdw>  (173) 
-29.1376

>  <r_i_glide_ecoul>  (173) 
-4.75687

>  <r_i_glide_erotb>  (173) 
1.37844

>  <r_i_glide_esite>  (173) 
-0.150888

>  <r_i_glide_emodel>  (173) 
-30.287

>  <r_i_glide_energy>  (173) 
-33.8945

>  <r_i_glide_einternal>  (173) 
13.6979

>  <r_i_glide_intrahb_reward>  (173) 
-0

>  <i_i_glide_confnum>  (173) 
11

>  <i_i_glide_posenum>  (173) 
25

>  <r_i_glide_eff_state_penalty>  (173) 
0

>  <ligand_id>  (173) 
42

>  <original_smiles>  (173) 
C=CC(O)(CCOC(=O)c1ccccc1)c1nnnn1CCCC

>  <smiles>  (173) 
[H]OC(C([H])=C([H])[H])(c1nnnn1C([H])([H])C([H])([H])C([H])([H])C([H])([H])[H])C([H])([H])C([H])([H])OC(=O)c1c([H])c([H])c([H])c([H])c1[H]

$$$$
42:0:1
     RDKit          3D

 46 47  0  0  1  0  0  0  0  0999 V2000
    1.5318   -4.7136    2.8595 C   0  0  0  0  0  0  0  0  0  0  0  0
    1.2575   -3.9220    3.9194 C   0  0  0  0  0  0  0  0  0  0  0  0
    1.5766   -2.4045    4.0256 C   0  0  1  0  0  0  0  0  0  0  0  0
    2.5252   -2.2406    5.0600 O   0  0  0  0  0  0  0  0  0  0  0  0
    2.3012   -1.8003    2.7958 C   0  0  0  0  0  0  0  0  0  0  0  0
    3.6274   -2.3846    2.2735 C   0  0  0  0  0  0  0  0  0  0  0  0
    3.7203   -2.0623    0.8847 O   0  0  0  0  0  0  0  0  0  0  0  0
    3.3225   -2.8942   -0.1214 C   0  0  0  0  0  0  0  0  0  0  0  0
    2.9329   -4.0230    0.0017 O   0  0  0  0  0  0  0  0  0  0  0  0
    3.4762   -2.2708   -1.4697 C   0  0  0  0  0  0  0  0  0  0  0  0
    4.0973   -1.0476   -1.6389 C   0  0  0  0  0  0  0  0  0  0  0  0
    4.2272   -0.4814   -2.9235 C   0  0  0  0  0  0  0  0  0  0  0  0
    3.7396   -1.1676   -4.0381 C   0  0  0  0  0  0  0  0  0  0  0  0
    3.1023   -2.4153   -3.8845 C   0  0  0  0  0  0  0  0  0  0  0  0
    2.9430   -2.9577   -2.5944 C   0  0  0  0  0  0  0  0  0  0  0  0
    0.3257   -1.6018    4.4413 C   0  0  0  0  0  0  0  0  0  0  0  0
   -0.3805   -1.9797    5.4986 N   0  0  0  0  0  0  0  0  0  0  0  0
   -1.3931   -1.1127    5.5851 N   0  0  0  0  0  0  0  0  0  0  0  0
   -1.3176   -0.2802    4.6506 N   0  0  0  0  0  0  0  0  0  0  0  0
   -0.2124   -0.4842    3.8800 N   0  0  0  0  0  0  0  0  0  0  0  0
    0.0846    0.3244    2.6886 C   0  0  0  0  0  0  0  0  0  0  0  0
   -0.2384    1.8142    2.6784 C   0  0  0  0  0  0  0  0  0  0  0  0
   -1.7114    2.1906    2.8183 C   0  0  0  0  0  0  0  0  0  0  0  0
   -1.9704    3.6808    3.0261 C   0  0  0  0  0  0  0  0  0  0  0  0
    1.9009   -4.2589    2.0008 H   0  0  0  0  0  0  0  0  0  0  0  0
    1.3651   -5.7543    2.8607 H   0  0  0  0  0  0  0  0  0  0  0  0
    0.7656   -4.3519    4.7978 H   0  0  0  0  0  0  0  0  0  0  0  0
    3.3170   -2.6774    4.7997 H   0  0  0  0  0  0  0  0  0  0  0  0
    1.5765   -1.7460    1.9826 H   0  0  0  0  0  0  0  0  0  0  0  0
    2.5988   -0.7781    3.0590 H   0  0  0  0  0  0  0  0  0  0  0  0
    4.4009   -1.8480    2.8154 H   0  0  0  0  0  0  0  0  0  0  0  0
    3.7921   -3.4345    2.4497 H   0  0  0  0  0  0  0  0  0  0  0  0
    4.4745   -0.4742   -0.7895 H   0  0  0  0  0  0  0  0  0  0  0  0
    4.6608    0.4997   -3.0111 H   0  0  0  0  0  0  0  0  0  0  0  0
    3.8445   -0.7426   -5.0217 H   0  0  0  0  0  0  0  0  0  0  0  0
    2.6948   -2.9771   -4.7186 H   0  0  0  0  0  0  0  0  0  0  0  0
    2.4209   -3.8874   -2.4662 H   0  0  0  0  0  0  0  0  0  0  0  0
    1.1612    0.4519    2.5354 H   0  0  0  0  0  0  0  0  0  0  0  0
   -0.2656   -0.1675    1.7871 H   0  0  0  0  0  0  0  0  0  0  0  0
    0.3720    2.3216    3.4222 H   0  0  0  0  0  0  0  0  0  0  0  0
    0.1193    2.1918    1.7204 H   0  0  0  0  0  0  0  0  0  0  0  0
   -2.2903    1.7918    1.9774 H   0  0  0  0  0  0  0  0  0  0  0  0
   -2.1829    1.8395    3.7406 H   0  0  0  0  0  0  0  0  0  0  0  0
   -3.0247    3.7896    3.3349 H   0  0  0  0  0  0  0  0  0  0  0  0
   -1.7878    4.2704    2.1177 H   0  0  0  0  0  0  0  0  0  0  0  0
   -1.3452    4.0427    3.8578 H   0  0  0  0  0  0  0  0  0  0  0  0
  1  2  2  0
  1 25  1  0
  1 26  1  0
  2  3  1  0
  2 27  1  0
  3  4  1  1
  3  5  1  0
  3 16  1  0
  4 28  1  0
  5  6  1  0
  5 29  1  0
  5 30  1  0
  6  7  1  0
  6 31  1  0
  6 32  1  0
  7  8  1  0
  8  9  2  0
  8 10  1  0
 10 15  1  0
 10 11  2  0
 11 12  1  0
 11 33  1  0
 12 13  2  0
 12 34  1  0
 13 14  1  0
 13 35  1  0
 14 15  2  0
 14 36  1  0
 15 37  1  0
 16 20  1  0
 16 17  2  0
 17 18  1  0
 18 19  2  0
 19 20  1  0
 20 21  1  0
 21 22  1  0
 21 38  1  0
 21 39  1  0
 22 23  1  0
 22 40  1  0
 22 41  1  0
 23 24  1  0
 23 42  1  0
 23 43  1  0
 24 44  1  0
 24 45  1  0
 24 46  1  0
M  END
>  <i_m_ct_stereo_status>  (174) 
1

>  <s_m_source_file>  (174) 
/var/tmp/pbs.5076255.sched01/tmpco4mv84g/486h_uxm9x.sdf

>  <i_m_source_file_index>  (174) 
29

>  <i_lp_mmshare_version>  (174) 
48012

>  <i_f3d_flags>  (174) 
0

>  <s_epik_input>  (174) 
W0NIM11bQ0gyXVtDSDJdW0NIMl1uMW5ubmMxW0NAQF0oW09IXSkoW0NIXT1bQ0gyXSlbQ0gyXVtDSDJdT0MoPU8pYzJbY0hdW2NIXVtjSF1bY0hdW2NIXTI=

>  <s_epik_cmdline>  (174) 
J2VwaWtfcHl0aG9uJywgJy1waHQnLCAnMi4wJywgJy1waCcsICc3LjAnLCAnLXRuJywgJzgnLCAnLW1hJywgJzIwMCcsICctaW1hZScsICc8aW5maWxlLm1hZT4nLCAnLW9tYWUnLCAnPG91dGZpbGUubWFlPic=

>  <r_lp_tautomer_probability>  (174) 
1

>  <r_epik_Ionization_Penalty>  (174) 
1.83387e-05

>  <r_epik_Ionization_Penalty_Charging>  (174) 
0

>  <r_epik_Ionization_Penalty_Neutral>  (174) 
1.83387e-05

>  <r_epik_State_Penalty>  (174) 
-0

>  <r_epik_Charging_Adjusted_Penalty>  (174) 
0

>  <i_epik_Tot_Q>  (174) 
0

>  <i_epik_Tot_abs_Q>  (174) 
0

>  <s_epik_Chemistry_Notes>  (174) 
This compound has an ester and may undergo hydrolysis at high or low pH.

>  <s_lp_Force_Field>  (174) 
OPLS3e

>  <r_lp_Energy>  (174) 
14.6976

>  <b_lp_Chiralities_Consistent>  (174) 
1

>  <s_lp_Variant>  (174) 
42:0-1

>  <s_i_glide_gridfile>  (174) 
pfpi4k_grid

>  <i_i_glide_lignum>  (174) 
29

>  <i_i_glide_rotatable_bonds>  (174) 
11

>  <r_i_docking_score>  (174) 
-2.36055

>  <r_i_glide_ligand_efficiency>  (174) 
-0.0983562

>  <r_i_glide_ligand_efficiency_sa>  (174) 
-0.283708

>  <r_i_glide_ligand_efficiency_ln>  (174) 
-0.564987

>  <r_i_glide_gscore>  (174) 
-2.36055

>  <r_i_glide_lipo>  (174) 
-0.396461

>  <r_i_glide_hbond>  (174) 
0

>  <r_i_glide_metal>  (174) 
-0

>  <r_i_glide_rewards>  (174) 
-1.15649

>  <r_i_glide_evdw>  (174) 
-29.867

>  <r_i_glide_ecoul>  (174) 
-3.66841

>  <r_i_glide_erotb>  (174) 
1.37844

>  <r_i_glide_esite>  (174) 
-0.161051

>  <r_i_glide_emodel>  (174) 
-31.3957

>  <r_i_glide_energy>  (174) 
-33.5354

>  <r_i_glide_einternal>  (174) 
7.14644

>  <r_i_glide_intrahb_reward>  (174) 
-0

>  <i_i_glide_confnum>  (174) 
12

>  <i_i_glide_posenum>  (174) 
2

>  <r_i_glide_eff_state_penalty>  (174) 
0

>  <ligand_id>  (174) 
42

>  <original_smiles>  (174) 
C=CC(O)(CCOC(=O)c1ccccc1)c1nnnn1CCCC

>  <smiles>  (174) 
[H]OC(C([H])=C([H])[H])(c1nnnn1C([H])([H])C([H])([H])C([H])([H])C([H])([H])[H])C([H])([H])C([H])([H])OC(=O)c1c([H])c([H])c([H])c([H])c1[H]

$$$$
42:0:2
     RDKit          3D

 46 47  0  0  1  0  0  0  0  0999 V2000
    1.9695    1.5429    5.7609 C   0  0  0  0  0  0  0  0  0  0  0  0
    1.6339    1.7235    4.4677 C   0  0  0  0  0  0  0  0  0  0  0  0
    0.7436    0.8484    3.5789 C   0  0  1  0  0  0  0  0  0  0  0  0
   -0.0819    1.7507    2.8443 O   0  0  0  0  0  0  0  0  0  0  0  0
    1.5553    0.1120    2.4747 C   0  0  0  0  0  0  0  0  0  0  0  0
    2.6639    0.9401    1.7990 C   0  0  0  0  0  0  0  0  0  0  0  0
    3.3794    0.1213    0.8790 O   0  0  0  0  0  0  0  0  0  0  0  0
    4.5621   -0.4391    1.2072 C   0  0  0  0  0  0  0  0  0  0  0  0
    5.1173   -0.2748    2.2964 O   0  0  0  0  0  0  0  0  0  0  0  0
    5.1423   -1.2618    0.1093 C   0  0  0  0  0  0  0  0  0  0  0  0
    6.4224   -1.8382    0.2778 C   0  0  0  0  0  0  0  0  0  0  0  0
    6.9985   -2.6306   -0.7370 C   0  0  0  0  0  0  0  0  0  0  0  0
    6.2914   -2.8537   -1.9362 C   0  0  0  0  0  0  0  0  0  0  0  0
    5.0152   -2.2836   -2.1191 C   0  0  0  0  0  0  0  0  0  0  0  0
    4.4415   -1.4900   -1.1043 C   0  0  0  0  0  0  0  0  0  0  0  0
   -0.1345   -0.1077    4.3668 C   0  0  0  0  0  0  0  0  0  0  0  0
   -1.4498    0.0220    4.4978 N   0  0  0  0  0  0  0  0  0  0  0  0
   -1.8364   -1.0341    5.2848 N   0  0  0  0  0  0  0  0  0  0  0  0
   -0.8219   -1.7334    5.6398 N   0  0  0  0  0  0  0  0  0  0  0  0
    0.2844   -1.2093    5.0397 N   0  0  0  0  0  0  0  0  0  0  0  0
    1.5839   -1.8283    5.2482 C   0  0  0  0  0  0  0  0  0  0  0  0
    1.8098   -3.1413    4.4468 C   0  0  0  0  0  0  0  0  0  0  0  0
    0.7910   -4.2678    4.7083 C   0  0  0  0  0  0  0  0  0  0  0  0
    1.0159   -5.5255    3.8639 C   0  0  0  0  0  0  0  0  0  0  0  0
    1.6124    0.7182    6.3577 H   0  0  0  0  0  0  0  0  0  0  0  0
    2.6289    2.2484    6.2486 H   0  0  0  0  0  0  0  0  0  0  0  0
    2.0377    2.5994    3.9834 H   0  0  0  0  0  0  0  0  0  0  0  0
    0.4336    2.3177    2.2929 H   0  0  0  0  0  0  0  0  0  0  0  0
    2.0816   -0.7435    2.8810 H   0  0  0  0  0  0  0  0  0  0  0  0
    0.8698   -0.3051    1.7293 H   0  0  0  0  0  0  0  0  0  0  0  0
    2.2144    1.7766    1.2660 H   0  0  0  0  0  0  0  0  0  0  0  0
    3.3413    1.3788    2.5353 H   0  0  0  0  0  0  0  0  0  0  0  0
    6.9720   -1.6737    1.1928 H   0  0  0  0  0  0  0  0  0  0  0  0
    7.9773   -3.0643   -0.5972 H   0  0  0  0  0  0  0  0  0  0  0  0
    6.7310   -3.4597   -2.7142 H   0  0  0  0  0  0  0  0  0  0  0  0
    4.4709   -2.4599   -3.0359 H   0  0  0  0  0  0  0  0  0  0  0  0
    3.4589   -1.0722   -1.2650 H   0  0  0  0  0  0  0  0  0  0  0  0
    2.3757   -1.1179    5.0139 H   0  0  0  0  0  0  0  0  0  0  0  0
    1.7041   -2.0107    6.3182 H   0  0  0  0  0  0  0  0  0  0  0  0
    1.8334   -2.9380    3.3754 H   0  0  0  0  0  0  0  0  0  0  0  0
    2.8047   -3.5108    4.6986 H   0  0  0  0  0  0  0  0  0  0  0  0
    0.7879   -4.5283    5.7672 H   0  0  0  0  0  0  0  0  0  0  0  0
   -0.2039   -3.9216    4.4621 H   0  0  0  0  0  0  0  0  0  0  0  0
    0.1948   -6.2282    4.0172 H   0  0  0  0  0  0  0  0  0  0  0  0
    1.9449   -6.0306    4.1293 H   0  0  0  0  0  0  0  0  0  0  0  0
    1.0452   -5.2853    2.8011 H   0  0  0  0  0  0  0  0  0  0  0  0
  1  2  2  0
  1 25  1  0
  1 26  1  0
  2  3  1  0
  2 27  1  0
  3  4  1  6
  3  5  1  0
  3 16  1  0
  4 28  1  0
  5  6  1  0
  5 29  1  0
  5 30  1  0
  6  7  1  0
  6 31  1  0
  6 32  1  0
  7  8  1  0
  8  9  2  0
  8 10  1  0
 10 15  1  0
 10 11  2  0
 11 12  1  0
 11 33  1  0
 12 13  2  0
 12 34  1  0
 13 14  1  0
 13 35  1  0
 14 15  2  0
 14 36  1  0
 15 37  1  0
 16 20  1  0
 16 17  2  0
 17 18  1  0
 18 19  2  0
 19 20  1  0
 20 21  1  0
 21 22  1  0
 21 38  1  0
 21 39  1  0
 22 23  1  0
 22 40  1  0
 22 41  1  0
 23 24  1  0
 23 42  1  0
 23 43  1  0
 24 44  1  0
 24 45  1  0
 24 46  1  0
M  END
>  <i_m_ct_stereo_status>  (175) 
1

>  <s_m_source_file>  (175) 
/var/tmp/pbs.5076255.sched01/tmpco4mv84g/486h_uxm9x.sdf

>  <i_m_source_file_index>  (175) 
29

>  <i_lp_mmshare_version>  (175) 
48012

>  <i_f3d_flags>  (175) 
0

>  <s_epik_input>  (175) 
W0NIM11bQ0gyXVtDSDJdW0NIMl1uMW5ubmMxW0NAQF0oW09IXSkoW0NIXT1bQ0gyXSlbQ0gyXVtDSDJdT0MoPU8pYzJbY0hdW2NIXVtjSF1bY0hdW2NIXTI=

>  <s_epik_cmdline>  (175) 
J2VwaWtfcHl0aG9uJywgJy1waHQnLCAnMi4wJywgJy1waCcsICc3LjAnLCAnLXRuJywgJzgnLCAnLW1hJywgJzIwMCcsICctaW1hZScsICc8aW5maWxlLm1hZT4nLCAnLW9tYWUnLCAnPG91dGZpbGUubWFlPic=

>  <r_lp_tautomer_probability>  (175) 
1

>  <r_epik_Ionization_Penalty>  (175) 
1.83387e-05

>  <r_epik_Ionization_Penalty_Charging>  (175) 
0

>  <r_epik_Ionization_Penalty_Neutral>  (175) 
1.83387e-05

>  <r_epik_State_Penalty>  (175) 
-0

>  <r_epik_Charging_Adjusted_Penalty>  (175) 
0

>  <i_epik_Tot_Q>  (175) 
0

>  <i_epik_Tot_abs_Q>  (175) 
0

>  <s_epik_Chemistry_Notes>  (175) 
This compound has an ester and may undergo hydrolysis at high or low pH.

>  <s_lp_Force_Field>  (175) 
OPLS3e

>  <r_lp_Energy>  (175) 
14.6976

>  <b_lp_Chiralities_Consistent>  (175) 
1

>  <s_lp_Variant>  (175) 
42:0-1

>  <s_i_glide_gridfile>  (175) 
pfpi4k_grid

>  <i_i_glide_lignum>  (175) 
29

>  <i_i_glide_rotatable_bonds>  (175) 
11

>  <r_i_docking_score>  (175) 
-2.31735

>  <r_i_glide_ligand_efficiency>  (175) 
-0.0965562

>  <r_i_glide_ligand_efficiency_sa>  (175) 
-0.278516

>  <r_i_glide_ligand_efficiency_ln>  (175) 
-0.554648

>  <r_i_glide_gscore>  (175) 
-2.31735

>  <r_i_glide_lipo>  (175) 
-0.128295

>  <r_i_glide_hbond>  (175) 
-0.0952719

>  <r_i_glide_metal>  (175) 
-0

>  <r_i_glide_rewards>  (175) 
-1.34257

>  <r_i_glide_evdw>  (175) 
-28.4309

>  <r_i_glide_ecoul>  (175) 
-3.64725

>  <r_i_glide_erotb>  (175) 
1.37844

>  <r_i_glide_esite>  (175) 
-0.161012

>  <r_i_glide_emodel>  (175) 
-35.3805

>  <r_i_glide_energy>  (175) 
-32.0782

>  <r_i_glide_einternal>  (175) 
3.17524

>  <r_i_glide_intrahb_reward>  (175) 
-0

>  <i_i_glide_confnum>  (175) 
4

>  <i_i_glide_posenum>  (175) 
20

>  <r_i_glide_eff_state_penalty>  (175) 
0

>  <ligand_id>  (175) 
42

>  <original_smiles>  (175) 
C=CC(O)(CCOC(=O)c1ccccc1)c1nnnn1CCCC

>  <smiles>  (175) 
[H]OC(C([H])=C([H])[H])(c1nnnn1C([H])([H])C([H])([H])C([H])([H])C([H])([H])[H])C([H])([H])C([H])([H])OC(=O)c1c([H])c([H])c([H])c([H])c1[H]

$$$$
43:0:0
     RDKit          3D

 16 17  0  0  1  0  0  0  0  0999 V2000
    3.4300   -7.6094    1.3797 C   0  0  0  0  0  0  0  0  0  0  0  0
    2.3142   -8.4555    1.9494 C   0  0  0  0  0  0  0  0  0  0  0  0
    2.4412   -9.7360    2.3981 N   0  0  0  0  0  0  0  0  0  0  0  0
    1.2070  -10.1119    2.8215 N   0  0  0  0  0  0  0  0  0  0  0  0
    0.9324  -11.4209    3.3628 C   0  0  0  0  0  0  0  0  0  0  0  0
    0.3155   -9.1762    2.6732 N   0  0  0  0  0  0  0  0  0  0  0  0
   -0.9744   -8.9532    2.8861 N   0  0  0  0  0  0  0  0  0  0  0  0
   -1.0712   -7.6996    2.4713 N   0  0  0  0  0  0  0  0  0  0  0  0
    0.1592   -7.1559    1.9747 N   0  0  0  0  0  0  0  0  0  0  0  0
    0.9422   -8.1642    2.1574 C   0  0  0  0  0  0  0  0  0  0  0  0
    3.1104   -6.6064    1.0793 H   0  0  0  0  0  0  0  0  0  0  0  0
    3.8546   -8.1294    0.5224 H   0  0  0  0  0  0  0  0  0  0  0  0
    4.2174   -7.5322    2.1280 H   0  0  0  0  0  0  0  0  0  0  0  0
    1.8627  -11.9920    3.3569 H   0  0  0  0  0  0  0  0  0  0  0  0
    0.2113  -11.9473    2.7354 H   0  0  0  0  0  0  0  0  0  0  0  0
    0.5787  -11.3459    4.3936 H   0  0  0  0  0  0  0  0  0  0  0  0
  1  2  1  0
  1 11  1  0
  1 12  1  0
  1 13  1  0
  2 10  1  0
  2  3  2  0
  3  4  1  0
  4  5  1  0
  4  6  1  0
  5 14  1  0
  5 15  1  0
  5 16  1  0
  6 10  1  0
  6  7  1  0
  7  8  2  0
  8  9  1  0
  9 10  2  0
M  END
>  <i_m_ct_stereo_status>  (176) 
1

>  <s_m_source_file>  (176) 
/var/tmp/pbs.5076255.sched01/tmpco4mv84g/486h_uxm9x.sdf

>  <i_m_source_file_index>  (176) 
30

>  <i_lp_mmshare_version>  (176) 
48012

>  <i_f3d_flags>  (176) 
0

>  <s_epik_input>  (176) 
W0NIM11uMW5jKFtDSDNdKWMobjEyKW5ubjI=

>  <s_epik_cmdline>  (176) 
J2VwaWtfcHl0aG9uJywgJy1waHQnLCAnMi4wJywgJy1waCcsICc3LjAnLCAnLXRuJywgJzgnLCAnLW1hJywgJzIwMCcsICctaW1hZScsICc8aW5maWxlLm1hZT4nLCAnLW9tYWUnLCAnPG91dGZpbGUubWFlPic=

>  <r_lp_tautomer_probability>  (176) 
1

>  <r_epik_Ionization_Penalty>  (176) 
4.5902e-12

>  <r_epik_Ionization_Penalty_Charging>  (176) 
0

>  <r_epik_Ionization_Penalty_Neutral>  (176) 
4.5902e-12

>  <r_epik_State_Penalty>  (176) 
-0

>  <r_epik_Charging_Adjusted_Penalty>  (176) 
0

>  <i_epik_Tot_Q>  (176) 
0

>  <i_epik_Tot_abs_Q>  (176) 
0

>  <s_lp_Force_Field>  (176) 
OPLS3e

>  <r_lp_Energy>  (176) 
10.5863

>  <b_lp_Chiralities_Consistent>  (176) 
1

>  <s_lp_Variant>  (176) 
43:0-1

>  <s_i_glide_gridfile>  (176) 
pfpi4k_grid

>  <i_i_glide_lignum>  (176) 
30

>  <i_i_glide_rotatable_bonds>  (176) 
0

>  <r_i_docking_score>  (176) 
-4.0406

>  <r_i_glide_ligand_efficiency>  (176) 
-0.40406

>  <r_i_glide_ligand_efficiency_sa>  (176) 
-0.870521

>  <r_i_glide_ligand_efficiency_ln>  (176) 
-1.22347

>  <r_i_glide_gscore>  (176) 
-4.0406

>  <r_i_glide_lipo>  (176) 
-0.234811

>  <r_i_glide_hbond>  (176) 
0

>  <r_i_glide_metal>  (176) 
-0

>  <r_i_glide_rewards>  (176) 
-2.43235

>  <r_i_glide_evdw>  (176) 
-17.5161

>  <r_i_glide_ecoul>  (176) 
-1.70829

>  <r_i_glide_erotb>  (176) 
0

>  <r_i_glide_esite>  (176) 
-0.24139

>  <r_i_glide_emodel>  (176) 
-24.7363

>  <r_i_glide_energy>  (176) 
-19.2243

>  <r_i_glide_einternal>  (176) 
0

>  <r_i_glide_intrahb_reward>  (176) 
-0

>  <i_i_glide_confnum>  (176) 
2

>  <i_i_glide_posenum>  (176) 
12

>  <r_i_glide_eff_state_penalty>  (176) 
0

>  <ligand_id>  (176) 
43

>  <original_smiles>  (176) 
Cc1nn(C)n2nnnc12

>  <smiles>  (176) 
[H]C([H])([H])c1nn(C([H])([H])[H])n2nnnc12

$$$$
43:0:1
     RDKit          3D

 16 17  0  0  1  0  0  0  0  0999 V2000
    2.6327  -10.4496    2.9976 C   0  0  0  0  0  0  0  0  0  0  0  0
    1.4203   -9.5966    2.7167 C   0  0  0  0  0  0  0  0  0  0  0  0
    0.1239   -9.9370    2.9716 N   0  0  0  0  0  0  0  0  0  0  0  0
   -0.6299   -8.8784    2.5757 N   0  0  0  0  0  0  0  0  0  0  0  0
   -2.0660   -8.8556    2.6815 C   0  0  0  0  0  0  0  0  0  0  0  0
    0.0779   -7.9083    2.0872 N   0  0  0  0  0  0  0  0  0  0  0  0
   -0.0762   -6.6981    1.5630 N   0  0  0  0  0  0  0  0  0  0  0  0
    1.1862   -6.3889    1.3163 N   0  0  0  0  0  0  0  0  0  0  0  0
    2.1180   -7.4094    1.6961 N   0  0  0  0  0  0  0  0  0  0  0  0
    1.3110   -8.2995    2.1566 C   0  0  0  0  0  0  0  0  0  0  0  0
    3.5830   -9.9863    2.7046 H   0  0  0  0  0  0  0  0  0  0  0  0
    2.5234  -11.4030    2.4747 H   0  0  0  0  0  0  0  0  0  0  0  0
    2.6520  -10.6809    4.0637 H   0  0  0  0  0  0  0  0  0  0  0  0
   -2.3741   -9.8051    3.1268 H   0  0  0  0  0  0  0  0  0  0  0  0
   -2.5250   -8.7791    1.6928 H   0  0  0  0  0  0  0  0  0  0  0  0
   -2.3924   -8.0453    3.3373 H   0  0  0  0  0  0  0  0  0  0  0  0
  1  2  1  0
  1 11  1  0
  1 12  1  0
  1 13  1  0
  2 10  1  0
  2  3  2  0
  3  4  1  0
  4  5  1  0
  4  6  1  0
  5 14  1  0
  5 15  1  0
  5 16  1  0
  6 10  1  0
  6  7  1  0
  7  8  2  0
  8  9  1  0
  9 10  2  0
M  END
>  <i_m_ct_stereo_status>  (177) 
1

>  <s_m_source_file>  (177) 
/var/tmp/pbs.5076255.sched01/tmpco4mv84g/486h_uxm9x.sdf

>  <i_m_source_file_index>  (177) 
30

>  <i_lp_mmshare_version>  (177) 
48012

>  <i_f3d_flags>  (177) 
0

>  <s_epik_input>  (177) 
W0NIM11uMW5jKFtDSDNdKWMobjEyKW5ubjI=

>  <s_epik_cmdline>  (177) 
J2VwaWtfcHl0aG9uJywgJy1waHQnLCAnMi4wJywgJy1waCcsICc3LjAnLCAnLXRuJywgJzgnLCAnLW1hJywgJzIwMCcsICctaW1hZScsICc8aW5maWxlLm1hZT4nLCAnLW9tYWUnLCAnPG91dGZpbGUubWFlPic=

>  <r_lp_tautomer_probability>  (177) 
1

>  <r_epik_Ionization_Penalty>  (177) 
4.5902e-12

>  <r_epik_Ionization_Penalty_Charging>  (177) 
0

>  <r_epik_Ionization_Penalty_Neutral>  (177) 
4.5902e-12

>  <r_epik_State_Penalty>  (177) 
-0

>  <r_epik_Charging_Adjusted_Penalty>  (177) 
0

>  <i_epik_Tot_Q>  (177) 
0

>  <i_epik_Tot_abs_Q>  (177) 
0

>  <s_lp_Force_Field>  (177) 
OPLS3e

>  <r_lp_Energy>  (177) 
10.5863

>  <b_lp_Chiralities_Consistent>  (177) 
1

>  <s_lp_Variant>  (177) 
43:0-1

>  <s_i_glide_gridfile>  (177) 
pfpi4k_grid

>  <i_i_glide_lignum>  (177) 
30

>  <i_i_glide_rotatable_bonds>  (177) 
0

>  <r_i_docking_score>  (177) 
-3.91424

>  <r_i_glide_ligand_efficiency>  (177) 
-0.391424

>  <r_i_glide_ligand_efficiency_sa>  (177) 
-0.843297

>  <r_i_glide_ligand_efficiency_ln>  (177) 
-1.1852

>  <r_i_glide_gscore>  (177) 
-3.91424

>  <r_i_glide_lipo>  (177) 
-0.145348

>  <r_i_glide_hbond>  (177) 
0

>  <r_i_glide_metal>  (177) 
-0

>  <r_i_glide_rewards>  (177) 
-2.25

>  <r_i_glide_evdw>  (177) 
-17.2199

>  <r_i_glide_ecoul>  (177) 
-2.41235

>  <r_i_glide_erotb>  (177) 
0

>  <r_i_glide_esite>  (177) 
-0.296047

>  <r_i_glide_emodel>  (177) 
-24.9553

>  <r_i_glide_energy>  (177) 
-19.6322

>  <r_i_glide_einternal>  (177) 
0

>  <r_i_glide_intrahb_reward>  (177) 
-0

>  <i_i_glide_confnum>  (177) 
2

>  <i_i_glide_posenum>  (177) 
1

>  <r_i_glide_eff_state_penalty>  (177) 
0

>  <ligand_id>  (177) 
43

>  <original_smiles>  (177) 
Cc1nn(C)n2nnnc12

>  <smiles>  (177) 
[H]C([H])([H])c1nn(C([H])([H])[H])n2nnnc12

$$$$
43:0:2
     RDKit          3D

 16 17  0  0  1  0  0  0  0  0999 V2000
    4.1198   -8.7406    1.0554 C   0  0  0  0  0  0  0  0  0  0  0  0
    2.8309   -8.9275    1.8172 C   0  0  0  0  0  0  0  0  0  0  0  0
    2.5846   -9.9454    2.6986 N   0  0  0  0  0  0  0  0  0  0  0  0
    1.3200   -9.7359    3.1518 N   0  0  0  0  0  0  0  0  0  0  0  0
    0.6819  -10.5997    4.1163 C   0  0  0  0  0  0  0  0  0  0  0  0
    0.7586   -8.6786    2.6251 N   0  0  0  0  0  0  0  0  0  0  0  0
   -0.3867   -7.9975    2.6732 N   0  0  0  0  0  0  0  0  0  0  0  0
   -0.1301   -7.0179    1.8221 N   0  0  0  0  0  0  0  0  0  0  0  0
    1.1909   -7.0790    1.2642 N   0  0  0  0  0  0  0  0  0  0  0  0
    1.6335   -8.1602    1.8299 C   0  0  0  0  0  0  0  0  0  0  0  0
    4.1222   -7.8667    0.4008 H   0  0  0  0  0  0  0  0  0  0  0  0
    4.3057   -9.6347    0.4650 H   0  0  0  0  0  0  0  0  0  0  0  0
    4.9380   -8.6533    1.7660 H   0  0  0  0  0  0  0  0  0  0  0  0
    1.3780  -11.3997    4.3723 H   0  0  0  0  0  0  0  0  0  0  0  0
   -0.2023  -11.0519    3.6777 H   0  0  0  0  0  0  0  0  0  0  0  0
    0.4277  -10.0463    5.0256 H   0  0  0  0  0  0  0  0  0  0  0  0
  1  2  1  0
  1 11  1  0
  1 12  1  0
  1 13  1  0
  2 10  1  0
  2  3  2  0
  3  4  1  0
  4  5  1  0
  4  6  1  0
  5 14  1  0
  5 15  1  0
  5 16  1  0
  6 10  1  0
  6  7  1  0
  7  8  2  0
  8  9  1  0
  9 10  2  0
M  END
>  <i_m_ct_stereo_status>  (178) 
1

>  <s_m_source_file>  (178) 
/var/tmp/pbs.5076255.sched01/tmpco4mv84g/486h_uxm9x.sdf

>  <i_m_source_file_index>  (178) 
30

>  <i_lp_mmshare_version>  (178) 
48012

>  <i_f3d_flags>  (178) 
0

>  <s_epik_input>  (178) 
W0NIM11uMW5jKFtDSDNdKWMobjEyKW5ubjI=

>  <s_epik_cmdline>  (178) 
J2VwaWtfcHl0aG9uJywgJy1waHQnLCAnMi4wJywgJy1waCcsICc3LjAnLCAnLXRuJywgJzgnLCAnLW1hJywgJzIwMCcsICctaW1hZScsICc8aW5maWxlLm1hZT4nLCAnLW9tYWUnLCAnPG91dGZpbGUubWFlPic=

>  <r_lp_tautomer_probability>  (178) 
1

>  <r_epik_Ionization_Penalty>  (178) 
4.5902e-12

>  <r_epik_Ionization_Penalty_Charging>  (178) 
0

>  <r_epik_Ionization_Penalty_Neutral>  (178) 
4.5902e-12

>  <r_epik_State_Penalty>  (178) 
-0

>  <r_epik_Charging_Adjusted_Penalty>  (178) 
0

>  <i_epik_Tot_Q>  (178) 
0

>  <i_epik_Tot_abs_Q>  (178) 
0

>  <s_lp_Force_Field>  (178) 
OPLS3e

>  <r_lp_Energy>  (178) 
10.5863

>  <b_lp_Chiralities_Consistent>  (178) 
1

>  <s_lp_Variant>  (178) 
43:0-1

>  <s_i_glide_gridfile>  (178) 
pfpi4k_grid

>  <i_i_glide_lignum>  (178) 
30

>  <i_i_glide_rotatable_bonds>  (178) 
0

>  <r_i_docking_score>  (178) 
-3.63553

>  <r_i_glide_ligand_efficiency>  (178) 
-0.363553

>  <r_i_glide_ligand_efficiency_sa>  (178) 
-0.783251

>  <r_i_glide_ligand_efficiency_ln>  (178) 
-1.10081

>  <r_i_glide_gscore>  (178) 
-3.63553

>  <r_i_glide_lipo>  (178) 
0

>  <r_i_glide_hbond>  (178) 
0

>  <r_i_glide_metal>  (178) 
-0

>  <r_i_glide_rewards>  (178) 
-2.30856

>  <r_i_glide_evdw>  (178) 
-16.4267

>  <r_i_glide_ecoul>  (178) 
-1.61155

>  <r_i_glide_erotb>  (178) 
0

>  <r_i_glide_esite>  (178) 
-0.263906

>  <r_i_glide_emodel>  (178) 
-23.0134

>  <r_i_glide_energy>  (178) 
-18.0383

>  <r_i_glide_einternal>  (178) 
0

>  <r_i_glide_intrahb_reward>  (178) 
-0

>  <i_i_glide_confnum>  (178) 
2

>  <i_i_glide_posenum>  (178) 
3

>  <r_i_glide_eff_state_penalty>  (178) 
0

>  <ligand_id>  (178) 
43

>  <original_smiles>  (178) 
Cc1nn(C)n2nnnc12

>  <smiles>  (178) 
[H]C([H])([H])c1nn(C([H])([H])[H])n2nnnc12

$$$$
44:0:0
     RDKit          3D

 41 44  0  0  1  0  0  0  0  0999 V2000
    3.5874   -0.1133   -4.7603 C   0  0  0  0  0  0  0  0  0  0  0  0
    3.6504   -0.9822   -3.5268 C   0  0  0  0  0  0  0  0  0  0  0  0
    3.0978   -2.2843   -3.5251 C   0  0  0  0  0  0  0  0  0  0  0  0
    3.0969   -3.0566   -2.3470 C   0  0  0  0  0  0  0  0  0  0  0  0
    3.6883   -2.5255   -1.1874 C   0  0  0  0  0  0  0  0  0  0  0  0
    4.2614   -1.2663   -1.1949 C   0  0  0  0  0  0  0  0  0  0  0  0
    4.2485   -0.4765   -2.3551 C   0  0  0  0  0  0  0  0  0  0  0  0
    4.8076   -0.9421    0.0456 N   0  0  0  0  0  0  0  0  0  0  0  0
    4.8574   -2.2154    0.7856 C   0  0  1  0  0  0  0  0  0  0  0  0
    6.2617   -2.8334    0.6239 C   0  0  0  0  0  0  0  0  0  0  0  0
    4.4957   -2.0987    2.2801 C   0  0  2  0  0  0  0  0  0  0  0  0
    2.9973   -2.1524    2.4356 C   0  0  2  0  0  0  0  0  0  0  0  0
    2.8456   -1.6084    3.8632 C   0  0  0  0  0  0  0  0  0  0  0  0
    1.8716   -1.8092    4.5920 O   0  0  0  0  0  0  0  0  0  0  0  0
    3.9047   -0.8192    4.1363 N   0  0  0  0  0  0  0  0  0  0  0  0
    4.0212    0.0575    5.3018 C   0  0  0  0  0  0  0  0  0  0  0  0
    4.8465   -0.9228    3.1847 C   0  0  0  0  0  0  0  0  0  0  0  0
    5.8636   -0.2466    3.0780 O   0  0  0  0  0  0  0  0  0  0  0  0
    2.5750   -3.4863    1.9856 N   0  0  0  0  0  0  0  0  0  0  0  0
    1.6802   -4.2812    2.8362 C   0  0  0  0  0  0  0  0  0  0  0  0
    2.8674   -3.8190    0.6919 C   0  0  0  0  0  0  0  0  0  0  0  0
    2.2705   -4.7310    0.1080 O   0  0  0  0  0  0  0  0  0  0  0  0
    3.8467   -3.0734    0.0925 N   0  0  0  0  0  0  0  0  0  0  0  0
    3.0389   -0.6047   -5.5577 H   0  0  0  0  0  0  0  0  0  0  0  0
    4.5912    0.1119   -5.1104 H   0  0  0  0  0  0  0  0  0  0  0  0
    3.0839    0.8275   -4.5447 H   0  0  0  0  0  0  0  0  0  0  0  0
    2.6413   -2.6837   -4.4204 H   0  0  0  0  0  0  0  0  0  0  0  0
    2.6573   -4.0365   -2.3417 H   0  0  0  0  0  0  0  0  0  0  0  0
    4.6395    0.5275   -2.3416 H   0  0  0  0  0  0  0  0  0  0  0  0
    5.5791   -0.2890    0.0899 H   0  0  0  0  0  0  0  0  0  0  0  0
    6.5266   -2.9317   -0.4282 H   0  0  0  0  0  0  0  0  0  0  0  0
    6.3152   -3.8290    1.0657 H   0  0  0  0  0  0  0  0  0  0  0  0
    7.0162   -2.2101    1.1013 H   0  0  0  0  0  0  0  0  0  0  0  0
    2.4960   -1.4228    1.7907 H   0  0  0  0  0  0  0  0  0  0  0  0
    5.0627    0.1967    5.5892 H   0  0  0  0  0  0  0  0  0  0  0  0
    3.4967   -0.3555    6.1618 H   0  0  0  0  0  0  0  0  0  0  0  0
    3.5987    1.0375    5.0848 H   0  0  0  0  0  0  0  0  0  0  0  0
    4.9166   -2.9689    2.7941 H   0  0  0  0  0  0  0  0  0  0  0  0
    1.5283   -5.2870    2.4465 H   0  0  0  0  0  0  0  0  0  0  0  0
    0.7081   -3.7970    2.9062 H   0  0  0  0  0  0  0  0  0  0  0  0
    2.0812   -4.3972    3.8425 H   0  0  0  0  0  0  0  0  0  0  0  0
  1  2  1  0
  1 24  1  0
  1 25  1  0
  1 26  1  0
  2  7  2  0
  2  3  1  0
  3  4  2  0
  3 27  1  0
  4  5  1  0
  4 28  1  0
  5 23  1  0
  5  6  2  0
  6  7  1  0
  6  8  1  0
  7 29  1  0
  8  9  1  0
  8 30  1  0
  9 23  1  0
  9 10  1  1
  9 11  1  0
 10 31  1  0
 10 32  1  0
 10 33  1  0
 11 12  1  0
 11 38  1  1
 11 17  1  0
 12 13  1  0
 12 19  1  0
 12 34  1  6
 13 14  2  0
 13 15  1  0
 15 17  1  0
 15 16  1  0
 16 35  1  0
 16 36  1  0
 16 37  1  0
 17 18  2  0
 19 20  1  0
 19 21  1  0
 20 39  1  0
 20 40  1  0
 20 41  1  0
 21 22  2  0
 21 23  1  0
M  END
>  <i_m_ct_stereo_status>  (179) 
1

>  <s_m_source_file>  (179) 
/var/tmp/pbs.5076255.sched01/tmpco4mv84g/486h_uxm9x.sdf

>  <i_m_source_file_index>  (179) 
31

>  <i_lp_mmshare_version>  (179) 
48012

>  <i_f3d_flags>  (179) 
0

>  <s_epik_input>  (179) 
W2NIXTFbY0hdYyhbQ0gzXSlbY0hdYyhbTkhdMiljMU4zQyg9TylOKFtDSDNdKWMoYzRbQ0BdMjNbQ0gzXSljKFtPSF0pbihbQ0gzXSljNFtPSF0=

>  <s_epik_cmdline>  (179) 
J2VwaWtfcHl0aG9uJywgJy1waHQnLCAnMi4wJywgJy1waCcsICc3LjAnLCAnLXRuJywgJzgnLCAnLW1hJywgJzIwMCcsICctaW1hZScsICc8aW5maWxlLm1hZT4nLCAnLW9tYWUnLCAnPG91dGZpbGUubWFlPic=

>  <r_lp_tautomer_probability>  (179) 
1

>  <r_epik_Ionization_Penalty>  (179) 
4.93364e-05

>  <r_epik_Ionization_Penalty_Charging>  (179) 
0

>  <r_epik_Ionization_Penalty_Neutral>  (179) 
4.93364e-05

>  <r_epik_State_Penalty>  (179) 
-0

>  <r_epik_Charging_Adjusted_Penalty>  (179) 
0

>  <i_epik_Tot_Q>  (179) 
0

>  <i_epik_Tot_abs_Q>  (179) 
0

>  <s_lp_Force_Field>  (179) 
OPLS3e

>  <r_lp_Energy>  (179) 
33.8614

>  <b_lp_Chiralities_Consistent>  (179) 
1

>  <s_lp_Variant>  (179) 
44:0-1

>  <s_i_glide_gridfile>  (179) 
pfpi4k_grid

>  <i_i_glide_lignum>  (179) 
31

>  <i_i_glide_rotatable_bonds>  (179) 
0

>  <r_i_docking_score>  (179) 
-3.90941

>  <r_i_glide_ligand_efficiency>  (179) 
-0.169974

>  <r_i_glide_ligand_efficiency_sa>  (179) 
-0.483385

>  <r_i_glide_ligand_efficiency_ln>  (179) 
-0.945331

>  <r_i_glide_gscore>  (179) 
-3.90941

>  <r_i_glide_lipo>  (179) 
-0.841235

>  <r_i_glide_hbond>  (179) 
-0.0583616

>  <r_i_glide_metal>  (179) 
-0

>  <r_i_glide_rewards>  (179) 
-1.4227

>  <r_i_glide_evdw>  (179) 
-24.0023

>  <r_i_glide_ecoul>  (179) 
-2.40674

>  <r_i_glide_erotb>  (179) 
0

>  <r_i_glide_esite>  (179) 
-0.025987

>  <r_i_glide_emodel>  (179) 
-33.2583

>  <r_i_glide_energy>  (179) 
-26.4091

>  <r_i_glide_einternal>  (179) 
0

>  <r_i_glide_intrahb_reward>  (179) 
-0

>  <i_i_glide_confnum>  (179) 
2

>  <i_i_glide_posenum>  (179) 
39

>  <r_i_glide_eff_state_penalty>  (179) 
0

>  <ligand_id>  (179) 
44

>  <original_smiles>  (179) 
Cc1ccc2c(c1)NC1(C)c3c(c(O)n(C)c3O)N(C)C(=O)N21

>  <smiles>  (179) 
[H]c1c([H])c(C([H])([H])[H])c([H])c2c1N1C(=O)N(C([H])([H])[H])C3([H])C(=O)N(C([H])([H])[H])C(=O)C3([H])C1(C([H])([H])[H])N2[H]

$$$$
44:0:1
     RDKit          3D

 41 44  0  0  1  0  0  0  0  0999 V2000
   -0.8531   -8.0481    2.4494 C   0  0  0  0  0  0  0  0  0  0  0  0
    0.4185   -7.2259    2.4033 C   0  0  0  0  0  0  0  0  0  0  0  0
    1.1891   -7.0362    3.5804 C   0  0  0  0  0  0  0  0  0  0  0  0
    2.3645   -6.2474    3.5595 C   0  0  0  0  0  0  0  0  0  0  0  0
    2.7402   -5.6702    2.3317 C   0  0  0  0  0  0  0  0  0  0  0  0
    2.0108   -5.8824    1.1702 C   0  0  0  0  0  0  0  0  0  0  0  0
    0.8367   -6.6566    1.1778 C   0  0  0  0  0  0  0  0  0  0  0  0
    2.5806   -5.2277    0.0818 N   0  0  0  0  0  0  0  0  0  0  0  0
    3.9353   -4.8645    0.5234 C   0  0  1  0  0  0  0  0  0  0  0  0
    4.9340   -5.9595    0.0827 C   0  0  0  0  0  0  0  0  0  0  0  0
    4.4096   -3.4901    0.0134 C   0  0  2  0  0  0  0  0  0  0  0  0
    3.8867   -2.4196    0.9417 C   0  0  2  0  0  0  0  0  0  0  0  0
    4.0903   -1.1770    0.0692 C   0  0  0  0  0  0  0  0  0  0  0  0
    4.2170   -0.0373    0.5099 O   0  0  0  0  0  0  0  0  0  0  0  0
    4.0585   -1.5477   -1.2267 N   0  0  0  0  0  0  0  0  0  0  0  0
    3.9941   -0.6544   -2.3789 C   0  0  0  0  0  0  0  0  0  0  0  0
    4.1095   -2.8778   -1.3582 C   0  0  0  0  0  0  0  0  0  0  0  0
    4.0429   -3.4913   -2.4177 O   0  0  0  0  0  0  0  0  0  0  0  0
    4.5028   -2.6443    2.2564 N   0  0  0  0  0  0  0  0  0  0  0  0
    5.1435   -1.5264    2.9584 C   0  0  0  0  0  0  0  0  0  0  0  0
    4.2713   -3.8539    2.8508 C   0  0  0  0  0  0  0  0  0  0  0  0
    4.4496   -4.0379    4.0531 O   0  0  0  0  0  0  0  0  0  0  0  0
    3.8331   -4.8507    2.0123 N   0  0  0  0  0  0  0  0  0  0  0  0
   -1.0850   -8.3746    3.4611 H   0  0  0  0  0  0  0  0  0  0  0  0
   -0.7564   -8.9362    1.8270 H   0  0  0  0  0  0  0  0  0  0  0  0
   -1.6962   -7.4644    2.0847 H   0  0  0  0  0  0  0  0  0  0  0  0
    0.8833   -7.4963    4.5055 H   0  0  0  0  0  0  0  0  0  0  0  0
    2.9563   -6.1061    4.4531 H   0  0  0  0  0  0  0  0  0  0  0  0
    0.2629   -6.8069    0.2738 H   0  0  0  0  0  0  0  0  0  0  0  0
    2.5073   -5.6361   -0.8529 H   0  0  0  0  0  0  0  0  0  0  0  0
    4.6248   -6.9456    0.4303 H   0  0  0  0  0  0  0  0  0  0  0  0
    5.9345   -5.7776    0.4798 H   0  0  0  0  0  0  0  0  0  0  0  0
    5.0117   -6.0022   -1.0032 H   0  0  0  0  0  0  0  0  0  0  0  0
    2.8036   -2.5009    1.0779 H   0  0  0  0  0  0  0  0  0  0  0  0
    4.4707   -1.0870   -3.2591 H   0  0  0  0  0  0  0  0  0  0  0  0
    4.5126    0.2742   -2.1742 H   0  0  0  0  0  0  0  0  0  0  0  0
    2.9568   -0.4281   -2.6302 H   0  0  0  0  0  0  0  0  0  0  0  0
    5.5020   -3.4749    0.0692 H   0  0  0  0  0  0  0  0  0  0  0  0
    5.6668   -1.8490    3.8575 H   0  0  0  0  0  0  0  0  0  0  0  0
    4.3871   -0.8019    3.2567 H   0  0  0  0  0  0  0  0  0  0  0  0
    5.8843   -1.0214    2.3356 H   0  0  0  0  0  0  0  0  0  0  0  0
  1  2  1  0
  1 24  1  0
  1 25  1  0
  1 26  1  0
  2  7  2  0
  2  3  1  0
  3  4  2  0
  3 27  1  0
  4  5  1  0
  4 28  1  0
  5 23  1  0
  5  6  2  0
  6  7  1  0
  6  8  1  0
  7 29  1  0
  8  9  1  0
  8 30  1  0
  9 23  1  0
  9 10  1  1
  9 11  1  0
 10 31  1  0
 10 32  1  0
 10 33  1  0
 11 12  1  0
 11 38  1  6
 11 17  1  0
 12 13  1  0
 12 19  1  0
 12 34  1  1
 13 14  2  0
 13 15  1  0
 15 17  1  0
 15 16  1  0
 16 35  1  0
 16 36  1  0
 16 37  1  0
 17 18  2  0
 19 20  1  0
 19 21  1  0
 20 39  1  0
 20 40  1  0
 20 41  1  0
 21 22  2  0
 21 23  1  0
M  END
>  <i_m_ct_stereo_status>  (180) 
1

>  <s_m_source_file>  (180) 
/var/tmp/pbs.5076255.sched01/tmpco4mv84g/486h_uxm9x.sdf

>  <i_m_source_file_index>  (180) 
31

>  <i_lp_mmshare_version>  (180) 
48012

>  <i_f3d_flags>  (180) 
0

>  <s_epik_input>  (180) 
W2NIXTFbY0hdYyhbQ0gzXSlbY0hdYyhbTkhdMiljMU4zQyg9TylOKFtDSDNdKWMoYzRbQ0BdMjNbQ0gzXSljKFtPSF0pbihbQ0gzXSljNFtPSF0=

>  <s_epik_cmdline>  (180) 
J2VwaWtfcHl0aG9uJywgJy1waHQnLCAnMi4wJywgJy1waCcsICc3LjAnLCAnLXRuJywgJzgnLCAnLW1hJywgJzIwMCcsICctaW1hZScsICc8aW5maWxlLm1hZT4nLCAnLW9tYWUnLCAnPG91dGZpbGUubWFlPic=

>  <r_lp_tautomer_probability>  (180) 
1

>  <r_epik_Ionization_Penalty>  (180) 
4.93364e-05

>  <r_epik_Ionization_Penalty_Charging>  (180) 
0

>  <r_epik_Ionization_Penalty_Neutral>  (180) 
4.93364e-05

>  <r_epik_State_Penalty>  (180) 
-0

>  <r_epik_Charging_Adjusted_Penalty>  (180) 
0

>  <i_epik_Tot_Q>  (180) 
0

>  <i_epik_Tot_abs_Q>  (180) 
0

>  <s_lp_Force_Field>  (180) 
OPLS3e

>  <r_lp_Energy>  (180) 
33.8614

>  <b_lp_Chiralities_Consistent>  (180) 
1

>  <s_lp_Variant>  (180) 
44:0-1

>  <s_i_glide_gridfile>  (180) 
pfpi4k_grid

>  <i_i_glide_lignum>  (180) 
31

>  <i_i_glide_rotatable_bonds>  (180) 
0

>  <r_i_docking_score>  (180) 
-3.62973

>  <r_i_glide_ligand_efficiency>  (180) 
-0.157815

>  <r_i_glide_ligand_efficiency_sa>  (180) 
-0.448804

>  <r_i_glide_ligand_efficiency_ln>  (180) 
-0.877703

>  <r_i_glide_gscore>  (180) 
-3.62973

>  <r_i_glide_lipo>  (180) 
-0.226562

>  <r_i_glide_hbond>  (180) 
-0.32

>  <r_i_glide_metal>  (180) 
-0

>  <r_i_glide_rewards>  (180) 
-1.33846

>  <r_i_glide_evdw>  (180) 
-25.5622

>  <r_i_glide_ecoul>  (180) 
-2.12108

>  <r_i_glide_erotb>  (180) 
0

>  <r_i_glide_esite>  (180) 
-0.148444

>  <r_i_glide_emodel>  (180) 
-33.9797

>  <r_i_glide_energy>  (180) 
-27.6832

>  <r_i_glide_einternal>  (180) 
0

>  <r_i_glide_intrahb_reward>  (180) 
-0

>  <i_i_glide_confnum>  (180) 
1

>  <i_i_glide_posenum>  (180) 
30

>  <r_i_glide_eff_state_penalty>  (180) 
0

>  <ligand_id>  (180) 
44

>  <original_smiles>  (180) 
Cc1ccc2c(c1)NC1(C)c3c(c(O)n(C)c3O)N(C)C(=O)N21

>  <smiles>  (180) 
[H]c1c([H])c(C([H])([H])[H])c([H])c2c1N1C(=O)N(C([H])([H])[H])C3([H])C(=O)N(C([H])([H])[H])C(=O)C3([H])C1(C([H])([H])[H])N2[H]

$$$$
44:0:2
     RDKit          3D

 41 44  0  0  1  0  0  0  0  0999 V2000
    3.2548   -0.8760   -3.2944 C   0  0  0  0  0  0  0  0  0  0  0  0
    3.8850   -1.6931   -2.1849 C   0  0  0  0  0  0  0  0  0  0  0  0
    5.2326   -1.4689   -1.8132 C   0  0  0  0  0  0  0  0  0  0  0  0
    5.8481   -2.2427   -0.8047 C   0  0  0  0  0  0  0  0  0  0  0  0
    5.0676   -3.2248   -0.1676 C   0  0  0  0  0  0  0  0  0  0  0  0
    3.7326   -3.4197   -0.4962 C   0  0  0  0  0  0  0  0  0  0  0  0
    3.1176   -2.6722   -1.5151 C   0  0  0  0  0  0  0  0  0  0  0  0
    3.1529   -4.4022    0.3024 N   0  0  0  0  0  0  0  0  0  0  0  0
    4.1015   -4.6157    1.4042 C   0  0  1  0  0  0  0  0  0  0  0  0
    3.6735   -3.7610    2.6172 C   0  0  0  0  0  0  0  0  0  0  0  0
    4.2469   -6.0892    1.8224 C   0  0  2  0  0  0  0  0  0  0  0  0
    5.2464   -6.7652    0.9173 C   0  0  2  0  0  0  0  0  0  0  0  0
    4.9307   -8.2345    1.2135 C   0  0  0  0  0  0  0  0  0  0  0  0
    5.7160   -9.1636    1.0231 O   0  0  0  0  0  0  0  0  0  0  0  0
    3.6448   -8.3263    1.6119 N   0  0  0  0  0  0  0  0  0  0  0  0
    2.9085   -9.5807    1.7581 C   0  0  0  0  0  0  0  0  0  0  0  0
    3.1144   -7.1128    1.8489 C   0  0  0  0  0  0  0  0  0  0  0  0
    1.9401   -6.8430    2.1081 O   0  0  0  0  0  0  0  0  0  0  0  0
    6.5449   -6.1088    1.1426 N   0  0  0  0  0  0  0  0  0  0  0  0
    7.7383   -6.9233    1.3935 C   0  0  0  0  0  0  0  0  0  0  0  0
    6.6059   -4.7649    0.9000 C   0  0  0  0  0  0  0  0  0  0  0  0
    7.6774   -4.1766    0.7290 O   0  0  0  0  0  0  0  0  0  0  0  0
    5.3994   -4.1115    0.8624 N   0  0  0  0  0  0  0  0  0  0  0  0
    3.9758   -0.2157   -3.7718 H   0  0  0  0  0  0  0  0  0  0  0  0
    2.4562   -0.2560   -2.8951 H   0  0  0  0  0  0  0  0  0  0  0  0
    2.8402   -1.5318   -4.0590 H   0  0  0  0  0  0  0  0  0  0  0  0
    5.8005   -0.7015   -2.3128 H   0  0  0  0  0  0  0  0  0  0  0  0
    6.8762   -2.0777   -0.5180 H   0  0  0  0  0  0  0  0  0  0  0  0
    2.0797   -2.8360   -1.7752 H   0  0  0  0  0  0  0  0  0  0  0  0
    2.1739   -4.3097    0.5280 H   0  0  0  0  0  0  0  0  0  0  0  0
    3.5673   -2.7116    2.3435 H   0  0  0  0  0  0  0  0  0  0  0  0
    4.4054   -3.8143    3.4239 H   0  0  0  0  0  0  0  0  0  0  0  0
    2.7149   -4.0951    3.0127 H   0  0  0  0  0  0  0  0  0  0  0  0
    4.9916   -6.6210   -0.1372 H   0  0  0  0  0  0  0  0  0  0  0  0
    2.1356   -9.4980    2.5221 H   0  0  0  0  0  0  0  0  0  0  0  0
    3.5697  -10.3972    2.0510 H   0  0  0  0  0  0  0  0  0  0  0  0
    2.4269   -9.8548    0.8198 H   0  0  0  0  0  0  0  0  0  0  0  0
    4.6486   -6.1112    2.8399 H   0  0  0  0  0  0  0  0  0  0  0  0
    8.6031   -6.3200    1.6736 H   0  0  0  0  0  0  0  0  0  0  0  0
    8.0041   -7.4837    0.4988 H   0  0  0  0  0  0  0  0  0  0  0  0
    7.5798   -7.6279    2.2101 H   0  0  0  0  0  0  0  0  0  0  0  0
  1  2  1  0
  1 24  1  0
  1 25  1  0
  1 26  1  0
  2  7  2  0
  2  3  1  0
  3  4  2  0
  3 27  1  0
  4  5  1  0
  4 28  1  0
  5 23  1  0
  5  6  2  0
  6  7  1  0
  6  8  1  0
  7 29  1  0
  8  9  1  0
  8 30  1  0
  9 23  1  0
  9 10  1  1
  9 11  1  0
 10 31  1  0
 10 32  1  0
 10 33  1  0
 11 12  1  0
 11 38  1  1
 11 17  1  0
 12 13  1  0
 12 19  1  0
 12 34  1  6
 13 14  2  0
 13 15  1  0
 15 17  1  0
 15 16  1  0
 16 35  1  0
 16 36  1  0
 16 37  1  0
 17 18  2  0
 19 20  1  0
 19 21  1  0
 20 39  1  0
 20 40  1  0
 20 41  1  0
 21 22  2  0
 21 23  1  0
M  END
>  <i_m_ct_stereo_status>  (181) 
1

>  <s_m_source_file>  (181) 
/var/tmp/pbs.5076255.sched01/tmpco4mv84g/486h_uxm9x.sdf

>  <i_m_source_file_index>  (181) 
31

>  <i_lp_mmshare_version>  (181) 
48012

>  <i_f3d_flags>  (181) 
0

>  <s_epik_input>  (181) 
W2NIXTFbY0hdYyhbQ0gzXSlbY0hdYyhbTkhdMiljMU4zQyg9TylOKFtDSDNdKWMoYzRbQ0BdMjNbQ0gzXSljKFtPSF0pbihbQ0gzXSljNFtPSF0=

>  <s_epik_cmdline>  (181) 
J2VwaWtfcHl0aG9uJywgJy1waHQnLCAnMi4wJywgJy1waCcsICc3LjAnLCAnLXRuJywgJzgnLCAnLW1hJywgJzIwMCcsICctaW1hZScsICc8aW5maWxlLm1hZT4nLCAnLW9tYWUnLCAnPG91dGZpbGUubWFlPic=

>  <r_lp_tautomer_probability>  (181) 
1

>  <r_epik_Ionization_Penalty>  (181) 
4.93364e-05

>  <r_epik_Ionization_Penalty_Charging>  (181) 
0

>  <r_epik_Ionization_Penalty_Neutral>  (181) 
4.93364e-05

>  <r_epik_State_Penalty>  (181) 
-0

>  <r_epik_Charging_Adjusted_Penalty>  (181) 
0

>  <i_epik_Tot_Q>  (181) 
0

>  <i_epik_Tot_abs_Q>  (181) 
0

>  <s_lp_Force_Field>  (181) 
OPLS3e

>  <r_lp_Energy>  (181) 
33.8614

>  <b_lp_Chiralities_Consistent>  (181) 
1

>  <s_lp_Variant>  (181) 
44:0-1

>  <s_i_glide_gridfile>  (181) 
pfpi4k_grid

>  <i_i_glide_lignum>  (181) 
31

>  <i_i_glide_rotatable_bonds>  (181) 
0

>  <r_i_docking_score>  (181) 
-3.57856

>  <r_i_glide_ligand_efficiency>  (181) 
-0.155589

>  <r_i_glide_ligand_efficiency_sa>  (181) 
-0.442476

>  <r_i_glide_ligand_efficiency_ln>  (181) 
-0.865328

>  <r_i_glide_gscore>  (181) 
-3.57856

>  <r_i_glide_lipo>  (181) 
-0.307807

>  <r_i_glide_hbond>  (181) 
0

>  <r_i_glide_metal>  (181) 
-0

>  <r_i_glide_rewards>  (181) 
-1.72132

>  <r_i_glide_evdw>  (181) 
-29.1575

>  <r_i_glide_ecoul>  (181) 
-0.406906

>  <r_i_glide_erotb>  (181) 
0

>  <r_i_glide_esite>  (181) 
-0.0305203

>  <r_i_glide_emodel>  (181) 
-35.8317

>  <r_i_glide_energy>  (181) 
-29.5644

>  <r_i_glide_einternal>  (181) 
0

>  <r_i_glide_intrahb_reward>  (181) 
-0

>  <i_i_glide_confnum>  (181) 
1

>  <i_i_glide_posenum>  (181) 
1

>  <r_i_glide_eff_state_penalty>  (181) 
0

>  <ligand_id>  (181) 
44

>  <original_smiles>  (181) 
Cc1ccc2c(c1)NC1(C)c3c(c(O)n(C)c3O)N(C)C(=O)N21

>  <smiles>  (181) 
[H]c1c([H])c(C([H])([H])[H])c([H])c2c1N1C(=O)N(C([H])([H])[H])C3([H])C(=O)N(C([H])([H])[H])C(=O)C3([H])C1(C([H])([H])[H])N2[H]

$$$$
44:1:0
     RDKit          3D

 41 44  0  0  1  0  0  0  0  0999 V2000
    2.8828    1.7522    3.4948 C   0  0  0  0  0  0  0  0  0  0  0  0
    3.1118    0.3425    2.9855 C   0  0  0  0  0  0  0  0  0  0  0  0
    3.1905   -0.7424    3.8913 C   0  0  0  0  0  0  0  0  0  0  0  0
    3.3648   -2.0659    3.4302 C   0  0  0  0  0  0  0  0  0  0  0  0
    3.4621   -2.2717    2.0390 C   0  0  0  0  0  0  0  0  0  0  0  0
    3.4456   -1.2047    1.1526 C   0  0  0  0  0  0  0  0  0  0  0  0
    3.2589    0.1158    1.5982 C   0  0  0  0  0  0  0  0  0  0  0  0
    3.6496   -1.6287   -0.1551 N   0  0  0  0  0  0  0  0  0  0  0  0
    3.7157   -3.0985   -0.1383 C   0  0  1  0  0  0  0  0  0  0  0  0
    2.4772   -3.6416   -0.8892 C   0  0  0  0  0  0  0  0  0  0  0  0
    5.0246   -3.7014   -0.7248 C   0  0  2  0  0  0  0  0  0  0  0  0
    5.3034   -5.1142   -0.1339 C   0  0  1  0  0  0  0  0  0  0  0  0
    6.6961   -4.9576    0.4857 C   0  0  0  0  0  0  0  0  0  0  0  0
    7.2817   -5.8792    1.0644 O   0  0  0  0  0  0  0  0  0  0  0  0
    7.1878   -3.7317    0.2836 N   0  0  0  0  0  0  0  0  0  0  0  0
    8.5367   -3.3197    0.6757 C   0  0  0  0  0  0  0  0  0  0  0  0
    6.3285   -2.9545   -0.3825 C   0  0  0  0  0  0  0  0  0  0  0  0
    6.5548   -1.8009   -0.7492 O   0  0  0  0  0  0  0  0  0  0  0  0
    4.3392   -5.5618    0.8976 N   0  0  0  0  0  0  0  0  0  0  0  0
    4.2018   -7.0145    1.0164 C   0  0  0  0  0  0  0  0  0  0  0  0
    3.7332   -4.7102    1.7651 C   0  0  0  0  0  0  0  0  0  0  0  0
    3.2632   -5.0714    2.8431 O   0  0  0  0  0  0  0  0  0  0  0  0
    3.6300   -3.4448    1.2923 N   0  0  0  0  0  0  0  0  0  0  0  0
    2.5963    1.7562    4.5442 H   0  0  0  0  0  0  0  0  0  0  0  0
    2.0989    2.2503    2.9247 H   0  0  0  0  0  0  0  0  0  0  0  0
    3.7935    2.3362    3.4108 H   0  0  0  0  0  0  0  0  0  0  0  0
    3.1078   -0.5585    4.9519 H   0  0  0  0  0  0  0  0  0  0  0  0
    3.4293   -2.8888    4.1289 H   0  0  0  0  0  0  0  0  0  0  0  0
    3.2069    0.9294    0.8898 H   0  0  0  0  0  0  0  0  0  0  0  0
    4.1895   -1.0692   -0.8026 H   0  0  0  0  0  0  0  0  0  0  0  0
    1.5621   -3.2785   -0.4291 H   0  0  0  0  0  0  0  0  0  0  0  0
    2.4251   -4.7299   -0.8828 H   0  0  0  0  0  0  0  0  0  0  0  0
    2.4612   -3.3094   -1.9288 H   0  0  0  0  0  0  0  0  0  0  0  0
    5.3453   -5.8443   -0.9466 H   0  0  0  0  0  0  0  0  0  0  0  0
    8.5809   -2.2501    0.8782 H   0  0  0  0  0  0  0  0  0  0  0  0
    9.2557   -3.5298   -0.1139 H   0  0  0  0  0  0  0  0  0  0  0  0
    8.8663   -3.8444    1.5735 H   0  0  0  0  0  0  0  0  0  0  0  0
    4.9571   -3.7437   -1.8149 H   0  0  0  0  0  0  0  0  0  0  0  0
    3.3610   -7.3076    1.6440 H   0  0  0  0  0  0  0  0  0  0  0  0
    5.1052   -7.4549    1.4333 H   0  0  0  0  0  0  0  0  0  0  0  0
    4.0350   -7.4667    0.0419 H   0  0  0  0  0  0  0  0  0  0  0  0
  1  2  1  0
  1 24  1  0
  1 25  1  0
  1 26  1  0
  2  7  2  0
  2  3  1  0
  3  4  2  0
  3 27  1  0
  4  5  1  0
  4 28  1  0
  5 23  1  0
  5  6  2  0
  6  7  1  0
  6  8  1  0
  7 29  1  0
  8  9  1  0
  8 30  1  0
  9 23  1  0
  9 10  1  6
  9 11  1  0
 10 31  1  0
 10 32  1  0
 10 33  1  0
 11 12  1  0
 11 38  1  6
 11 17  1  0
 12 13  1  0
 12 19  1  0
 12 34  1  6
 13 14  2  0
 13 15  1  0
 15 17  1  0
 15 16  1  0
 16 35  1  0
 16 36  1  0
 16 37  1  0
 17 18  2  0
 19 20  1  0
 19 21  1  0
 20 39  1  0
 20 40  1  0
 20 41  1  0
 21 22  2  0
 21 23  1  0
M  END
>  <i_m_ct_stereo_status>  (182) 
1

>  <s_m_source_file>  (182) 
/var/tmp/pbs.5076255.sched01/tmpco4mv84g/486h_uxm9x.sdf

>  <i_m_source_file_index>  (182) 
32

>  <i_lp_mmshare_version>  (182) 
48012

>  <i_f3d_flags>  (182) 
0

>  <s_epik_input>  (182) 
W2NIXTFbY0hdYyhbQ0gzXSlbY0hdYyhbTkhdMiljMU4zQyg9TylOKFtDSDNdKWMoYzRbQ0BdMjNbQ0gzXSljKFtPSF0pbihbQ0gzXSljNFtPSF0=

>  <s_epik_cmdline>  (182) 
J2VwaWtfcHl0aG9uJywgJy1waHQnLCAnMi4wJywgJy1waCcsICc3LjAnLCAnLXRuJywgJzgnLCAnLW1hJywgJzIwMCcsICctaW1hZScsICc8aW5maWxlLm1hZT4nLCAnLW9tYWUnLCAnPG91dGZpbGUubWFlPic=

>  <r_lp_tautomer_probability>  (182) 
1

>  <r_epik_Ionization_Penalty>  (182) 
4.93364e-05

>  <r_epik_Ionization_Penalty_Charging>  (182) 
0

>  <r_epik_Ionization_Penalty_Neutral>  (182) 
4.93364e-05

>  <r_epik_State_Penalty>  (182) 
-0

>  <r_epik_Charging_Adjusted_Penalty>  (182) 
0

>  <i_epik_Tot_Q>  (182) 
0

>  <i_epik_Tot_abs_Q>  (182) 
0

>  <s_lp_Force_Field>  (182) 
OPLS3e

>  <r_lp_Energy>  (182) 
21.0426

>  <b_lp_Chiralities_Consistent>  (182) 
1

>  <s_lp_Variant>  (182) 
44:0-2

>  <s_i_glide_gridfile>  (182) 
pfpi4k_grid

>  <i_i_glide_lignum>  (182) 
32

>  <i_i_glide_rotatable_bonds>  (182) 
0

>  <r_i_docking_score>  (182) 
-3.68421

>  <r_i_glide_ligand_efficiency>  (182) 
-0.160183

>  <r_i_glide_ligand_efficiency_sa>  (182) 
-0.455539

>  <r_i_glide_ligand_efficiency_ln>  (182) 
-0.890874

>  <r_i_glide_gscore>  (182) 
-3.68421

>  <r_i_glide_lipo>  (182) 
-0.398947

>  <r_i_glide_hbond>  (182) 
-0.154665

>  <r_i_glide_metal>  (182) 
-0

>  <r_i_glide_rewards>  (182) 
-1.76702

>  <r_i_glide_evdw>  (182) 
-21.8543

>  <r_i_glide_ecoul>  (182) 
-1.32764

>  <r_i_glide_erotb>  (182) 
0

>  <r_i_glide_esite>  (182) 
-0.0717101

>  <r_i_glide_emodel>  (182) 
-29.5907

>  <r_i_glide_energy>  (182) 
-23.182

>  <r_i_glide_einternal>  (182) 
0

>  <r_i_glide_intrahb_reward>  (182) 
-0

>  <i_i_glide_confnum>  (182) 
2

>  <i_i_glide_posenum>  (182) 
13

>  <r_i_glide_eff_state_penalty>  (182) 
0

>  <ligand_id>  (182) 
44

>  <original_smiles>  (182) 
Cc1ccc2c(c1)NC1(C)c3c(c(O)n(C)c3O)N(C)C(=O)N21

>  <smiles>  (182) 
[H]c1c([H])c(C([H])([H])[H])c([H])c2c1N1C(=O)N(C([H])([H])[H])C3([H])C(=O)N(C([H])([H])[H])C(=O)C3([H])C1(C([H])([H])[H])N2[H]

$$$$
44:1:1
     RDKit          3D

 41 44  0  0  1  0  0  0  0  0999 V2000
    2.3828    1.6254    3.0607 C   0  0  0  0  0  0  0  0  0  0  0  0
    2.9719    0.2429    2.8528 C   0  0  0  0  0  0  0  0  0  0  0  0
    3.5712   -0.4509    3.9320 C   0  0  0  0  0  0  0  0  0  0  0  0
    4.0945   -1.7531    3.7573 C   0  0  0  0  0  0  0  0  0  0  0  0
    4.0021   -2.3359    2.4761 C   0  0  0  0  0  0  0  0  0  0  0  0
    3.4581   -1.6399    1.4085 C   0  0  0  0  0  0  0  0  0  0  0  0
    2.9271   -0.3495    1.5707 C   0  0  0  0  0  0  0  0  0  0  0  0
    3.5293   -2.3755    0.2295 N   0  0  0  0  0  0  0  0  0  0  0  0
    4.1135   -3.6845    0.5645 C   0  0  1  0  0  0  0  0  0  0  0  0
    3.0226   -4.7573    0.3238 C   0  0  0  0  0  0  0  0  0  0  0  0
    5.4248   -4.0439   -0.2022 C   0  0  2  0  0  0  0  0  0  0  0  0
    6.2645   -5.0886    0.5919 C   0  0  1  0  0  0  0  0  0  0  0  0
    7.6220   -4.3903    0.7406 C   0  0  0  0  0  0  0  0  0  0  0  0
    8.5829   -4.8992    1.3193 O   0  0  0  0  0  0  0  0  0  0  0  0
    7.6174   -3.1840    0.1655 N   0  0  0  0  0  0  0  0  0  0  0  0
    8.7897   -2.3104    0.1057 C   0  0  0  0  0  0  0  0  0  0  0  0
    6.4386   -2.8963   -0.3980 C   0  0  0  0  0  0  0  0  0  0  0  0
    6.1956   -1.8735   -1.0459 O   0  0  0  0  0  0  0  0  0  0  0  0
    5.7172   -5.4448    1.9249 N   0  0  0  0  0  0  0  0  0  0  0  0
    6.0906   -6.7788    2.4059 C   0  0  0  0  0  0  0  0  0  0  0  0
    5.0308   -4.5696    2.7052 C   0  0  0  0  0  0  0  0  0  0  0  0
    4.9207   -4.7011    3.9255 O   0  0  0  0  0  0  0  0  0  0  0  0
    4.4175   -3.5863    2.0051 N   0  0  0  0  0  0  0  0  0  0  0  0
    2.3023    1.8693    4.1180 H   0  0  0  0  0  0  0  0  0  0  0  0
    1.3867    1.6924    2.6237 H   0  0  0  0  0  0  0  0  0  0  0  0
    3.0116    2.3774    2.5896 H   0  0  0  0  0  0  0  0  0  0  0  0
    3.6207    0.0114    4.9058 H   0  0  0  0  0  0  0  0  0  0  0  0
    4.5521   -2.2756    4.5854 H   0  0  0  0  0  0  0  0  0  0  0  0
    2.4639    0.1589    0.7354 H   0  0  0  0  0  0  0  0  0  0  0  0
    3.7482   -1.9067   -0.6409 H   0  0  0  0  0  0  0  0  0  0  0  0
    2.1437   -4.5537    0.9342 H   0  0  0  0  0  0  0  0  0  0  0  0
    3.3578   -5.7696    0.5562 H   0  0  0  0  0  0  0  0  0  0  0  0
    2.7038   -4.7468   -0.7168 H   0  0  0  0  0  0  0  0  0  0  0  0
    6.4031   -5.9894   -0.0030 H   0  0  0  0  0  0  0  0  0  0  0  0
    8.5127   -1.2582    0.0635 H   0  0  0  0  0  0  0  0  0  0  0  0
    9.3899   -2.5488   -0.7654 H   0  0  0  0  0  0  0  0  0  0  0  0
    9.4430   -2.4331    0.9656 H   0  0  0  0  0  0  0  0  0  0  0  0
    5.1782   -4.4294   -1.1949 H   0  0  0  0  0  0  0  0  0  0  0  0
    5.5283   -7.0801    3.2896 H   0  0  0  0  0  0  0  0  0  0  0  0
    7.1495   -6.8104    2.6571 H   0  0  0  0  0  0  0  0  0  0  0  0
    5.9005   -7.5360    1.6444 H   0  0  0  0  0  0  0  0  0  0  0  0
  1  2  1  0
  1 24  1  0
  1 25  1  0
  1 26  1  0
  2  7  2  0
  2  3  1  0
  3  4  2  0
  3 27  1  0
  4  5  1  0
  4 28  1  0
  5 23  1  0
  5  6  2  0
  6  7  1  0
  6  8  1  0
  7 29  1  0
  8  9  1  0
  8 30  1  0
  9 23  1  0
  9 10  1  1
  9 11  1  0
 10 31  1  0
 10 32  1  0
 10 33  1  0
 11 12  1  0
 11 38  1  6
 11 17  1  0
 12 13  1  0
 12 19  1  0
 12 34  1  6
 13 14  2  0
 13 15  1  0
 15 17  1  0
 15 16  1  0
 16 35  1  0
 16 36  1  0
 16 37  1  0
 17 18  2  0
 19 20  1  0
 19 21  1  0
 20 39  1  0
 20 40  1  0
 20 41  1  0
 21 22  2  0
 21 23  1  0
M  END
>  <i_m_ct_stereo_status>  (183) 
1

>  <s_m_source_file>  (183) 
/var/tmp/pbs.5076255.sched01/tmpco4mv84g/486h_uxm9x.sdf

>  <i_m_source_file_index>  (183) 
32

>  <i_lp_mmshare_version>  (183) 
48012

>  <i_f3d_flags>  (183) 
0

>  <s_epik_input>  (183) 
W2NIXTFbY0hdYyhbQ0gzXSlbY0hdYyhbTkhdMiljMU4zQyg9TylOKFtDSDNdKWMoYzRbQ0BdMjNbQ0gzXSljKFtPSF0pbihbQ0gzXSljNFtPSF0=

>  <s_epik_cmdline>  (183) 
J2VwaWtfcHl0aG9uJywgJy1waHQnLCAnMi4wJywgJy1waCcsICc3LjAnLCAnLXRuJywgJzgnLCAnLW1hJywgJzIwMCcsICctaW1hZScsICc8aW5maWxlLm1hZT4nLCAnLW9tYWUnLCAnPG91dGZpbGUubWFlPic=

>  <r_lp_tautomer_probability>  (183) 
1

>  <r_epik_Ionization_Penalty>  (183) 
4.93364e-05

>  <r_epik_Ionization_Penalty_Charging>  (183) 
0

>  <r_epik_Ionization_Penalty_Neutral>  (183) 
4.93364e-05

>  <r_epik_State_Penalty>  (183) 
-0

>  <r_epik_Charging_Adjusted_Penalty>  (183) 
0

>  <i_epik_Tot_Q>  (183) 
0

>  <i_epik_Tot_abs_Q>  (183) 
0

>  <s_lp_Force_Field>  (183) 
OPLS3e

>  <r_lp_Energy>  (183) 
21.0426

>  <b_lp_Chiralities_Consistent>  (183) 
1

>  <s_lp_Variant>  (183) 
44:0-2

>  <s_i_glide_gridfile>  (183) 
pfpi4k_grid

>  <i_i_glide_lignum>  (183) 
32

>  <i_i_glide_rotatable_bonds>  (183) 
0

>  <r_i_docking_score>  (183) 
-3.61178

>  <r_i_glide_ligand_efficiency>  (183) 
-0.157034

>  <r_i_glide_ligand_efficiency_sa>  (183) 
-0.446584

>  <r_i_glide_ligand_efficiency_ln>  (183) 
-0.873362

>  <r_i_glide_gscore>  (183) 
-3.61178

>  <r_i_glide_lipo>  (183) 
-0.21562

>  <r_i_glide_hbond>  (183) 
-0.119905

>  <r_i_glide_metal>  (183) 
-0

>  <r_i_glide_rewards>  (183) 
-1.88857

>  <r_i_glide_evdw>  (183) 
-23.697

>  <r_i_glide_ecoul>  (183) 
-1.11169

>  <r_i_glide_erotb>  (183) 
0

>  <r_i_glide_esite>  (183) 
-0.0360821

>  <r_i_glide_emodel>  (183) 
-31.1128

>  <r_i_glide_energy>  (183) 
-24.8087

>  <r_i_glide_einternal>  (183) 
0

>  <r_i_glide_intrahb_reward>  (183) 
-0

>  <i_i_glide_confnum>  (183) 
1

>  <i_i_glide_posenum>  (183) 
23

>  <r_i_glide_eff_state_penalty>  (183) 
0

>  <ligand_id>  (183) 
44

>  <original_smiles>  (183) 
Cc1ccc2c(c1)NC1(C)c3c(c(O)n(C)c3O)N(C)C(=O)N21

>  <smiles>  (183) 
[H]c1c([H])c(C([H])([H])[H])c([H])c2c1N1C(=O)N(C([H])([H])[H])C3([H])C(=O)N(C([H])([H])[H])C(=O)C3([H])C1(C([H])([H])[H])N2[H]

$$$$
44:1:2
     RDKit          3D

 41 44  0  0  1  0  0  0  0  0999 V2000
    3.5816   -0.4174   -4.7081 C   0  0  0  0  0  0  0  0  0  0  0  0
    3.5371   -1.1796   -3.4010 C   0  0  0  0  0  0  0  0  0  0  0  0
    2.6639   -2.2807   -3.2369 C   0  0  0  0  0  0  0  0  0  0  0  0
    2.6306   -3.0075   -2.0235 C   0  0  0  0  0  0  0  0  0  0  0  0
    3.4947   -2.5957   -0.9851 C   0  0  0  0  0  0  0  0  0  0  0  0
    4.3249   -1.4945   -1.1339 C   0  0  0  0  0  0  0  0  0  0  0  0
    4.3640   -0.7691   -2.3342 C   0  0  0  0  0  0  0  0  0  0  0  0
    5.0542   -1.2245    0.0200 N   0  0  0  0  0  0  0  0  0  0  0  0
    4.6931   -2.2726    0.9974 C   0  0  1  0  0  0  0  0  0  0  0  0
    5.9649   -3.1161    1.2640 C   0  0  0  0  0  0  0  0  0  0  0  0
    4.0857   -1.7592    2.3424 C   0  0  2  0  0  0  0  0  0  0  0  0
    3.2289   -2.8609    3.0345 C   0  0  1  0  0  0  0  0  0  0  0  0
    1.8677   -2.1741    3.2080 C   0  0  0  0  0  0  0  0  0  0  0  0
    0.8904   -2.7376    3.7070 O   0  0  0  0  0  0  0  0  0  0  0  0
    1.8906   -0.9196    2.7400 N   0  0  0  0  0  0  0  0  0  0  0  0
    0.7566    0.0053    2.8298 C   0  0  0  0  0  0  0  0  0  0  0  0
    3.0835   -0.5947    2.2259 C   0  0  0  0  0  0  0  0  0  0  0  0
    3.3931    0.5081    1.7692 O   0  0  0  0  0  0  0  0  0  0  0  0
    3.0725   -4.1073    2.2466 N   0  0  0  0  0  0  0  0  0  0  0  0
    2.8245   -5.3127    3.0435 C   0  0  0  0  0  0  0  0  0  0  0  0
    3.0173   -4.1266    0.8898 C   0  0  0  0  0  0  0  0  0  0  0  0
    2.4656   -5.0345    0.2649 O   0  0  0  0  0  0  0  0  0  0  0  0
    3.6789   -3.0969    0.3050 N   0  0  0  0  0  0  0  0  0  0  0  0
    3.0540   -0.9407   -5.4942 H   0  0  0  0  0  0  0  0  0  0  0  0
    4.6093   -0.2904   -5.0370 H   0  0  0  0  0  0  0  0  0  0  0  0
    3.1279    0.5654   -4.5997 H   0  0  0  0  0  0  0  0  0  0  0  0
    2.0026   -2.5671   -4.0389 H   0  0  0  0  0  0  0  0  0  0  0  0
    1.9423   -3.8317   -1.9009 H   0  0  0  0  0  0  0  0  0  0  0  0
    5.0237    0.0822   -2.4378 H   0  0  0  0  0  0  0  0  0  0  0  0
    5.1186   -0.2553    0.3157 H   0  0  0  0  0  0  0  0  0  0  0  0
    6.3319   -3.5506    0.3331 H   0  0  0  0  0  0  0  0  0  0  0  0
    5.7939   -3.9352    1.9663 H   0  0  0  0  0  0  0  0  0  0  0  0
    6.7566   -2.4892    1.6701 H   0  0  0  0  0  0  0  0  0  0  0  0
    3.6277   -3.0891    4.0241 H   0  0  0  0  0  0  0  0  0  0  0  0
    0.7623    0.7457    2.0300 H   0  0  0  0  0  0  0  0  0  0  0  0
    0.7580    0.5358    3.7814 H   0  0  0  0  0  0  0  0  0  0  0  0
   -0.1858   -0.5257    2.7660 H   0  0  0  0  0  0  0  0  0  0  0  0
    4.8840   -1.4231    3.0093 H   0  0  0  0  0  0  0  0  0  0  0  0
    2.9086   -6.2281    2.4590 H   0  0  0  0  0  0  0  0  0  0  0  0
    1.8298   -5.2870    3.4843 H   0  0  0  0  0  0  0  0  0  0  0  0
    3.5518   -5.3951    3.8510 H   0  0  0  0  0  0  0  0  0  0  0  0
  1  2  1  0
  1 24  1  0
  1 25  1  0
  1 26  1  0
  2  7  2  0
  2  3  1  0
  3  4  2  0
  3 27  1  0
  4  5  1  0
  4 28  1  0
  5 23  1  0
  5  6  2  0
  6  7  1  0
  6  8  1  0
  7 29  1  0
  8  9  1  0
  8 30  1  0
  9 23  1  0
  9 10  1  1
  9 11  1  0
 10 31  1  0
 10 32  1  0
 10 33  1  0
 11 12  1  0
 11 38  1  1
 11 17  1  0
 12 13  1  0
 12 19  1  0
 12 34  1  1
 13 14  2  0
 13 15  1  0
 15 17  1  0
 15 16  1  0
 16 35  1  0
 16 36  1  0
 16 37  1  0
 17 18  2  0
 19 20  1  0
 19 21  1  0
 20 39  1  0
 20 40  1  0
 20 41  1  0
 21 22  2  0
 21 23  1  0
M  END
>  <i_m_ct_stereo_status>  (184) 
1

>  <s_m_source_file>  (184) 
/var/tmp/pbs.5076255.sched01/tmpco4mv84g/486h_uxm9x.sdf

>  <i_m_source_file_index>  (184) 
32

>  <i_lp_mmshare_version>  (184) 
48012

>  <i_f3d_flags>  (184) 
0

>  <s_epik_input>  (184) 
W2NIXTFbY0hdYyhbQ0gzXSlbY0hdYyhbTkhdMiljMU4zQyg9TylOKFtDSDNdKWMoYzRbQ0BdMjNbQ0gzXSljKFtPSF0pbihbQ0gzXSljNFtPSF0=

>  <s_epik_cmdline>  (184) 
J2VwaWtfcHl0aG9uJywgJy1waHQnLCAnMi4wJywgJy1waCcsICc3LjAnLCAnLXRuJywgJzgnLCAnLW1hJywgJzIwMCcsICctaW1hZScsICc8aW5maWxlLm1hZT4nLCAnLW9tYWUnLCAnPG91dGZpbGUubWFlPic=

>  <r_lp_tautomer_probability>  (184) 
1

>  <r_epik_Ionization_Penalty>  (184) 
4.93364e-05

>  <r_epik_Ionization_Penalty_Charging>  (184) 
0

>  <r_epik_Ionization_Penalty_Neutral>  (184) 
4.93364e-05

>  <r_epik_State_Penalty>  (184) 
-0

>  <r_epik_Charging_Adjusted_Penalty>  (184) 
0

>  <i_epik_Tot_Q>  (184) 
0

>  <i_epik_Tot_abs_Q>  (184) 
0

>  <s_lp_Force_Field>  (184) 
OPLS3e

>  <r_lp_Energy>  (184) 
21.0426

>  <b_lp_Chiralities_Consistent>  (184) 
1

>  <s_lp_Variant>  (184) 
44:0-2

>  <s_i_glide_gridfile>  (184) 
pfpi4k_grid

>  <i_i_glide_lignum>  (184) 
32

>  <i_i_glide_rotatable_bonds>  (184) 
0

>  <r_i_docking_score>  (184) 
-3.40235

>  <r_i_glide_ligand_efficiency>  (184) 
-0.147928

>  <r_i_glide_ligand_efficiency_sa>  (184) 
-0.420689

>  <r_i_glide_ligand_efficiency_ln>  (184) 
-0.82272

>  <r_i_glide_gscore>  (184) 
-3.40235

>  <r_i_glide_lipo>  (184) 
-0.626719

>  <r_i_glide_hbond>  (184) 
0

>  <r_i_glide_metal>  (184) 
-0

>  <r_i_glide_rewards>  (184) 
-1.29194

>  <r_i_glide_evdw>  (184) 
-28.1379

>  <r_i_glide_ecoul>  (184) 
-0.190546

>  <r_i_glide_erotb>  (184) 
0

>  <r_i_glide_esite>  (184) 
-0.0482132

>  <r_i_glide_emodel>  (184) 
-34.2583

>  <r_i_glide_energy>  (184) 
-28.3284

>  <r_i_glide_einternal>  (184) 
0

>  <r_i_glide_intrahb_reward>  (184) 
-0

>  <i_i_glide_confnum>  (184) 
1

>  <i_i_glide_posenum>  (184) 
36

>  <r_i_glide_eff_state_penalty>  (184) 
0

>  <ligand_id>  (184) 
44

>  <original_smiles>  (184) 
Cc1ccc2c(c1)NC1(C)c3c(c(O)n(C)c3O)N(C)C(=O)N21

>  <smiles>  (184) 
[H]c1c([H])c(C([H])([H])[H])c([H])c2c1N1C(=O)N(C([H])([H])[H])C3([H])C(=O)N(C([H])([H])[H])C(=O)C3([H])C1(C([H])([H])[H])N2[H]

$$$$
45:0:0
     RDKit          3D

 75 78  0  0  1  0  0  0  0  0999 V2000
   -1.1836   -8.6735    3.5011 C   0  0  0  0  0  0  0  0  0  0  0  0
   -0.0122   -8.3984    4.0783 C   0  0  0  0  0  0  0  0  0  0  0  0
    0.1042   -7.2210    5.0279 C   0  0  0  0  0  0  0  0  0  0  0  0
    0.5632   -5.9214    4.3474 C   0  0  0  0  0  0  0  0  0  0  0  0
    0.8501   -4.8132    5.3814 C   0  0  2  0  0  0  0  0  0  0  0  0
   -0.2493   -4.7349    6.4894 C   0  0  0  0  0  0  0  0  0  0  0  0
    1.1738   -3.4333    4.6946 C   0  0  2  0  0  0  0  0  0  0  0  0
    2.3813   -3.4494    3.6800 C   0  0  0  0  0  0  0  0  0  0  0  0
    3.1709   -2.1323    3.8834 C   0  0  0  0  0  0  0  0  0  0  0  0
    2.1738   -1.2621    4.6903 C   0  0  2  0  0  0  0  0  0  0  0  0
    2.7083   -0.0444    5.4793 C   0  0  1  0  0  0  0  0  0  0  0  0
    3.5454    0.9600    4.6643 C   0  0  0  0  0  0  0  0  0  0  0  0
    2.6727    1.9351    3.8879 C   0  0  0  0  0  0  0  0  0  0  0  0
    1.3781    2.1657    4.1125 C   0  0  0  0  0  0  0  0  0  0  0  0
    0.6072    3.1491    3.2623 C   0  0  0  0  0  0  0  0  0  0  0  0
   -0.1363    4.1962    4.1367 C   0  0  1  0  0  0  0  0  0  0  0  0
   -0.9927    4.9721    3.3683 O   0  0  0  0  0  0  0  0  0  0  0  0
   -0.9925    3.5690    5.2534 C   0  0  0  0  0  0  0  0  0  0  0  0
   -0.1160    2.6253    6.0931 C   0  0  0  0  0  0  0  0  0  0  0  0
    0.5337    1.5011    5.2328 C   0  0  1  0  0  0  0  0  0  0  0  0
   -0.5986    0.6796    4.5759 C   0  0  0  0  0  0  0  0  0  0  0  0
    1.4805    0.6451    6.1817 C   0  0  1  0  0  0  0  0  0  0  0  0
    0.6829   -0.3450    7.0734 C   0  0  0  0  0  0  0  0  0  0  0  0
    0.2451   -1.6104    6.3375 C   0  0  0  0  0  0  0  0  0  0  0  0
    1.4964   -2.2795    5.6757 C   0  0  1  0  0  0  0  0  0  0  0  0
    2.5129   -2.8067    6.7673 C   0  0  0  0  0  0  0  0  0  0  0  0
    1.2848   -9.1899    3.8565 C   0  0  0  0  0  0  0  0  0  0  0  0
    1.1893  -10.2022    2.7028 C   0  0  0  0  0  0  0  0  0  0  0  0
    1.7565   -9.8949    5.1413 C   0  0  0  0  0  0  0  0  0  0  0  0
   -2.0577   -8.0615    3.7083 H   0  0  0  0  0  0  0  0  0  0  0  0
   -1.3262   -9.5009    2.8127 H   0  0  0  0  0  0  0  0  0  0  0  0
   -0.8993   -7.0946    5.4392 H   0  0  0  0  0  0  0  0  0  0  0  0
    0.7537   -7.4573    5.8725 H   0  0  0  0  0  0  0  0  0  0  0  0
    1.4621   -6.1225    3.7551 H   0  0  0  0  0  0  0  0  0  0  0  0
   -0.1881   -5.5963    3.6369 H   0  0  0  0  0  0  0  0  0  0  0  0
    1.7650   -5.1770    5.8566 H   0  0  0  0  0  0  0  0  0  0  0  0
   -1.1551   -4.2935    6.0913 H   0  0  0  0  0  0  0  0  0  0  0  0
    0.0805   -4.1273    7.3230 H   0  0  0  0  0  0  0  0  0  0  0  0
   -0.4972   -5.7006    6.9361 H   0  0  0  0  0  0  0  0  0  0  0  0
    0.2947   -3.1368    4.1075 H   0  0  0  0  0  0  0  0  0  0  0  0
    3.0239   -4.3134    3.8774 H   0  0  0  0  0  0  0  0  0  0  0  0
    2.0116   -3.5557    2.6449 H   0  0  0  0  0  0  0  0  0  0  0  0
    4.1099   -2.3283    4.4069 H   0  0  0  0  0  0  0  0  0  0  0  0
    3.4413   -1.6857    2.9258 H   0  0  0  0  0  0  0  0  0  0  0  0
    1.4931   -0.8897    3.9382 H   0  0  0  0  0  0  0  0  0  0  0  0
    3.4227   -0.3631    6.2342 H   0  0  0  0  0  0  0  0  0  0  0  0
    4.1773    1.5433    5.3434 H   0  0  0  0  0  0  0  0  0  0  0  0
    4.2326    0.4304    3.9999 H   0  0  0  0  0  0  0  0  0  0  0  0
    3.2047    2.4259    3.0569 H   0  0  0  0  0  0  0  0  0  0  0  0
    1.2815    3.6247    2.5379 H   0  0  0  0  0  0  0  0  0  0  0  0
   -0.0846    2.5844    2.6436 H   0  0  0  0  0  0  0  0  0  0  0  0
    0.6175    4.8544    4.5805 H   0  0  0  0  0  0  0  0  0  0  0  0
   -0.6182    4.9418    2.4536 H   0  0  0  0  0  0  0  0  0  0  0  0
   -1.4618    4.3439    5.8692 H   0  0  0  0  0  0  0  0  0  0  0  0
   -1.8482    3.0479    4.8180 H   0  0  0  0  0  0  0  0  0  0  0  0
    0.6192    3.2336    6.6435 H   0  0  0  0  0  0  0  0  0  0  0  0
   -0.7465    2.1903    6.8660 H   0  0  0  0  0  0  0  0  0  0  0  0
   -1.2640    0.2756    5.3228 H   0  0  0  0  0  0  0  0  0  0  0  0
   -0.2349   -0.1224    4.0374 H   0  0  0  0  0  0  0  0  0  0  0  0
   -1.2186    1.2472    3.8990 H   0  0  0  0  0  0  0  0  0  0  0  0
    1.9676    1.3533    6.8853 H   0  0  0  0  0  0  0  0  0  0  0  0
    1.2886   -0.5853    7.9254 H   0  0  0  0  0  0  0  0  0  0  0  0
   -0.1678    0.1497    7.5159 H   0  0  0  0  0  0  0  0  0  0  0  0
   -0.1771   -2.2434    7.1147 H   0  0  0  0  0  0  0  0  0  0  0  0
   -0.4960   -1.4117    5.6019 H   0  0  0  0  0  0  0  0  0  0  0  0
    2.9145   -2.0084    7.4086 H   0  0  0  0  0  0  0  0  0  0  0  0
    3.4063   -3.3088    6.3501 H   0  0  0  0  0  0  0  0  0  0  0  0
    2.0720   -3.5434    7.4579 H   0  0  0  0  0  0  0  0  0  0  0  0
    2.0425   -8.4578    3.5762 H   0  0  0  0  0  0  0  0  0  0  0  0
    0.8993   -9.7152    1.7717 H   0  0  0  0  0  0  0  0  0  0  0  0
    0.4675  -10.9912    2.9219 H   0  0  0  0  0  0  0  0  0  0  0  0
    2.1544  -10.6782    2.5311 H   0  0  0  0  0  0  0  0  0  0  0  0
    2.0312   -9.1954    5.9318 H   0  0  0  0  0  0  0  0  0  0  0  0
    2.6422  -10.4997    4.9481 H   0  0  0  0  0  0  0  0  0  0  0  0
    0.9852  -10.5577    5.5394 H   0  0  0  0  0  0  0  0  0  0  0  0
  1  2  2  0
  1 30  1  0
  1 31  1  0
  2  3  1  0
  2 27  1  0
  3  4  1  0
  3 32  1  0
  3 33  1  0
  4  5  1  0
  4 34  1  0
  4 35  1  0
  5  6  1  0
  5  7  1  0
  5 36  1  1
  6 37  1  0
  6 38  1  0
  6 39  1  0
  7 25  1  0
  7  8  1  0
  7 40  1  6
  8  9  1  0
  8 41  1  0
  8 42  1  0
  9 10  1  0
  9 43  1  0
  9 44  1  0
 10 25  1  0
 10 11  1  0
 10 45  1  6
 11 22  1  0
 11 12  1  0
 11 46  1  1
 12 13  1  0
 12 47  1  0
 12 48  1  0
 13 14  2  0
 13 49  1  0
 14 20  1  0
 14 15  1  0
 15 16  1  0
 15 50  1  0
 15 51  1  0
 16 17  1  0
 16 18  1  0
 16 52  1  1
 17 53  1  0
 18 19  1  0
 18 54  1  0
 18 55  1  0
 19 20  1  0
 19 56  1  0
 19 57  1  0
 20 21  1  6
 20 22  1  0
 21 58  1  0
 21 59  1  0
 21 60  1  0
 22 23  1  0
 22 61  1  1
 23 24  1  0
 23 62  1  0
 23 63  1  0
 24 25  1  0
 24 64  1  0
 24 65  1  0
 25 26  1  1
 26 66  1  0
 26 67  1  0
 26 68  1  0
 27 28  1  0
 27 29  1  0
 27 69  1  0
 28 70  1  0
 28 71  1  0
 28 72  1  0
 29 73  1  0
 29 74  1  0
 29 75  1  0
M  END
>  <i_m_ct_stereo_status>  (185) 
1

>  <s_m_source_file>  (185) 
/var/tmp/pbs.5076255.sched01/tmpco4mv84g/486h_uxm9x.sdf

>  <i_m_source_file_index>  (185) 
33

>  <i_lp_mmshare_version>  (185) 
48012

>  <i_f3d_flags>  (185) 
0

>  <s_epik_input>  (185) 
W0NIM11bQ0hdKFtDSDNdKUMoPVtDSDJdKVtDSDJdW0NIMl1bQ0BIXShbQ0gzXSlbQ0BIXShbQ0gyXVtDSDJdMSlbQ0BdKFtDSDNdKShbQ0gyXVtDSDJdW0NAQEhdMjMpW0NASF0xW0NASF0yW0NIMl1bQ0hdPUMoW0NAQF0zNFtDSDNdKVtDSDJdW0NAQEhdKFtPSF0pW0NIMl1bQ0gyXTQ=

>  <s_epik_cmdline>  (185) 
J2VwaWtfcHl0aG9uJywgJy1waHQnLCAnMi4wJywgJy1waCcsICc3LjAnLCAnLXRuJywgJzgnLCAnLW1hJywgJzIwMCcsICctaW1hZScsICc8aW5maWxlLm1hZT4nLCAnLW9tYWUnLCAnPG91dGZpbGUubWFlPic=

>  <r_lp_tautomer_probability>  (185) 
1

>  <r_epik_Ionization_Penalty>  (185) 
1.23503e-06

>  <r_epik_Ionization_Penalty_Charging>  (185) 
0

>  <r_epik_Ionization_Penalty_Neutral>  (185) 
1.23503e-06

>  <r_epik_State_Penalty>  (185) 
-0

>  <r_epik_Charging_Adjusted_Penalty>  (185) 
0

>  <i_epik_Tot_Q>  (185) 
0

>  <i_epik_Tot_abs_Q>  (185) 
0

>  <s_lp_Force_Field>  (185) 
OPLS3e

>  <r_lp_Energy>  (185) 
45.9617

>  <b_lp_Chiralities_Consistent>  (185) 
1

>  <s_lp_Variant>  (185) 
45:0-1

>  <s_i_glide_gridfile>  (185) 
pfpi4k_grid

>  <i_i_glide_lignum>  (185) 
33

>  <i_i_glide_rotatable_bonds>  (185) 
6

>  <r_i_docking_score>  (185) 
-2.21878

>  <r_i_glide_ligand_efficiency>  (185) 
-0.0765095

>  <r_i_glide_ligand_efficiency_sa>  (185) 
-0.235061

>  <r_i_glide_ligand_efficiency_ln>  (185) 
-0.508043

>  <r_i_glide_gscore>  (185) 
-2.21878

>  <r_i_glide_lipo>  (185) 
-0.174022

>  <r_i_glide_hbond>  (185) 
-0.312009

>  <r_i_glide_metal>  (185) 
-0

>  <r_i_glide_rewards>  (185) 
-0.690926

>  <r_i_glide_evdw>  (185) 
-17.763

>  <r_i_glide_ecoul>  (185) 
-5.70498

>  <r_i_glide_erotb>  (185) 
0.616198

>  <r_i_glide_esite>  (185) 
0

>  <r_i_glide_emodel>  (185) 
-21.5672

>  <r_i_glide_energy>  (185) 
-23.468

>  <r_i_glide_einternal>  (185) 
3.21596

>  <r_i_glide_intrahb_reward>  (185) 
-0

>  <i_i_glide_confnum>  (185) 
4

>  <i_i_glide_posenum>  (185) 
3

>  <r_i_glide_eff_state_penalty>  (185) 
0

>  <ligand_id>  (185) 
45

>  <original_smiles>  (185) 
C=C(CCC(C)C1CCC2C3CC=C4CC(O)CCC4(C)C3CCC12C)C(C)C

>  <smiles>  (185) 
[H]OC1([H])C([H])([H])C2=C([H])C([H])([H])C3([H])C([H])(C([H])([H])C([H])([H])C4(C([H])([H])[H])C([H])(C([H])(C([H])([H])[H])C([H])([H])C([H])([H])C(=C([H])[H])C([H])(C([H])([H])[H])C([H])([H])[H])C([H])([H])C([H])([H])C34[H])C2(C([H])([H])[H])C([H])([H])C1([H])[H]

$$$$
45:0:1
     RDKit          3D

 75 78  0  0  1  0  0  0  0  0999 V2000
   -2.9799    3.0907    4.6204 C   0  0  0  0  0  0  0  0  0  0  0  0
   -1.8228    2.7379    5.1632 C   0  0  0  0  0  0  0  0  0  0  0  0
   -0.6476    2.3890    4.2592 C   0  0  0  0  0  0  0  0  0  0  0  0
   -0.4022    0.8685    4.1802 C   0  0  0  0  0  0  0  0  0  0  0  0
    0.9731    0.5742    3.5756 C   0  0  2  0  0  0  0  0  0  0  0  0
    1.0255    0.9890    2.0763 C   0  0  0  0  0  0  0  0  0  0  0  0
    1.4672   -0.8898    3.8500 C   0  0  2  0  0  0  0  0  0  0  0  0
    1.4717   -1.3051    5.3633 C   0  0  0  0  0  0  0  0  0  0  0  0
    2.7451   -2.1352    5.6348 C   0  0  0  0  0  0  0  0  0  0  0  0
    3.1995   -2.5023    4.2051 C   0  0  2  0  0  0  0  0  0  0  0  0
    4.6752   -2.9492    3.9710 C   0  0  1  0  0  0  0  0  0  0  0  0
    5.1362   -4.1187    4.8560 C   0  0  0  0  0  0  0  0  0  0  0  0
    4.7082   -5.4689    4.3075 C   0  0  0  0  0  0  0  0  0  0  0  0
    4.2995   -5.6945    3.0463 C   0  0  0  0  0  0  0  0  0  0  0  0
    3.8715   -7.0826    2.6112 C   0  0  0  0  0  0  0  0  0  0  0  0
    4.6034   -7.5205    1.3259 C   0  0  1  0  0  0  0  0  0  0  0  0
    4.0263   -8.7163    0.8900 O   0  0  0  0  0  0  0  0  0  0  0  0
    4.5104   -6.4674    0.2007 C   0  0  0  0  0  0  0  0  0  0  0  0
    5.0298   -5.1101    0.6998 C   0  0  0  0  0  0  0  0  0  0  0  0
    4.2220   -4.6183    1.9397 C   0  0  1  0  0  0  0  0  0  0  0  0
    2.7214   -4.4936    1.4980 C   0  0  0  0  0  0  0  0  0  0  0  0
    4.8641   -3.2578    2.4431 C   0  0  1  0  0  0  0  0  0  0  0  0
    4.4561   -2.0536    1.5527 C   0  0  0  0  0  0  0  0  0  0  0  0
    3.0225   -1.4968    1.8320 C   0  0  0  0  0  0  0  0  0  0  0  0
    2.9046   -1.1958    3.3748 C   0  0  1  0  0  0  0  0  0  0  0  0
    3.8679   -0.0052    3.7634 C   0  0  0  0  0  0  0  0  0  0  0  0
   -1.5711    2.6338    6.6821 C   0  0  0  0  0  0  0  0  0  0  0  0
   -2.8450    2.7879    7.5379 C   0  0  0  0  0  0  0  0  0  0  0  0
   -0.4948    3.6250    7.1556 C   0  0  0  0  0  0  0  0  0  0  0  0
   -3.1019    3.1230    3.5402 H   0  0  0  0  0  0  0  0  0  0  0  0
   -3.8529    3.3432    5.2188 H   0  0  0  0  0  0  0  0  0  0  0  0
   -0.8392    2.7799    3.2581 H   0  0  0  0  0  0  0  0  0  0  0  0
    0.2427    2.9213    4.5933 H   0  0  0  0  0  0  0  0  0  0  0  0
   -0.4467    0.4697    5.1923 H   0  0  0  0  0  0  0  0  0  0  0  0
   -1.1970    0.3751    3.6117 H   0  0  0  0  0  0  0  0  0  0  0  0
    1.6396    1.2459    4.1196 H   0  0  0  0  0  0  0  0  0  0  0  0
    0.4925    0.2726    1.4514 H   0  0  0  0  0  0  0  0  0  0  0  0
    2.0357    1.0330    1.7076 H   0  0  0  0  0  0  0  0  0  0  0  0
    0.5858    1.9794    1.8926 H   0  0  0  0  0  0  0  0  0  0  0  0
    0.7768   -1.5770    3.3421 H   0  0  0  0  0  0  0  0  0  0  0  0
    1.4905   -0.4195    5.9986 H   0  0  0  0  0  0  0  0  0  0  0  0
    0.5549   -1.8667    5.6090 H   0  0  0  0  0  0  0  0  0  0  0  0
    3.4876   -1.5457    6.1887 H   0  0  0  0  0  0  0  0  0  0  0  0
    2.5264   -3.0198    6.2302 H   0  0  0  0  0  0  0  0  0  0  0  0
    2.5602   -3.3257    3.9432 H   0  0  0  0  0  0  0  0  0  0  0  0
    5.3623   -2.1545    4.2668 H   0  0  0  0  0  0  0  0  0  0  0  0
    6.2227   -4.1160    4.9114 H   0  0  0  0  0  0  0  0  0  0  0  0
    4.7809   -3.9852    5.8814 H   0  0  0  0  0  0  0  0  0  0  0  0
    4.7280   -6.2713    5.0404 H   0  0  0  0  0  0  0  0  0  0  0  0
    4.0114   -7.8025    3.4203 H   0  0  0  0  0  0  0  0  0  0  0  0
    2.7980   -7.0599    2.4566 H   0  0  0  0  0  0  0  0  0  0  0  0
    5.6592   -7.6755    1.5613 H   0  0  0  0  0  0  0  0  0  0  0  0
    4.1767   -9.4008    1.5297 H   0  0  0  0  0  0  0  0  0  0  0  0
    5.0302   -6.7696   -0.7013 H   0  0  0  0  0  0  0  0  0  0  0  0
    3.4989   -6.3917   -0.1828 H   0  0  0  0  0  0  0  0  0  0  0  0
    6.1026   -5.1807    0.8987 H   0  0  0  0  0  0  0  0  0  0  0  0
    4.9386   -4.3890   -0.1110 H   0  0  0  0  0  0  0  0  0  0  0  0
    2.6560   -3.8219    0.6100 H   0  0  0  0  0  0  0  0  0  0  0  0
    2.1141   -4.0964    2.2609 H   0  0  0  0  0  0  0  0  0  0  0  0
    2.2785   -5.4422    1.1933 H   0  0  0  0  0  0  0  0  0  0  0  0
    5.9446   -3.3474    2.3353 H   0  0  0  0  0  0  0  0  0  0  0  0
    5.1856   -1.2701    1.6840 H   0  0  0  0  0  0  0  0  0  0  0  0
    4.5492   -2.2882    0.5023 H   0  0  0  0  0  0  0  0  0  0  0  0
    2.9664   -0.5996    1.2232 H   0  0  0  0  0  0  0  0  0  0  0  0
    2.2458   -2.1831    1.5373 H   0  0  0  0  0  0  0  0  0  0  0  0
    4.9216   -0.2224    3.5937 H   0  0  0  0  0  0  0  0  0  0  0  0
    3.7781    0.2804    4.8179 H   0  0  0  0  0  0  0  0  0  0  0  0
    3.6476    0.8932    3.1829 H   0  0  0  0  0  0  0  0  0  0  0  0
   -1.1991    1.6321    6.8791 H   0  0  0  0  0  0  0  0  0  0  0  0
   -3.6141    2.0717    7.2549 H   0  0  0  0  0  0  0  0  0  0  0  0
   -3.2650    3.7874    7.4557 H   0  0  0  0  0  0  0  0  0  0  0  0
   -2.6225    2.6199    8.5934 H   0  0  0  0  0  0  0  0  0  0  0  0
    0.4812    3.4093    6.7190 H   0  0  0  0  0  0  0  0  0  0  0  0
   -0.3653    3.5718    8.2383 H   0  0  0  0  0  0  0  0  0  0  0  0
   -0.7585    4.6517    6.9007 H   0  0  0  0  0  0  0  0  0  0  0  0
  1  2  2  0
  1 30  1  0
  1 31  1  0
  2  3  1  0
  2 27  1  0
  3  4  1  0
  3 32  1  0
  3 33  1  0
  4  5  1  0
  4 34  1  0
  4 35  1  0
  5  6  1  0
  5  7  1  0
  5 36  1  1
  6 37  1  0
  6 38  1  0
  6 39  1  0
  7 25  1  0
  7  8  1  0
  7 40  1  6
  8  9  1  0
  8 41  1  0
  8 42  1  0
  9 10  1  0
  9 43  1  0
  9 44  1  0
 10 25  1  0
 10 11  1  0
 10 45  1  6
 11 22  1  0
 11 12  1  0
 11 46  1  1
 12 13  1  0
 12 47  1  0
 12 48  1  0
 13 14  2  0
 13 49  1  0
 14 20  1  0
 14 15  1  0
 15 16  1  0
 15 50  1  0
 15 51  1  0
 16 17  1  0
 16 18  1  0
 16 52  1  1
 17 53  1  0
 18 19  1  0
 18 54  1  0
 18 55  1  0
 19 20  1  0
 19 56  1  0
 19 57  1  0
 20 21  1  6
 20 22  1  0
 21 58  1  0
 21 59  1  0
 21 60  1  0
 22 23  1  0
 22 61  1  1
 23 24  1  0
 23 62  1  0
 23 63  1  0
 24 25  1  0
 24 64  1  0
 24 65  1  0
 25 26  1  1
 26 66  1  0
 26 67  1  0
 26 68  1  0
 27 28  1  0
 27 29  1  0
 27 69  1  0
 28 70  1  0
 28 71  1  0
 28 72  1  0
 29 73  1  0
 29 74  1  0
 29 75  1  0
M  END
>  <i_m_ct_stereo_status>  (186) 
1

>  <s_m_source_file>  (186) 
/var/tmp/pbs.5076255.sched01/tmpco4mv84g/486h_uxm9x.sdf

>  <i_m_source_file_index>  (186) 
33

>  <i_lp_mmshare_version>  (186) 
48012

>  <i_f3d_flags>  (186) 
0

>  <s_epik_input>  (186) 
W0NIM11bQ0hdKFtDSDNdKUMoPVtDSDJdKVtDSDJdW0NIMl1bQ0BIXShbQ0gzXSlbQ0BIXShbQ0gyXVtDSDJdMSlbQ0BdKFtDSDNdKShbQ0gyXVtDSDJdW0NAQEhdMjMpW0NASF0xW0NASF0yW0NIMl1bQ0hdPUMoW0NAQF0zNFtDSDNdKVtDSDJdW0NAQEhdKFtPSF0pW0NIMl1bQ0gyXTQ=

>  <s_epik_cmdline>  (186) 
J2VwaWtfcHl0aG9uJywgJy1waHQnLCAnMi4wJywgJy1waCcsICc3LjAnLCAnLXRuJywgJzgnLCAnLW1hJywgJzIwMCcsICctaW1hZScsICc8aW5maWxlLm1hZT4nLCAnLW9tYWUnLCAnPG91dGZpbGUubWFlPic=

>  <r_lp_tautomer_probability>  (186) 
1

>  <r_epik_Ionization_Penalty>  (186) 
1.23503e-06

>  <r_epik_Ionization_Penalty_Charging>  (186) 
0

>  <r_epik_Ionization_Penalty_Neutral>  (186) 
1.23503e-06

>  <r_epik_State_Penalty>  (186) 
-0

>  <r_epik_Charging_Adjusted_Penalty>  (186) 
0

>  <i_epik_Tot_Q>  (186) 
0

>  <i_epik_Tot_abs_Q>  (186) 
0

>  <s_lp_Force_Field>  (186) 
OPLS3e

>  <r_lp_Energy>  (186) 
45.9617

>  <b_lp_Chiralities_Consistent>  (186) 
1

>  <s_lp_Variant>  (186) 
45:0-1

>  <s_i_glide_gridfile>  (186) 
pfpi4k_grid

>  <i_i_glide_lignum>  (186) 
33

>  <i_i_glide_rotatable_bonds>  (186) 
6

>  <r_i_docking_score>  (186) 
-1.82175

>  <r_i_glide_ligand_efficiency>  (186) 
-0.062819

>  <r_i_glide_ligand_efficiency_sa>  (186) 
-0.193

>  <r_i_glide_ligand_efficiency_ln>  (186) 
-0.417135

>  <r_i_glide_gscore>  (186) 
-1.82175

>  <r_i_glide_lipo>  (186) 
-0.587525

>  <r_i_glide_hbond>  (186) 
0

>  <r_i_glide_metal>  (186) 
-0

>  <r_i_glide_rewards>  (186) 
-0.690926

>  <r_i_glide_evdw>  (186) 
-19.5762

>  <r_i_glide_ecoul>  (186) 
-1.20459

>  <r_i_glide_erotb>  (186) 
0.616198

>  <r_i_glide_esite>  (186) 
0

>  <r_i_glide_emodel>  (186) 
-20.437

>  <r_i_glide_energy>  (186) 
-20.7808

>  <r_i_glide_einternal>  (186) 
1.27374

>  <r_i_glide_intrahb_reward>  (186) 
-0

>  <i_i_glide_confnum>  (186) 
4

>  <i_i_glide_posenum>  (186) 
4

>  <r_i_glide_eff_state_penalty>  (186) 
0

>  <ligand_id>  (186) 
45

>  <original_smiles>  (186) 
C=C(CCC(C)C1CCC2C3CC=C4CC(O)CCC4(C)C3CCC12C)C(C)C

>  <smiles>  (186) 
[H]OC1([H])C([H])([H])C2=C([H])C([H])([H])C3([H])C([H])(C([H])([H])C([H])([H])C4(C([H])([H])[H])C([H])(C([H])(C([H])([H])[H])C([H])([H])C([H])([H])C(=C([H])[H])C([H])(C([H])([H])[H])C([H])([H])[H])C([H])([H])C([H])([H])C34[H])C2(C([H])([H])[H])C([H])([H])C1([H])[H]

$$$$
45:0:2
     RDKit          3D

 75 78  0  0  1  0  0  0  0  0999 V2000
    2.8560    0.9398    3.1917 C   0  0  0  0  0  0  0  0  0  0  0  0
    1.8702    0.1742    3.6755 C   0  0  0  0  0  0  0  0  0  0  0  0
    2.1775   -0.8738    4.7302 C   0  0  0  0  0  0  0  0  0  0  0  0
    2.0928   -2.3145    4.1856 C   0  0  0  0  0  0  0  0  0  0  0  0
    2.2516   -3.3610    5.3062 C   0  0  2  0  0  0  0  0  0  0  0  0
    3.6417   -3.2439    5.9911 C   0  0  0  0  0  0  0  0  0  0  0  0
    1.8997   -4.8081    4.8494 C   0  0  2  0  0  0  0  0  0  0  0  0
    0.4957   -4.9630    4.1803 C   0  0  0  0  0  0  0  0  0  0  0  0
   -0.1258   -6.2917    4.6730 C   0  0  0  0  0  0  0  0  0  0  0  0
    1.0945   -7.0270    5.2709 C   0  0  2  0  0  0  0  0  0  0  0  0
    0.8557   -8.1782    6.2806 C   0  0  1  0  0  0  0  0  0  0  0  0
   -0.0806   -9.2940    5.7891 C   0  0  0  0  0  0  0  0  0  0  0  0
    0.6455  -10.2934    4.8953 C   0  0  0  0  0  0  0  0  0  0  0  0
    1.9717  -10.4420    4.8231 C   0  0  0  0  0  0  0  0  0  0  0  0
    2.5959  -11.4586    3.8789 C   0  0  0  0  0  0  0  0  0  0  0  0
    3.5952  -12.3672    4.6190 C   0  0  1  0  0  0  0  0  0  0  0  0
    4.2574  -13.1634    3.6689 O   0  0  0  0  0  0  0  0  0  0  0  0
    4.6394  -11.5929    5.4388 C   0  0  0  0  0  0  0  0  0  0  0  0
    3.9352  -10.6278    6.4066 C   0  0  0  0  0  0  0  0  0  0  0  0
    2.9925   -9.6302    5.6579 C   0  0  1  0  0  0  0  0  0  0  0  0
    3.8621   -8.7957    4.6694 C   0  0  0  0  0  0  0  0  0  0  0  0
    2.2476   -8.7393    6.7365 C   0  0  1  0  0  0  0  0  0  0  0  0
    3.1643   -7.6194    7.2984 C   0  0  0  0  0  0  0  0  0  0  0  0
    3.3354   -6.4081    6.3551 C   0  0  0  0  0  0  0  0  0  0  0  0
    1.9136   -5.8748    5.9548 C   0  0  1  0  0  0  0  0  0  0  0  0
    1.1729   -5.2988    7.2285 C   0  0  0  0  0  0  0  0  0  0  0  0
    0.4039    0.2676    3.2290 C   0  0  0  0  0  0  0  0  0  0  0  0
    0.1918    1.1142    1.9625 C   0  0  0  0  0  0  0  0  0  0  0  0
   -0.5130    0.7505    4.3646 C   0  0  0  0  0  0  0  0  0  0  0  0
    3.8744    0.8166    3.5423 H   0  0  0  0  0  0  0  0  0  0  0  0
    2.6921    1.6968    2.4343 H   0  0  0  0  0  0  0  0  0  0  0  0
    3.1826   -0.6726    5.0961 H   0  0  0  0  0  0  0  0  0  0  0  0
    1.5270   -0.7419    5.5957 H   0  0  0  0  0  0  0  0  0  0  0  0
    1.1095   -2.4432    3.7345 H   0  0  0  0  0  0  0  0  0  0  0  0
    2.8275   -2.4797    3.3926 H   0  0  0  0  0  0  0  0  0  0  0  0
    1.5007   -3.0495    6.0392 H   0  0  0  0  0  0  0  0  0  0  0  0
    4.4264   -3.6418    5.3524 H   0  0  0  0  0  0  0  0  0  0  0  0
    3.6707   -3.7889    6.9149 H   0  0  0  0  0  0  0  0  0  0  0  0
    3.9184   -2.2165    6.2529 H   0  0  0  0  0  0  0  0  0  0  0  0
    2.6385   -5.1050    4.0793 H   0  0  0  0  0  0  0  0  0  0  0  0
   -0.1551   -4.1414    4.4692 H   0  0  0  0  0  0  0  0  0  0  0  0
    0.6057   -4.9411    3.0802 H   0  0  0  0  0  0  0  0  0  0  0  0
   -0.9172   -6.0917    5.4121 H   0  0  0  0  0  0  0  0  0  0  0  0
   -0.5887   -6.8501    3.8617 H   0  0  0  0  0  0  0  0  0  0  0  0
    1.5847   -7.4292    4.4268 H   0  0  0  0  0  0  0  0  0  0  0  0
    0.3156   -7.8023    7.1629 H   0  0  0  0  0  0  0  0  0  0  0  0
   -0.4793   -9.8431    6.6393 H   0  0  0  0  0  0  0  0  0  0  0  0
   -0.9423   -8.8720    5.2670 H   0  0  0  0  0  0  0  0  0  0  0  0
   -0.0250  -10.8871    4.2729 H   0  0  0  0  0  0  0  0  0  0  0  0
    1.8172  -12.0375    3.3765 H   0  0  0  0  0  0  0  0  0  0  0  0
    3.0836  -10.9115    3.0809 H   0  0  0  0  0  0  0  0  0  0  0  0
    3.0336  -13.0165    5.2879 H   0  0  0  0  0  0  0  0  0  0  0  0
    3.5915  -13.6554    3.2009 H   0  0  0  0  0  0  0  0  0  0  0  0
    5.3034  -12.2730    5.9880 H   0  0  0  0  0  0  0  0  0  0  0  0
    5.3232  -11.0604    4.7773 H   0  0  0  0  0  0  0  0  0  0  0  0
    3.4033  -11.2088    7.1647 H   0  0  0  0  0  0  0  0  0  0  0  0
    4.6896  -10.0739    6.9594 H   0  0  0  0  0  0  0  0  0  0  0  0
    4.6702   -8.3022    5.2109 H   0  0  0  0  0  0  0  0  0  0  0  0
    3.3186   -8.0911    4.1645 H   0  0  0  0  0  0  0  0  0  0  0  0
    4.3644   -9.4144    3.9040 H   0  0  0  0  0  0  0  0  0  0  0  0
    2.0029   -9.3846    7.5768 H   0  0  0  0  0  0  0  0  0  0  0  0
    2.7596   -7.3040    8.2598 H   0  0  0  0  0  0  0  0  0  0  0  0
    4.1340   -8.0108    7.5710 H   0  0  0  0  0  0  0  0  0  0  0  0
    3.8891   -5.6696    6.9469 H   0  0  0  0  0  0  0  0  0  0  0  0
    3.8821   -6.6293    5.5018 H   0  0  0  0  0  0  0  0  0  0  0  0
    1.0064   -6.0415    8.0126 H   0  0  0  0  0  0  0  0  0  0  0  0
    0.1924   -4.8734    7.0004 H   0  0  0  0  0  0  0  0  0  0  0  0
    1.7481   -4.4975    7.6976 H   0  0  0  0  0  0  0  0  0  0  0  0
    0.0846   -0.7373    2.9575 H   0  0  0  0  0  0  0  0  0  0  0  0
    0.8002    0.7457    1.1353 H   0  0  0  0  0  0  0  0  0  0  0  0
    0.4363    2.1636    2.1275 H   0  0  0  0  0  0  0  0  0  0  0  0
   -0.8477    1.0650    1.6432 H   0  0  0  0  0  0  0  0  0  0  0  0
   -0.5263    0.0549    5.2037 H   0  0  0  0  0  0  0  0  0  0  0  0
   -1.5409    0.8489    4.0171 H   0  0  0  0  0  0  0  0  0  0  0  0
   -0.1921    1.7226    4.7388 H   0  0  0  0  0  0  0  0  0  0  0  0
  1  2  2  0
  1 30  1  0
  1 31  1  0
  2  3  1  0
  2 27  1  0
  3  4  1  0
  3 32  1  0
  3 33  1  0
  4  5  1  0
  4 34  1  0
  4 35  1  0
  5  6  1  0
  5  7  1  0
  5 36  1  1
  6 37  1  0
  6 38  1  0
  6 39  1  0
  7 25  1  0
  7  8  1  0
  7 40  1  6
  8  9  1  0
  8 41  1  0
  8 42  1  0
  9 10  1  0
  9 43  1  0
  9 44  1  0
 10 25  1  0
 10 11  1  0
 10 45  1  6
 11 22  1  0
 11 12  1  0
 11 46  1  1
 12 13  1  0
 12 47  1  0
 12 48  1  0
 13 14  2  0
 13 49  1  0
 14 20  1  0
 14 15  1  0
 15 16  1  0
 15 50  1  0
 15 51  1  0
 16 17  1  0
 16 18  1  0
 16 52  1  1
 17 53  1  0
 18 19  1  0
 18 54  1  0
 18 55  1  0
 19 20  1  0
 19 56  1  0
 19 57  1  0
 20 21  1  6
 20 22  1  0
 21 58  1  0
 21 59  1  0
 21 60  1  0
 22 23  1  0
 22 61  1  1
 23 24  1  0
 23 62  1  0
 23 63  1  0
 24 25  1  0
 24 64  1  0
 24 65  1  0
 25 26  1  1
 26 66  1  0
 26 67  1  0
 26 68  1  0
 27 28  1  0
 27 29  1  0
 27 69  1  0
 28 70  1  0
 28 71  1  0
 28 72  1  0
 29 73  1  0
 29 74  1  0
 29 75  1  0
M  END
>  <i_m_ct_stereo_status>  (187) 
1

>  <s_m_source_file>  (187) 
/var/tmp/pbs.5076255.sched01/tmpco4mv84g/486h_uxm9x.sdf

>  <i_m_source_file_index>  (187) 
33

>  <i_lp_mmshare_version>  (187) 
48012

>  <i_f3d_flags>  (187) 
0

>  <s_epik_input>  (187) 
W0NIM11bQ0hdKFtDSDNdKUMoPVtDSDJdKVtDSDJdW0NIMl1bQ0BIXShbQ0gzXSlbQ0BIXShbQ0gyXVtDSDJdMSlbQ0BdKFtDSDNdKShbQ0gyXVtDSDJdW0NAQEhdMjMpW0NASF0xW0NASF0yW0NIMl1bQ0hdPUMoW0NAQF0zNFtDSDNdKVtDSDJdW0NAQEhdKFtPSF0pW0NIMl1bQ0gyXTQ=

>  <s_epik_cmdline>  (187) 
J2VwaWtfcHl0aG9uJywgJy1waHQnLCAnMi4wJywgJy1waCcsICc3LjAnLCAnLXRuJywgJzgnLCAnLW1hJywgJzIwMCcsICctaW1hZScsICc8aW5maWxlLm1hZT4nLCAnLW9tYWUnLCAnPG91dGZpbGUubWFlPic=

>  <r_lp_tautomer_probability>  (187) 
1

>  <r_epik_Ionization_Penalty>  (187) 
1.23503e-06

>  <r_epik_Ionization_Penalty_Charging>  (187) 
0

>  <r_epik_Ionization_Penalty_Neutral>  (187) 
1.23503e-06

>  <r_epik_State_Penalty>  (187) 
-0

>  <r_epik_Charging_Adjusted_Penalty>  (187) 
0

>  <i_epik_Tot_Q>  (187) 
0

>  <i_epik_Tot_abs_Q>  (187) 
0

>  <s_lp_Force_Field>  (187) 
OPLS3e

>  <r_lp_Energy>  (187) 
45.9617

>  <b_lp_Chiralities_Consistent>  (187) 
1

>  <s_lp_Variant>  (187) 
45:0-1

>  <s_i_glide_gridfile>  (187) 
pfpi4k_grid

>  <i_i_glide_lignum>  (187) 
33

>  <i_i_glide_rotatable_bonds>  (187) 
6

>  <r_i_docking_score>  (187) 
-1.73195

>  <r_i_glide_ligand_efficiency>  (187) 
-0.0597225

>  <r_i_glide_ligand_efficiency_sa>  (187) 
-0.183486

>  <r_i_glide_ligand_efficiency_ln>  (187) 
-0.396573

>  <r_i_glide_gscore>  (187) 
-1.73195

>  <r_i_glide_lipo>  (187) 
-0.000296669

>  <r_i_glide_hbond>  (187) 
-0.282985

>  <r_i_glide_metal>  (187) 
-0

>  <r_i_glide_rewards>  (187) 
-0.690926

>  <r_i_glide_evdw>  (187) 
-17.9969

>  <r_i_glide_ecoul>  (187) 
-3.16065

>  <r_i_glide_erotb>  (187) 
0.616198

>  <r_i_glide_esite>  (187) 
0

>  <r_i_glide_emodel>  (187) 
-19.9118

>  <r_i_glide_energy>  (187) 
-21.1576

>  <r_i_glide_einternal>  (187) 
0.800373

>  <r_i_glide_intrahb_reward>  (187) 
-0

>  <i_i_glide_confnum>  (187) 
4

>  <i_i_glide_posenum>  (187) 
14

>  <r_i_glide_eff_state_penalty>  (187) 
0

>  <ligand_id>  (187) 
45

>  <original_smiles>  (187) 
C=C(CCC(C)C1CCC2C3CC=C4CC(O)CCC4(C)C3CCC12C)C(C)C

>  <smiles>  (187) 
[H]OC1([H])C([H])([H])C2=C([H])C([H])([H])C3([H])C([H])(C([H])([H])C([H])([H])C4(C([H])([H])[H])C([H])(C([H])(C([H])([H])[H])C([H])([H])C([H])([H])C(=C([H])[H])C([H])(C([H])([H])[H])C([H])([H])[H])C([H])([H])C([H])([H])C34[H])C2(C([H])([H])[H])C([H])([H])C1([H])[H]

$$$$
46:0:0
     RDKit          3D

 21 23  0  0  1  0  0  0  0  0999 V2000
    3.2758   -1.2674   -2.7031 C   0  0  0  0  0  0  0  0  0  0  0  0
    3.9719   -2.3161   -1.8605 C   0  0  0  0  0  0  0  0  0  0  0  0
    5.3807   -2.3520   -1.7774 C   0  0  0  0  0  0  0  0  0  0  0  0
    6.0331   -3.3297   -0.9944 C   0  0  0  0  0  0  0  0  0  0  0  0
    5.2689   -4.2805   -0.2848 C   0  0  0  0  0  0  0  0  0  0  0  0
    5.8680   -5.2868    0.5086 C   0  0  0  0  0  0  0  0  0  0  0  0
    5.1728   -6.2222    1.1958 N   0  0  0  0  0  0  0  0  0  0  0  0
    3.8437   -6.1325    1.0768 N   0  0  0  0  0  0  0  0  0  0  0  0
    2.9777   -6.9776    1.6934 N   0  0  0  0  0  0  0  0  0  0  0  0
    1.7933   -6.5826    1.3413 N   0  0  0  0  0  0  0  0  0  0  0  0
    1.8157   -5.4880    0.4967 N   0  0  0  0  0  0  0  0  0  0  0  0
    3.1061   -5.1994    0.3387 C   0  0  0  0  0  0  0  0  0  0  0  0
    3.8586   -4.2301   -0.3717 C   0  0  0  0  0  0  0  0  0  0  0  0
    3.2025   -3.2599   -1.1526 C   0  0  0  0  0  0  0  0  0  0  0  0
    3.9855   -0.5974   -3.1860 H   0  0  0  0  0  0  0  0  0  0  0  0
    2.6216   -0.6585   -2.0770 H   0  0  0  0  0  0  0  0  0  0  0  0
    2.6660   -1.7406   -3.4738 H   0  0  0  0  0  0  0  0  0  0  0  0
    5.9624   -1.6254   -2.3185 H   0  0  0  0  0  0  0  0  0  0  0  0
    7.1125   -3.3423   -0.9497 H   0  0  0  0  0  0  0  0  0  0  0  0
    6.9442   -5.3483    0.5939 H   0  0  0  0  0  0  0  0  0  0  0  0
    2.1248   -3.2425   -1.2145 H   0  0  0  0  0  0  0  0  0  0  0  0
  1  2  1  0
  1 15  1  0
  1 16  1  0
  1 17  1  0
  2 14  2  0
  2  3  1  0
  3  4  2  0
  3 18  1  0
  4  5  1  0
  4 19  1  0
  5 13  2  0
  5  6  1  0
  6  7  2  0
  6 20  1  0
  7  8  1  0
  8 12  1  0
  8  9  1  0
  9 10  2  0
 10 11  1  0
 11 12  2  0
 12 13  1  0
 13 14  1  0
 14 21  1  0
M  END
>  <i_m_ct_stereo_status>  (188) 
1

>  <s_m_source_file>  (188) 
/var/tmp/pbs.5076255.sched01/tmpco4mv84g/486h_uxm9x.sdf

>  <i_m_source_file_index>  (188) 
34

>  <i_lp_mmshare_version>  (188) 
48012

>  <i_f3d_flags>  (188) 
0

>  <s_epik_input>  (188) 
W2NIXTFbY0hdYyhbQ0gzXSlbY0hdYyhjMTIpYzNuKG5bY0hdMilubm4z

>  <s_epik_cmdline>  (188) 
J2VwaWtfcHl0aG9uJywgJy1waHQnLCAnMi4wJywgJy1waCcsICc3LjAnLCAnLXRuJywgJzgnLCAnLW1hJywgJzIwMCcsICctaW1hZScsICc8aW5maWxlLm1hZT4nLCAnLW9tYWUnLCAnPG91dGZpbGUubWFlPic=

>  <r_lp_tautomer_probability>  (188) 
1

>  <r_epik_Ionization_Penalty>  (188) 
6.9781e-10

>  <r_epik_Ionization_Penalty_Charging>  (188) 
0

>  <r_epik_Ionization_Penalty_Neutral>  (188) 
6.9781e-10

>  <r_epik_State_Penalty>  (188) 
-0

>  <r_epik_Charging_Adjusted_Penalty>  (188) 
0

>  <i_epik_Tot_Q>  (188) 
0

>  <i_epik_Tot_abs_Q>  (188) 
0

>  <s_lp_Force_Field>  (188) 
OPLS3e

>  <r_lp_Energy>  (188) 
19.5837

>  <b_lp_Chiralities_Consistent>  (188) 
1

>  <s_lp_Variant>  (188) 
46:0-1

>  <s_i_glide_gridfile>  (188) 
pfpi4k_grid

>  <i_i_glide_lignum>  (188) 
34

>  <i_i_glide_rotatable_bonds>  (188) 
0

>  <r_i_docking_score>  (188) 
-3.93389

>  <r_i_glide_ligand_efficiency>  (188) 
-0.280992

>  <r_i_glide_ligand_efficiency_sa>  (188) 
-0.677232

>  <r_i_glide_ligand_efficiency_ln>  (188) 
-1.08102

>  <r_i_glide_gscore>  (188) 
-3.93389

>  <r_i_glide_lipo>  (188) 
-0.359521

>  <r_i_glide_hbond>  (188) 
0

>  <r_i_glide_metal>  (188) 
-0

>  <r_i_glide_rewards>  (188) 
-2.2273

>  <r_i_glide_evdw>  (188) 
-17.9128

>  <r_i_glide_ecoul>  (188) 
-1.93295

>  <r_i_glide_erotb>  (188) 
0

>  <r_i_glide_esite>  (188) 
-0.161493

>  <r_i_glide_emodel>  (188) 
-24.9507

>  <r_i_glide_energy>  (188) 
-19.8458

>  <r_i_glide_einternal>  (188) 
0

>  <r_i_glide_intrahb_reward>  (188) 
-0

>  <i_i_glide_confnum>  (188) 
1

>  <i_i_glide_posenum>  (188) 
1

>  <r_i_glide_eff_state_penalty>  (188) 
0

>  <ligand_id>  (188) 
46

>  <original_smiles>  (188) 
Cc1ccc2cnn3nnnc3c2c1

>  <smiles>  (188) 
[H]c1c(C([H])([H])[H])c([H])c2c(c([H])nn3nnnc23)c1[H]

$$$$
46:0:1
     RDKit          3D

 21 23  0  0  1  0  0  0  0  0999 V2000
    3.6088   -1.4226   -3.1440 C   0  0  0  0  0  0  0  0  0  0  0  0
    3.9731   -2.0078   -1.7976 C   0  0  0  0  0  0  0  0  0  0  0  0
    5.0406   -1.4720   -1.0438 C   0  0  0  0  0  0  0  0  0  0  0  0
    5.3840   -2.0171    0.2114 C   0  0  0  0  0  0  0  0  0  0  0  0
    4.6487   -3.1097    0.7210 C   0  0  0  0  0  0  0  0  0  0  0  0
    4.9461   -3.6913    1.9734 C   0  0  0  0  0  0  0  0  0  0  0  0
    4.2694   -4.7372    2.5030 N   0  0  0  0  0  0  0  0  0  0  0  0
    3.2679   -5.1972    1.7435 N   0  0  0  0  0  0  0  0  0  0  0  0
    2.4682   -6.2342    2.1055 N   0  0  0  0  0  0  0  0  0  0  0  0
    1.6180   -6.3753    1.1343 N   0  0  0  0  0  0  0  0  0  0  0  0
    1.8108   -5.4627    0.1128 N   0  0  0  0  0  0  0  0  0  0  0  0
    2.8511   -4.7259    0.4939 C   0  0  0  0  0  0  0  0  0  0  0  0
    3.5783   -3.6346   -0.0419 C   0  0  0  0  0  0  0  0  0  0  0  0
    3.2319   -3.0945   -1.2924 C   0  0  0  0  0  0  0  0  0  0  0  0
    4.2541   -0.5862   -3.4079 H   0  0  0  0  0  0  0  0  0  0  0  0
    2.5840   -1.0572   -3.1239 H   0  0  0  0  0  0  0  0  0  0  0  0
    3.6901   -2.1824   -3.9218 H   0  0  0  0  0  0  0  0  0  0  0  0
    5.5958   -0.6328   -1.4300 H   0  0  0  0  0  0  0  0  0  0  0  0
    6.2033   -1.5942    0.7769 H   0  0  0  0  0  0  0  0  0  0  0  0
    5.7554   -3.3133    2.5820 H   0  0  0  0  0  0  0  0  0  0  0  0
    2.4096   -3.5110   -1.8551 H   0  0  0  0  0  0  0  0  0  0  0  0
  1  2  1  0
  1 15  1  0
  1 16  1  0
  1 17  1  0
  2 14  2  0
  2  3  1  0
  3  4  2  0
  3 18  1  0
  4  5  1  0
  4 19  1  0
  5 13  2  0
  5  6  1  0
  6  7  2  0
  6 20  1  0
  7  8  1  0
  8 12  1  0
  8  9  1  0
  9 10  2  0
 10 11  1  0
 11 12  2  0
 12 13  1  0
 13 14  1  0
 14 21  1  0
M  END
>  <i_m_ct_stereo_status>  (189) 
1

>  <s_m_source_file>  (189) 
/var/tmp/pbs.5076255.sched01/tmpco4mv84g/486h_uxm9x.sdf

>  <i_m_source_file_index>  (189) 
34

>  <i_lp_mmshare_version>  (189) 
48012

>  <i_f3d_flags>  (189) 
0

>  <s_epik_input>  (189) 
W2NIXTFbY0hdYyhbQ0gzXSlbY0hdYyhjMTIpYzNuKG5bY0hdMilubm4z

>  <s_epik_cmdline>  (189) 
J2VwaWtfcHl0aG9uJywgJy1waHQnLCAnMi4wJywgJy1waCcsICc3LjAnLCAnLXRuJywgJzgnLCAnLW1hJywgJzIwMCcsICctaW1hZScsICc8aW5maWxlLm1hZT4nLCAnLW9tYWUnLCAnPG91dGZpbGUubWFlPic=

>  <r_lp_tautomer_probability>  (189) 
1

>  <r_epik_Ionization_Penalty>  (189) 
6.9781e-10

>  <r_epik_Ionization_Penalty_Charging>  (189) 
0

>  <r_epik_Ionization_Penalty_Neutral>  (189) 
6.9781e-10

>  <r_epik_State_Penalty>  (189) 
-0

>  <r_epik_Charging_Adjusted_Penalty>  (189) 
0

>  <i_epik_Tot_Q>  (189) 
0

>  <i_epik_Tot_abs_Q>  (189) 
0

>  <s_lp_Force_Field>  (189) 
OPLS3e

>  <r_lp_Energy>  (189) 
19.5837

>  <b_lp_Chiralities_Consistent>  (189) 
1

>  <s_lp_Variant>  (189) 
46:0-1

>  <s_i_glide_gridfile>  (189) 
pfpi4k_grid

>  <i_i_glide_lignum>  (189) 
34

>  <i_i_glide_rotatable_bonds>  (189) 
0

>  <r_i_docking_score>  (189) 
-3.5879

>  <r_i_glide_ligand_efficiency>  (189) 
-0.256279

>  <r_i_glide_ligand_efficiency_sa>  (189) 
-0.617668

>  <r_i_glide_ligand_efficiency_ln>  (189) 
-0.985942

>  <r_i_glide_gscore>  (189) 
-3.5879

>  <r_i_glide_lipo>  (189) 
-0.135757

>  <r_i_glide_hbond>  (189) 
0

>  <r_i_glide_metal>  (189) 
-0

>  <r_i_glide_rewards>  (189) 
-2.15149

>  <r_i_glide_evdw>  (189) 
-17.126

>  <r_i_glide_ecoul>  (189) 
-1.68996

>  <r_i_glide_erotb>  (189) 
0

>  <r_i_glide_esite>  (189) 
-0.190861

>  <r_i_glide_emodel>  (189) 
-23.4712

>  <r_i_glide_energy>  (189) 
-18.8159

>  <r_i_glide_einternal>  (189) 
0

>  <r_i_glide_intrahb_reward>  (189) 
-0

>  <i_i_glide_confnum>  (189) 
2

>  <i_i_glide_posenum>  (189) 
27

>  <r_i_glide_eff_state_penalty>  (189) 
0

>  <ligand_id>  (189) 
46

>  <original_smiles>  (189) 
Cc1ccc2cnn3nnnc3c2c1

>  <smiles>  (189) 
[H]c1c(C([H])([H])[H])c([H])c2c(c([H])nn3nnnc23)c1[H]

$$$$
46:0:2
     RDKit          3D

 21 23  0  0  1  0  0  0  0  0999 V2000
    3.1519   -1.9987   -4.2234 C   0  0  0  0  0  0  0  0  0  0  0  0
    3.5560   -2.0285   -2.7665 C   0  0  0  0  0  0  0  0  0  0  0  0
    4.4034   -1.0347   -2.2309 C   0  0  0  0  0  0  0  0  0  0  0  0
    4.7770   -1.0599   -0.8702 C   0  0  0  0  0  0  0  0  0  0  0  0
    4.3047   -2.0932   -0.0346 C   0  0  0  0  0  0  0  0  0  0  0  0
    4.6481   -2.1690    1.3335 C   0  0  0  0  0  0  0  0  0  0  0  0
    4.2205   -3.1428    2.1696 N   0  0  0  0  0  0  0  0  0  0  0  0
    3.4245   -4.0562    1.6026 N   0  0  0  0  0  0  0  0  0  0  0  0
    2.8897   -5.1062    2.2790 N   0  0  0  0  0  0  0  0  0  0  0  0
    2.1881   -5.7624    1.4043 N   0  0  0  0  0  0  0  0  0  0  0  0
    2.2165   -5.1850    0.1498 N   0  0  0  0  0  0  0  0  0  0  0  0
    2.9973   -4.1155    0.2724 C   0  0  0  0  0  0  0  0  0  0  0  0
    3.4577   -3.0833   -0.5844 C   0  0  0  0  0  0  0  0  0  0  0  0
    3.0755   -3.0581   -1.9370 C   0  0  0  0  0  0  0  0  0  0  0  0
    3.5867   -1.1452   -4.7437 H   0  0  0  0  0  0  0  0  0  0  0  0
    2.0673   -1.9328   -4.3138 H   0  0  0  0  0  0  0  0  0  0  0  0
    3.4762   -2.9145   -4.7180 H   0  0  0  0  0  0  0  0  0  0  0  0
    4.7559   -0.2340   -2.8632 H   0  0  0  0  0  0  0  0  0  0  0  0
    5.4136   -0.2809   -0.4748 H   0  0  0  0  0  0  0  0  0  0  0  0
    5.2913   -1.4249    1.7820 H   0  0  0  0  0  0  0  0  0  0  0  0
    2.4295   -3.8281   -2.3329 H   0  0  0  0  0  0  0  0  0  0  0  0
  1  2  1  0
  1 15  1  0
  1 16  1  0
  1 17  1  0
  2 14  2  0
  2  3  1  0
  3  4  2  0
  3 18  1  0
  4  5  1  0
  4 19  1  0
  5 13  2  0
  5  6  1  0
  6  7  2  0
  6 20  1  0
  7  8  1  0
  8 12  1  0
  8  9  1  0
  9 10  2  0
 10 11  1  0
 11 12  2  0
 12 13  1  0
 13 14  1  0
 14 21  1  0
M  END
>  <i_m_ct_stereo_status>  (190) 
1

>  <s_m_source_file>  (190) 
/var/tmp/pbs.5076255.sched01/tmpco4mv84g/486h_uxm9x.sdf

>  <i_m_source_file_index>  (190) 
34

>  <i_lp_mmshare_version>  (190) 
48012

>  <i_f3d_flags>  (190) 
0

>  <s_epik_input>  (190) 
W2NIXTFbY0hdYyhbQ0gzXSlbY0hdYyhjMTIpYzNuKG5bY0hdMilubm4z

>  <s_epik_cmdline>  (190) 
J2VwaWtfcHl0aG9uJywgJy1waHQnLCAnMi4wJywgJy1waCcsICc3LjAnLCAnLXRuJywgJzgnLCAnLW1hJywgJzIwMCcsICctaW1hZScsICc8aW5maWxlLm1hZT4nLCAnLW9tYWUnLCAnPG91dGZpbGUubWFlPic=

>  <r_lp_tautomer_probability>  (190) 
1

>  <r_epik_Ionization_Penalty>  (190) 
6.9781e-10

>  <r_epik_Ionization_Penalty_Charging>  (190) 
0

>  <r_epik_Ionization_Penalty_Neutral>  (190) 
6.9781e-10

>  <r_epik_State_Penalty>  (190) 
-0

>  <r_epik_Charging_Adjusted_Penalty>  (190) 
0

>  <i_epik_Tot_Q>  (190) 
0

>  <i_epik_Tot_abs_Q>  (190) 
0

>  <s_lp_Force_Field>  (190) 
OPLS3e

>  <r_lp_Energy>  (190) 
19.5837

>  <b_lp_Chiralities_Consistent>  (190) 
1

>  <s_lp_Variant>  (190) 
46:0-1

>  <s_i_glide_gridfile>  (190) 
pfpi4k_grid

>  <i_i_glide_lignum>  (190) 
34

>  <i_i_glide_rotatable_bonds>  (190) 
0

>  <r_i_docking_score>  (190) 
-3.44427

>  <r_i_glide_ligand_efficiency>  (190) 
-0.246019

>  <r_i_glide_ligand_efficiency_sa>  (190) 
-0.592941

>  <r_i_glide_ligand_efficiency_ln>  (190) 
-0.946472

>  <r_i_glide_gscore>  (190) 
-3.44427

>  <r_i_glide_lipo>  (190) 
-0.0232375

>  <r_i_glide_hbond>  (190) 
0

>  <r_i_glide_metal>  (190) 
-0

>  <r_i_glide_rewards>  (190) 
-2.15195

>  <r_i_glide_evdw>  (190) 
-19.0527

>  <r_i_glide_ecoul>  (190) 
-1.27853

>  <r_i_glide_erotb>  (190) 
0

>  <r_i_glide_esite>  (190) 
-0.124664

>  <r_i_glide_emodel>  (190) 
-24.7987

>  <r_i_glide_energy>  (190) 
-20.3312

>  <r_i_glide_einternal>  (190) 
0

>  <r_i_glide_intrahb_reward>  (190) 
-0

>  <i_i_glide_confnum>  (190) 
1

>  <i_i_glide_posenum>  (190) 
19

>  <r_i_glide_eff_state_penalty>  (190) 
0

>  <ligand_id>  (190) 
46

>  <original_smiles>  (190) 
Cc1ccc2cnn3nnnc3c2c1

>  <smiles>  (190) 
[H]c1c(C([H])([H])[H])c([H])c2c(c([H])nn3nnnc23)c1[H]

$$$$
47:0:0
     RDKit          3D

 24 25  0  0  1  0  0  0  0  0999 V2000
    3.0093   -1.6426    0.7899 O   0  0  0  0  0  0  0  0  0  0  0  0
    4.1520   -2.3183    0.3134 C   0  0  2  0  0  0  0  0  0  0  0  0
    5.1078   -1.2939   -0.3465 C   0  0  1  0  0  0  0  0  0  0  0  0
    6.4380   -1.5046    0.0857 O   0  0  0  0  0  0  0  0  0  0  0  0
    5.0283   -1.5719   -1.8437 C   0  0  2  0  0  0  0  0  0  0  0  0
    3.9122   -0.7787   -2.5462 C   0  0  0  0  0  0  0  0  0  0  0  0
    3.6835   -1.3016   -3.8506 O   0  0  0  0  0  0  0  0  0  0  0  0
    3.2904   -2.6448   -3.7825 C   0  0  0  0  0  0  0  0  0  0  0  0
    4.2920   -3.4599   -3.2460 O   0  0  0  0  0  0  0  0  0  0  0  0
    4.7366   -3.0731   -1.9402 C   0  0  2  0  0  0  0  0  0  0  0  0
    3.7542   -3.3387   -0.7798 C   0  0  1  0  0  0  0  0  0  0  0  0
    3.9289   -4.6596   -0.3222 O   0  0  0  0  0  0  0  0  0  0  0  0
    2.4205   -1.4375    0.0699 H   0  0  0  0  0  0  0  0  0  0  0  0
    4.6341   -2.8024    1.1635 H   0  0  0  0  0  0  0  0  0  0  0  0
    4.8503   -0.2627   -0.1037 H   0  0  0  0  0  0  0  0  0  0  0  0
    6.4674   -1.3959    1.0279 H   0  0  0  0  0  0  0  0  0  0  0  0
    5.9721   -1.3484   -2.3270 H   0  0  0  0  0  0  0  0  0  0  0  0
    2.9761   -0.8121   -1.9685 H   0  0  0  0  0  0  0  0  0  0  0  0
    4.2126    0.2648   -2.6521 H   0  0  0  0  0  0  0  0  0  0  0  0
    2.3328   -2.7655   -3.2503 H   0  0  0  0  0  0  0  0  0  0  0  0
    3.1395   -2.9825   -4.8069 H   0  0  0  0  0  0  0  0  0  0  0  0
    5.6693   -3.6131   -1.7640 H   0  0  0  0  0  0  0  0  0  0  0  0
    2.7231   -3.1906   -1.0985 H   0  0  0  0  0  0  0  0  0  0  0  0
    3.6640   -5.2555   -1.0166 H   0  0  0  0  0  0  0  0  0  0  0  0
  1  2  1  0
  1 13  1  0
  2 11  1  0
  2  3  1  0
  2 14  1  1
  3  4  1  0
  3  5  1  0
  3 15  1  6
  4 16  1  0
  5 10  1  0
  5  6  1  0
  5 17  1  6
  6  7  1  0
  6 18  1  0
  6 19  1  0
  7  8  1  0
  8  9  1  0
  8 20  1  0
  8 21  1  0
  9 10  1  0
 10 11  1  0
 10 22  1  1
 11 12  1  0
 11 23  1  6
 12 24  1  0
M  END
>  <i_m_ct_stereo_status>  (191) 
1

>  <s_m_source_file>  (191) 
/var/tmp/pbs.5076255.sched01/tmpco4mv84g/486h_uxm9x.sdf

>  <i_m_source_file_index>  (191) 
35

>  <i_lp_mmshare_version>  (191) 
48012

>  <i_f3d_flags>  (191) 
0

>  <s_epik_input>  (191) 
W09IXVtDQEBIXTFbQ0BASF0oW09IXSlbQ0BIXShbT0hdKVtDQEhdKFtDQEhdMTIpT1tDSDJdT1tDSDJdMg==

>  <s_epik_cmdline>  (191) 
J2VwaWtfcHl0aG9uJywgJy1waHQnLCAnMi4wJywgJy1waCcsICc3LjAnLCAnLXRuJywgJzgnLCAnLW1hJywgJzIwMCcsICctaW1hZScsICc8aW5maWxlLm1hZT4nLCAnLW9tYWUnLCAnPG91dGZpbGUubWFlPic=

>  <r_lp_tautomer_probability>  (191) 
1

>  <r_epik_Ionization_Penalty>  (191) 
3.55886e-07

>  <r_epik_Ionization_Penalty_Charging>  (191) 
0

>  <r_epik_Ionization_Penalty_Neutral>  (191) 
3.55886e-07

>  <r_epik_State_Penalty>  (191) 
-0

>  <r_epik_Charging_Adjusted_Penalty>  (191) 
0

>  <i_epik_Tot_Q>  (191) 
0

>  <i_epik_Tot_abs_Q>  (191) 
0

>  <s_epik_Chemistry_Notes>  (191) 
This compound contains an acetal/aminal-like group ( X-CH(R)-Y where X, Y are N, S, or O) that may be acid/base labile, releasing an aldehyde.

>  <s_lp_Force_Field>  (191) 
OPLS3e

>  <r_lp_Energy>  (191) 
13.4779

>  <b_lp_Chiralities_Consistent>  (191) 
1

>  <s_lp_Variant>  (191) 
47:0-1

>  <s_i_glide_gridfile>  (191) 
pfpi4k_grid

>  <i_i_glide_lignum>  (191) 
35

>  <i_i_glide_rotatable_bonds>  (191) 
3

>  <r_i_docking_score>  (191) 
-4.67677

>  <r_i_glide_ligand_efficiency>  (191) 
-0.389731

>  <r_i_glide_ligand_efficiency_sa>  (191) 
-0.892261

>  <r_i_glide_ligand_efficiency_ln>  (191) 
-1.34201

>  <r_i_glide_gscore>  (191) 
-4.67677

>  <r_i_glide_lipo>  (191) 
-0.0872986

>  <r_i_glide_hbond>  (191) 
-0.0141713

>  <r_i_glide_metal>  (191) 
-0

>  <r_i_glide_rewards>  (191) 
-2.4263

>  <r_i_glide_evdw>  (191) 
-19.7675

>  <r_i_glide_ecoul>  (191) 
-7.73751

>  <r_i_glide_erotb>  (191) 
0

>  <r_i_glide_esite>  (191) 
0

>  <r_i_glide_emodel>  (191) 
-35.2334

>  <r_i_glide_energy>  (191) 
-27.505

>  <r_i_glide_einternal>  (191) 
0.836381

>  <r_i_glide_intrahb_reward>  (191) 
-0

>  <i_i_glide_confnum>  (191) 
2

>  <i_i_glide_posenum>  (191) 
8

>  <r_i_glide_eff_state_penalty>  (191) 
0

>  <ligand_id>  (191) 
47

>  <original_smiles>  (191) 
OC1C(O)C2COCOC2C1O

>  <smiles>  (191) 
[H]OC1([H])C([H])(O[H])C2([H])OC([H])([H])OC([H])([H])C2([H])C1([H])O[H]

$$$$
47:0:1
     RDKit          3D

 24 25  0  0  1  0  0  0  0  0999 V2000
    3.0042   -1.7470    0.7950 O   0  0  0  0  0  0  0  0  0  0  0  0
    4.1551   -2.4096    0.3091 C   0  0  2  0  0  0  0  0  0  0  0  0
    5.1205   -1.3879   -0.3424 C   0  0  1  0  0  0  0  0  0  0  0  0
    6.4557   -1.6368    0.0603 O   0  0  0  0  0  0  0  0  0  0  0  0
    5.0336   -1.6389   -1.8427 C   0  0  2  0  0  0  0  0  0  0  0  0
    3.9136   -0.8368   -2.5273 C   0  0  0  0  0  0  0  0  0  0  0  0
    3.6814   -1.3366   -3.8403 O   0  0  0  0  0  0  0  0  0  0  0  0
    3.2935   -2.6806   -3.7945 C   0  0  0  0  0  0  0  0  0  0  0  0
    4.2997   -3.5002   -3.2711 O   0  0  0  0  0  0  0  0  0  0  0  0
    4.7397   -3.1391   -1.9552 C   0  0  2  0  0  0  0  0  0  0  0  0
    3.7627   -3.4193   -0.7915 C   0  0  1  0  0  0  0  0  0  0  0  0
    3.9426   -4.7401   -0.3191 O   0  0  0  0  0  0  0  0  0  0  0  0
    2.4545   -1.4554    0.0705 H   0  0  0  0  0  0  0  0  0  0  0  0
    4.6408   -2.9021    1.1553 H   0  0  0  0  0  0  0  0  0  0  0  0
    4.8789   -0.3574   -0.0805 H   0  0  0  0  0  0  0  0  0  0  0  0
    6.6095   -2.5713    0.0567 H   0  0  0  0  0  0  0  0  0  0  0  0
    5.9704   -1.4057   -2.3322 H   0  0  0  0  0  0  0  0  0  0  0  0
    2.9795   -0.8809   -1.9482 H   0  0  0  0  0  0  0  0  0  0  0  0
    4.2118    0.2091   -2.6147 H   0  0  0  0  0  0  0  0  0  0  0  0
    2.3399   -2.8138   -3.2619 H   0  0  0  0  0  0  0  0  0  0  0  0
    3.1424   -3.0038   -4.8213 H   0  0  0  0  0  0  0  0  0  0  0  0
    5.6746   -3.6811   -1.7955 H   0  0  0  0  0  0  0  0  0  0  0  0
    2.7332   -3.2759   -1.1098 H   0  0  0  0  0  0  0  0  0  0  0  0
    3.6777   -5.3311   -1.0124 H   0  0  0  0  0  0  0  0  0  0  0  0
  1  2  1  0
  1 13  1  0
  2 11  1  0
  2  3  1  0
  2 14  1  1
  3  4  1  0
  3  5  1  0
  3 15  1  6
  4 16  1  0
  5 10  1  0
  5  6  1  0
  5 17  1  6
  6  7  1  0
  6 18  1  0
  6 19  1  0
  7  8  1  0
  8  9  1  0
  8 20  1  0
  8 21  1  0
  9 10  1  0
 10 11  1  0
 10 22  1  1
 11 12  1  0
 11 23  1  6
 12 24  1  0
M  END
>  <i_m_ct_stereo_status>  (192) 
1

>  <s_m_source_file>  (192) 
/var/tmp/pbs.5076255.sched01/tmpco4mv84g/486h_uxm9x.sdf

>  <i_m_source_file_index>  (192) 
35

>  <i_lp_mmshare_version>  (192) 
48012

>  <i_f3d_flags>  (192) 
0

>  <s_epik_input>  (192) 
W09IXVtDQEBIXTFbQ0BASF0oW09IXSlbQ0BIXShbT0hdKVtDQEhdKFtDQEhdMTIpT1tDSDJdT1tDSDJdMg==

>  <s_epik_cmdline>  (192) 
J2VwaWtfcHl0aG9uJywgJy1waHQnLCAnMi4wJywgJy1waCcsICc3LjAnLCAnLXRuJywgJzgnLCAnLW1hJywgJzIwMCcsICctaW1hZScsICc8aW5maWxlLm1hZT4nLCAnLW9tYWUnLCAnPG91dGZpbGUubWFlPic=

>  <r_lp_tautomer_probability>  (192) 
1

>  <r_epik_Ionization_Penalty>  (192) 
3.55886e-07

>  <r_epik_Ionization_Penalty_Charging>  (192) 
0

>  <r_epik_Ionization_Penalty_Neutral>  (192) 
3.55886e-07

>  <r_epik_State_Penalty>  (192) 
-0

>  <r_epik_Charging_Adjusted_Penalty>  (192) 
0

>  <i_epik_Tot_Q>  (192) 
0

>  <i_epik_Tot_abs_Q>  (192) 
0

>  <s_epik_Chemistry_Notes>  (192) 
This compound contains an acetal/aminal-like group ( X-CH(R)-Y where X, Y are N, S, or O) that may be acid/base labile, releasing an aldehyde.

>  <s_lp_Force_Field>  (192) 
OPLS3e

>  <r_lp_Energy>  (192) 
13.4779

>  <b_lp_Chiralities_Consistent>  (192) 
1

>  <s_lp_Variant>  (192) 
47:0-1

>  <s_i_glide_gridfile>  (192) 
pfpi4k_grid

>  <i_i_glide_lignum>  (192) 
35

>  <i_i_glide_rotatable_bonds>  (192) 
3

>  <r_i_docking_score>  (192) 
-4.5393

>  <r_i_glide_ligand_efficiency>  (192) 
-0.378275

>  <r_i_glide_ligand_efficiency_sa>  (192) 
-0.866033

>  <r_i_glide_ligand_efficiency_ln>  (192) 
-1.30256

>  <r_i_glide_gscore>  (192) 
-4.5393

>  <r_i_glide_lipo>  (192) 
-0.0781387

>  <r_i_glide_hbond>  (192) 
-0.00854391

>  <r_i_glide_metal>  (192) 
-0

>  <r_i_glide_rewards>  (192) 
-2.41761

>  <r_i_glide_evdw>  (192) 
-19.5889

>  <r_i_glide_ecoul>  (192) 
-7.03707

>  <r_i_glide_erotb>  (192) 
0

>  <r_i_glide_esite>  (192) 
0

>  <r_i_glide_emodel>  (192) 
-34.2475

>  <r_i_glide_energy>  (192) 
-26.626

>  <r_i_glide_einternal>  (192) 
0.504499

>  <r_i_glide_intrahb_reward>  (192) 
-0

>  <i_i_glide_confnum>  (192) 
4

>  <i_i_glide_posenum>  (192) 
3

>  <r_i_glide_eff_state_penalty>  (192) 
0

>  <ligand_id>  (192) 
47

>  <original_smiles>  (192) 
OC1C(O)C2COCOC2C1O

>  <smiles>  (192) 
[H]OC1([H])C([H])(O[H])C2([H])OC([H])([H])OC([H])([H])C2([H])C1([H])O[H]

$$$$
47:0:2
     RDKit          3D

 24 25  0  0  1  0  0  0  0  0999 V2000
    3.3593   -2.2499    0.8546 O   0  0  0  0  0  0  0  0  0  0  0  0
    4.5483   -2.6886    0.2257 C   0  0  2  0  0  0  0  0  0  0  0  0
    5.2106   -1.4872   -0.4881 C   0  0  1  0  0  0  0  0  0  0  0  0
    6.6042   -1.4833   -0.2370 O   0  0  0  0  0  0  0  0  0  0  0  0
    4.9842   -1.7159   -1.9822 C   0  0  2  0  0  0  0  0  0  0  0  0
    3.6646   -1.1034   -2.4773 C   0  0  0  0  0  0  0  0  0  0  0  0
    3.3564   -1.6108   -3.7661 O   0  0  0  0  0  0  0  0  0  0  0  0
    3.2076   -2.9952   -3.7357 C   0  0  0  0  0  0  0  0  0  0  0  0
    4.3931   -3.6397   -3.3851 O   0  0  0  0  0  0  0  0  0  0  0  0
    4.9412   -3.2391   -2.1278 C   0  0  2  0  0  0  0  0  0  0  0  0
    4.1894   -3.7200   -0.8714 C   0  0  1  0  0  0  0  0  0  0  0  0
    4.6394   -5.0083   -0.5152 O   0  0  0  0  0  0  0  0  0  0  0  0
    3.5538   -1.4949    1.3898 H   0  0  0  0  0  0  0  0  0  0  0  0
    5.2078   -3.1160    0.9851 H   0  0  0  0  0  0  0  0  0  0  0  0
    4.8206   -0.5270   -0.1585 H   0  0  0  0  0  0  0  0  0  0  0  0
    6.7485   -1.4218    0.7004 H   0  0  0  0  0  0  0  0  0  0  0  0
    5.7884   -1.3119   -2.5763 H   0  0  0  0  0  0  0  0  0  0  0  0
    2.8361   -1.3191   -1.7967 H   0  0  0  0  0  0  0  0  0  0  0  0
    3.7657   -0.0226   -2.5656 H   0  0  0  0  0  0  0  0  0  0  0  0
    2.3700   -3.3034   -3.0930 H   0  0  0  0  0  0  0  0  0  0  0  0
    2.9736   -3.3047   -4.7504 H   0  0  0  0  0  0  0  0  0  0  0  0
    5.9656   -3.6167   -2.1071 H   0  0  0  0  0  0  0  0  0  0  0  0
    3.1115   -3.7438   -1.0385 H   0  0  0  0  0  0  0  0  0  0  0  0
    4.3268   -5.6064   -1.1871 H   0  0  0  0  0  0  0  0  0  0  0  0
  1  2  1  0
  1 13  1  0
  2 11  1  0
  2  3  1  0
  2 14  1  1
  3  4  1  0
  3  5  1  0
  3 15  1  1
  4 16  1  0
  5 10  1  0
  5  6  1  0
  5 17  1  6
  6  7  1  0
  6 18  1  0
  6 19  1  0
  7  8  1  0
  8  9  1  0
  8 20  1  0
  8 21  1  0
  9 10  1  0
 10 11  1  0
 10 22  1  1
 11 12  1  0
 11 23  1  6
 12 24  1  0
M  END
>  <i_m_ct_stereo_status>  (193) 
1

>  <s_m_source_file>  (193) 
/var/tmp/pbs.5076255.sched01/tmpco4mv84g/486h_uxm9x.sdf

>  <i_m_source_file_index>  (193) 
35

>  <i_lp_mmshare_version>  (193) 
48012

>  <i_f3d_flags>  (193) 
0

>  <s_epik_input>  (193) 
W09IXVtDQEBIXTFbQ0BASF0oW09IXSlbQ0BIXShbT0hdKVtDQEhdKFtDQEhdMTIpT1tDSDJdT1tDSDJdMg==

>  <s_epik_cmdline>  (193) 
J2VwaWtfcHl0aG9uJywgJy1waHQnLCAnMi4wJywgJy1waCcsICc3LjAnLCAnLXRuJywgJzgnLCAnLW1hJywgJzIwMCcsICctaW1hZScsICc8aW5maWxlLm1hZT4nLCAnLW9tYWUnLCAnPG91dGZpbGUubWFlPic=

>  <r_lp_tautomer_probability>  (193) 
1

>  <r_epik_Ionization_Penalty>  (193) 
3.55886e-07

>  <r_epik_Ionization_Penalty_Charging>  (193) 
0

>  <r_epik_Ionization_Penalty_Neutral>  (193) 
3.55886e-07

>  <r_epik_State_Penalty>  (193) 
-0

>  <r_epik_Charging_Adjusted_Penalty>  (193) 
0

>  <i_epik_Tot_Q>  (193) 
0

>  <i_epik_Tot_abs_Q>  (193) 
0

>  <s_epik_Chemistry_Notes>  (193) 
This compound contains an acetal/aminal-like group ( X-CH(R)-Y where X, Y are N, S, or O) that may be acid/base labile, releasing an aldehyde.

>  <s_lp_Force_Field>  (193) 
OPLS3e

>  <r_lp_Energy>  (193) 
13.4779

>  <b_lp_Chiralities_Consistent>  (193) 
1

>  <s_lp_Variant>  (193) 
47:0-1

>  <s_i_glide_gridfile>  (193) 
pfpi4k_grid

>  <i_i_glide_lignum>  (193) 
35

>  <i_i_glide_rotatable_bonds>  (193) 
3

>  <r_i_docking_score>  (193) 
-4.43416

>  <r_i_glide_ligand_efficiency>  (193) 
-0.369513

>  <r_i_glide_ligand_efficiency_sa>  (193) 
-0.845974

>  <r_i_glide_ligand_efficiency_ln>  (193) 
-1.27239

>  <r_i_glide_gscore>  (193) 
-4.43416

>  <r_i_glide_lipo>  (193) 
-0.102422

>  <r_i_glide_hbond>  (193) 
-0.111097

>  <r_i_glide_metal>  (193) 
-0

>  <r_i_glide_rewards>  (193) 
-2.45769

>  <r_i_glide_evdw>  (193) 
-18.4432

>  <r_i_glide_ecoul>  (193) 
-5.60525

>  <r_i_glide_erotb>  (193) 
0

>  <r_i_glide_esite>  (193) 
0

>  <r_i_glide_emodel>  (193) 
-31.3059

>  <r_i_glide_energy>  (193) 
-24.0484

>  <r_i_glide_einternal>  (193) 
1.11308

>  <r_i_glide_intrahb_reward>  (193) 
-0

>  <i_i_glide_confnum>  (193) 
2

>  <i_i_glide_posenum>  (193) 
25

>  <r_i_glide_eff_state_penalty>  (193) 
0

>  <ligand_id>  (193) 
47

>  <original_smiles>  (193) 
OC1C(O)C2COCOC2C1O

>  <smiles>  (193) 
[H]OC1([H])C([H])(O[H])C2([H])OC([H])([H])OC([H])([H])C2([H])C1([H])O[H]

$$$$
49:0:0
     RDKit          3D

 51 56  0  0  1  0  0  0  0  0999 V2000
    6.9053   -3.7725    0.7733 O   0  0  0  0  0  0  0  0  0  0  0  0
    5.7588   -3.9201    1.2445 C   0  0  0  0  0  0  0  0  0  0  0  0
    4.8994   -2.8802    1.3706 N   0  0  0  0  0  0  0  0  0  0  0  0
    4.5365   -2.4521    2.7449 C   0  0  0  0  0  0  0  0  0  0  0  0
    3.4846   -1.4240    2.6603 C   0  0  1  0  0  0  0  0  0  0  0  0
    3.2980   -0.1282    3.3147 C   0  0  0  0  0  0  0  0  0  0  0  0
    4.1822   -0.2330    2.0698 C   0  0  2  0  0  0  0  0  0  0  0  0
    4.0921   -0.6262    0.5979 C   0  0  0  0  0  0  0  0  0  0  0  0
    4.8347   -1.8832    0.2844 N   0  0  0  0  0  0  0  0  0  0  0  0
    4.6366   -2.3668   -1.0348 C   0  0  0  0  0  0  0  0  0  0  0  0
    3.3712   -2.5831   -1.4413 N   0  0  0  0  0  0  0  0  0  0  0  0
    3.2143   -3.0672   -2.6892 C   0  0  0  0  0  0  0  0  0  0  0  0
    4.1867   -3.3835   -3.5478 N   0  0  0  0  0  0  0  0  0  0  0  0
    5.4403   -3.2028   -3.1215 C   0  0  0  0  0  0  0  0  0  0  0  0
    5.7350   -2.6434   -1.8643 C   0  0  0  0  0  0  0  0  0  0  0  0
    7.0184   -2.4123   -1.4944 F   0  0  0  0  0  0  0  0  0  0  0  0
    5.3099   -5.3364    1.6440 C   0  0  2  0  0  0  0  0  0  0  0  0
    4.9569   -6.1589    0.3755 C   0  0  0  0  0  0  0  0  0  0  0  0
    4.5431   -7.5919    0.7855 C   0  0  1  0  0  0  0  0  0  0  0  0
    5.7128   -8.2623    1.5355 C   0  0  0  0  0  0  0  0  0  0  0  0
    6.0495   -7.4588    2.8075 C   0  0  2  0  0  0  0  0  0  0  0  0
    4.8149   -7.3872    3.7327 C   0  0  0  0  0  0  0  0  0  0  0  0
    3.6385   -6.7562    2.9602 C   0  0  2  0  0  0  0  0  0  0  0  0
    3.2941   -7.5476    1.6914 C   0  0  0  0  0  0  0  0  0  0  0  0
    4.0630   -5.3650    2.5628 C   0  0  0  0  0  0  0  0  0  0  0  0
    6.4713   -6.0338    2.3967 C   0  0  0  0  0  0  0  0  0  0  0  0
    4.0453   -3.1195    3.4106 H   0  0  0  0  0  0  0  0  0  0  0  0
    5.4411   -2.0908    3.2369 H   0  0  0  0  0  0  0  0  0  0  0  0
    2.5841   -1.8127    2.1868 H   0  0  0  0  0  0  0  0  0  0  0  0
    2.2978    0.3060    3.2300 H   0  0  0  0  0  0  0  0  0  0  0  0
    3.7481   -0.1083    4.3131 H   0  0  0  0  0  0  0  0  0  0  0  0
    5.2080   -0.0633    2.3638 H   0  0  0  0  0  0  0  0  0  0  0  0
    3.0514   -0.6705    0.2942 H   0  0  0  0  0  0  0  0  0  0  0  0
    4.5743    0.1646    0.0443 H   0  0  0  0  0  0  0  0  0  0  0  0
    2.2057   -3.2479   -3.0087 H   0  0  0  0  0  0  0  0  0  0  0  0
    6.2316   -3.4599   -3.7906 H   0  0  0  0  0  0  0  0  0  0  0  0
    4.1501   -5.6755   -0.1798 H   0  0  0  0  0  0  0  0  0  0  0  0
    5.8123   -6.1905   -0.3061 H   0  0  0  0  0  0  0  0  0  0  0  0
    4.2981   -8.1608   -0.1010 H   0  0  0  0  0  0  0  0  0  0  0  0
    5.4611   -9.2931    1.7854 H   0  0  0  0  0  0  0  0  0  0  0  0
    6.5858   -8.3026    0.8845 H   0  0  0  0  0  0  0  0  0  0  0  0
    6.8728   -7.9314    3.3403 H   0  0  0  0  0  0  0  0  0  0  0  0
    4.5317   -8.3712    4.0994 H   0  0  0  0  0  0  0  0  0  0  0  0
    5.0541   -6.7900    4.6150 H   0  0  0  0  0  0  0  0  0  0  0  0
    2.7663   -6.6518    3.6149 H   0  0  0  0  0  0  0  0  0  0  0  0
    2.4578   -7.0593    1.1835 H   0  0  0  0  0  0  0  0  0  0  0  0
    2.9664   -8.5494    1.9882 H   0  0  0  0  0  0  0  0  0  0  0  0
    4.3302   -4.9771    3.5275 H   0  0  0  0  0  0  0  0  0  0  0  0
    3.2336   -4.8226    2.1184 H   0  0  0  0  0  0  0  0  0  0  0  0
    7.3684   -6.0824    1.7738 H   0  0  0  0  0  0  0  0  0  0  0  0
    6.7489   -5.4515    3.2767 H   0  0  0  0  0  0  0  0  0  0  0  0
  1  2  2  0
  2  3  1  0
 17  2  1  6
  3  9  1  0
  3  4  1  0
  4  5  1  0
  4 27  1  0
  4 28  1  0
  5  7  1  0
  5  6  1  0
  5 29  1  6
  6  7  1  0
  6 30  1  0
  6 31  1  0
  7  8  1  0
  7 32  1  1
  8  9  1  0
  8 33  1  0
  8 34  1  0
  9 10  1  0
 10 15  1  0
 10 11  2  0
 11 12  1  0
 12 13  2  0
 12 35  1  0
 13 14  1  0
 14 15  2  0
 14 36  1  0
 15 16  1  0
 17 25  1  0
 17 26  1  0
 17 18  1  0
 18 19  1  0
 18 37  1  0
 18 38  1  0
 19 24  1  0
 19 20  1  0
 19 39  1  6
 20 21  1  0
 20 40  1  0
 20 41  1  0
 21 22  1  0
 21 26  1  0
 21 42  1  1
 22 23  1  0
 22 43  1  0
 22 44  1  0
 23 24  1  0
 23 25  1  0
 23 45  1  1
 24 46  1  0
 24 47  1  0
 25 48  1  0
 25 49  1  0
 26 50  1  0
 26 51  1  0
M  END
>  <i_m_ct_stereo_status>  (194) 
1

>  <s_m_source_file>  (194) 
/var/tmp/pbs.5076255.sched01/tmpco4mv84g/486h_uxm9x.sdf

>  <i_m_source_file_index>  (194) 
37

>  <i_lp_mmshare_version>  (194) 
48012

>  <i_f3d_flags>  (194) 
0

>  <s_epik_input>  (194) 
W0NIMl0xW0NASF0oW0NIMl0yKVtDSDJdW0NASF0oW0NIMl0zKVtDSDJdW0NAQEhdMVtDSDJdQzIzQyg9TylOKFtDSDJdNClOKFtDSDJdW0NASF0oW0NAQEhdNDUpW0NIMl01KWM2bltjSF1uW2NIXWM2Rg==

>  <s_epik_cmdline>  (194) 
J2VwaWtfcHl0aG9uJywgJy1waHQnLCAnMi4wJywgJy1waCcsICc3LjAnLCAnLXRuJywgJzgnLCAnLW1hJywgJzIwMCcsICctaW1hZScsICc8aW5maWxlLm1hZT4nLCAnLW9tYWUnLCAnPG91dGZpbGUubWFlPic=

>  <r_lp_tautomer_probability>  (194) 
1

>  <r_epik_Ionization_Penalty>  (194) 
5.26001e-07

>  <r_epik_Ionization_Penalty_Charging>  (194) 
0

>  <r_epik_Ionization_Penalty_Neutral>  (194) 
5.26001e-07

>  <r_epik_State_Penalty>  (194) 
-0

>  <r_epik_Charging_Adjusted_Penalty>  (194) 
0

>  <i_epik_Tot_Q>  (194) 
0

>  <i_epik_Tot_abs_Q>  (194) 
0

>  <s_lp_Force_Field>  (194) 
OPLS3e

>  <r_lp_Energy>  (194) 
81.127

>  <b_lp_Chiralities_Consistent>  (194) 
1

>  <s_lp_Variant>  (194) 
49:0-1

>  <s_i_glide_gridfile>  (194) 
pfpi4k_grid

>  <i_i_glide_lignum>  (194) 
37

>  <i_i_glide_rotatable_bonds>  (194) 
3

>  <r_i_docking_score>  (194) 
-3.46712

>  <r_i_glide_ligand_efficiency>  (194) 
-0.133351

>  <r_i_glide_ligand_efficiency_sa>  (194) 
-0.395051

>  <r_i_glide_ligand_efficiency_ln>  (194) 
-0.814242

>  <r_i_glide_gscore>  (194) 
-3.46712

>  <r_i_glide_lipo>  (194) 
-0.778326

>  <r_i_glide_hbond>  (194) 
0

>  <r_i_glide_metal>  (194) 
-0

>  <r_i_glide_rewards>  (194) 
-1.12316

>  <r_i_glide_evdw>  (194) 
-30.3449

>  <r_i_glide_ecoul>  (194) 
-2.59136

>  <r_i_glide_erotb>  (194) 
0.451776

>  <r_i_glide_esite>  (194) 
-0.111466

>  <r_i_glide_emodel>  (194) 
-37.1044

>  <r_i_glide_energy>  (194) 
-32.9362

>  <r_i_glide_einternal>  (194) 
0.890723

>  <r_i_glide_intrahb_reward>  (194) 
-0

>  <i_i_glide_confnum>  (194) 
6

>  <i_i_glide_posenum>  (194) 
33

>  <r_i_glide_eff_state_penalty>  (194) 
0

>  <ligand_id>  (194) 
49

>  <original_smiles>  (194) 
O=C(N1CC2CC2CN1c1ncncc1F)C12CC3CC(CC(C3)C1)C2

>  <smiles>  (194) 
[H]c1nc([H])c(F)c(N2N(C(=O)C34C([H])([H])C5([H])C([H])([H])C([H])(C([H])([H])C([H])(C5([H])[H])C3([H])[H])C4([H])[H])C([H])([H])C3([H])C([H])([H])C3([H])C2([H])[H])n1

$$$$
49:0:1
     RDKit          3D

 51 56  0  0  1  0  0  0  0  0999 V2000
    4.2796   -5.1143    3.7478 O   0  0  0  0  0  0  0  0  0  0  0  0
    4.4458   -5.5042    2.5808 C   0  0  0  0  0  0  0  0  0  0  0  0
    4.5035   -6.8113    2.2595 N   0  0  0  0  0  0  0  0  0  0  0  0
    5.8077   -7.3396    1.7785 C   0  0  0  0  0  0  0  0  0  0  0  0
    5.6013   -8.7300    1.2861 C   0  0  1  0  0  0  0  0  0  0  0  0
    6.2891  -10.0048    1.5265 C   0  0  0  0  0  0  0  0  0  0  0  0
    5.2800   -9.4980    2.5516 C   0  0  2  0  0  0  0  0  0  0  0  0
    3.8011   -9.2014    2.6641 C   0  0  0  0  0  0  0  0  0  0  0  0
    3.5377   -7.7499    2.8532 N   0  0  0  0  0  0  0  0  0  0  0  0
    2.1583   -7.4155    2.8095 C   0  0  0  0  0  0  0  0  0  0  0  0
    1.4480   -7.7813    1.7190 N   0  0  0  0  0  0  0  0  0  0  0  0
    0.1619   -7.4211    1.6749 C   0  0  0  0  0  0  0  0  0  0  0  0
   -0.4825   -6.6581    2.5748 N   0  0  0  0  0  0  0  0  0  0  0  0
    0.2062   -6.3345    3.6760 C   0  0  0  0  0  0  0  0  0  0  0  0
    1.5556   -6.7028    3.8586 C   0  0  0  0  0  0  0  0  0  0  0  0
    2.2073   -6.3342    4.9862 F   0  0  0  0  0  0  0  0  0  0  0  0
    4.5241   -4.4555    1.4568 C   0  0  2  0  0  0  0  0  0  0  0  0
    3.2928   -3.4986    1.5558 C   0  0  0  0  0  0  0  0  0  0  0  0
    3.4048   -2.3943    0.4787 C   0  0  1  0  0  0  0  0  0  0  0  0
    4.6916   -1.5808    0.7234 C   0  0  0  0  0  0  0  0  0  0  0  0
    5.9167   -2.5152    0.6179 C   0  0  2  0  0  0  0  0  0  0  0  0
    5.9576   -3.1642   -0.7805 C   0  0  0  0  0  0  0  0  0  0  0  0
    4.6460   -3.9419   -1.0357 C   0  0  2  0  0  0  0  0  0  0  0  0
    3.4307   -3.0118   -0.9387 C   0  0  0  0  0  0  0  0  0  0  0  0
    4.5197   -5.0638    0.0020 C   0  0  0  0  0  0  0  0  0  0  0  0
    5.8072   -3.6159    1.6841 C   0  0  0  0  0  0  0  0  0  0  0  0
    6.3327   -6.7948    0.9993 H   0  0  0  0  0  0  0  0  0  0  0  0
    6.4706   -7.3543    2.6613 H   0  0  0  0  0  0  0  0  0  0  0  0
    4.8970   -8.7869    0.4583 H   0  0  0  0  0  0  0  0  0  0  0  0
    6.0280  -10.8276    0.8685 H   0  0  0  0  0  0  0  0  0  0  0  0
    7.3453   -9.8350    1.7134 H   0  0  0  0  0  0  0  0  0  0  0  0
    5.8008   -9.2194    3.4601 H   0  0  0  0  0  0  0  0  0  0  0  0
    3.2641   -9.6252    1.8080 H   0  0  0  0  0  0  0  0  0  0  0  0
    3.4421   -9.7246    3.5580 H   0  0  0  0  0  0  0  0  0  0  0  0
   -0.4011   -7.6782    0.8013 H   0  0  0  0  0  0  0  0  0  0  0  0
   -0.3063   -5.7303    4.4141 H   0  0  0  0  0  0  0  0  0  0  0  0
    2.3688   -4.0611    1.4134 H   0  0  0  0  0  0  0  0  0  0  0  0
    3.2125   -3.0388    2.5436 H   0  0  0  0  0  0  0  0  0  0  0  0
    2.5376   -1.7333    0.5486 H   0  0  0  0  0  0  0  0  0  0  0  0
    4.7699   -0.7699    0.0013 H   0  0  0  0  0  0  0  0  0  0  0  0
    4.6540   -1.1292    1.7150 H   0  0  0  0  0  0  0  0  0  0  0  0
    6.8296   -1.9427    0.7911 H   0  0  0  0  0  0  0  0  0  0  0  0
    6.1109   -2.4161   -1.5551 H   0  0  0  0  0  0  0  0  0  0  0  0
    6.8154   -3.8409   -0.8306 H   0  0  0  0  0  0  0  0  0  0  0  0
    4.6857   -4.4071   -2.0171 H   0  0  0  0  0  0  0  0  0  0  0  0
    2.5281   -3.5977   -1.1203 H   0  0  0  0  0  0  0  0  0  0  0  0
    3.4884   -2.2449   -1.7139 H   0  0  0  0  0  0  0  0  0  0  0  0
    5.3619   -5.6724   -0.2692 H   0  0  0  0  0  0  0  0  0  0  0  0
    3.5904   -5.6337   -0.1704 H   0  0  0  0  0  0  0  0  0  0  0  0
    5.8034   -3.1616    2.6770 H   0  0  0  0  0  0  0  0  0  0  0  0
    6.6890   -4.2615    1.6596 H   0  0  0  0  0  0  0  0  0  0  0  0
  1  2  2  0
  2  3  1  0
 17  2  1  1
  3  9  1  0
  3  4  1  0
  4  5  1  0
  4 27  1  0
  4 28  1  0
  5  7  1  0
  5  6  1  0
  5 29  1  6
  6  7  1  0
  6 30  1  0
  6 31  1  0
  7  8  1  0
  7 32  1  1
  8  9  1  0
  8 33  1  0
  8 34  1  0
  9 10  1  0
 10 15  1  0
 10 11  2  0
 11 12  1  0
 12 13  2  0
 12 35  1  0
 13 14  1  0
 14 15  2  0
 14 36  1  0
 15 16  1  0
 17 25  1  0
 17 26  1  0
 17 18  1  0
 18 19  1  0
 18 37  1  0
 18 38  1  0
 19 24  1  0
 19 20  1  0
 19 39  1  6
 20 21  1  0
 20 40  1  0
 20 41  1  0
 21 22  1  0
 21 26  1  0
 21 42  1  1
 22 23  1  0
 22 43  1  0
 22 44  1  0
 23 24  1  0
 23 25  1  0
 23 45  1  6
 24 46  1  0
 24 47  1  0
 25 48  1  0
 25 49  1  0
 26 50  1  0
 26 51  1  0
M  END
>  <i_m_ct_stereo_status>  (195) 
1

>  <s_m_source_file>  (195) 
/var/tmp/pbs.5076255.sched01/tmpco4mv84g/486h_uxm9x.sdf

>  <i_m_source_file_index>  (195) 
37

>  <i_lp_mmshare_version>  (195) 
48012

>  <i_f3d_flags>  (195) 
0

>  <s_epik_input>  (195) 
W0NIMl0xW0NASF0oW0NIMl0yKVtDSDJdW0NASF0oW0NIMl0zKVtDSDJdW0NAQEhdMVtDSDJdQzIzQyg9TylOKFtDSDJdNClOKFtDSDJdW0NASF0oW0NAQEhdNDUpW0NIMl01KWM2bltjSF1uW2NIXWM2Rg==

>  <s_epik_cmdline>  (195) 
J2VwaWtfcHl0aG9uJywgJy1waHQnLCAnMi4wJywgJy1waCcsICc3LjAnLCAnLXRuJywgJzgnLCAnLW1hJywgJzIwMCcsICctaW1hZScsICc8aW5maWxlLm1hZT4nLCAnLW9tYWUnLCAnPG91dGZpbGUubWFlPic=

>  <r_lp_tautomer_probability>  (195) 
1

>  <r_epik_Ionization_Penalty>  (195) 
5.26001e-07

>  <r_epik_Ionization_Penalty_Charging>  (195) 
0

>  <r_epik_Ionization_Penalty_Neutral>  (195) 
5.26001e-07

>  <r_epik_State_Penalty>  (195) 
-0

>  <r_epik_Charging_Adjusted_Penalty>  (195) 
0

>  <i_epik_Tot_Q>  (195) 
0

>  <i_epik_Tot_abs_Q>  (195) 
0

>  <s_lp_Force_Field>  (195) 
OPLS3e

>  <r_lp_Energy>  (195) 
81.127

>  <b_lp_Chiralities_Consistent>  (195) 
1

>  <s_lp_Variant>  (195) 
49:0-1

>  <s_i_glide_gridfile>  (195) 
pfpi4k_grid

>  <i_i_glide_lignum>  (195) 
37

>  <i_i_glide_rotatable_bonds>  (195) 
3

>  <r_i_docking_score>  (195) 
-3.09106

>  <r_i_glide_ligand_efficiency>  (195) 
-0.118887

>  <r_i_glide_ligand_efficiency_sa>  (195) 
-0.352202

>  <r_i_glide_ligand_efficiency_ln>  (195) 
-0.725925

>  <r_i_glide_gscore>  (195) 
-3.09106

>  <r_i_glide_lipo>  (195) 
-0.331671

>  <r_i_glide_hbond>  (195) 
-0.16

>  <r_i_glide_metal>  (195) 
-0

>  <r_i_glide_rewards>  (195) 
-0.991979

>  <r_i_glide_evdw>  (195) 
-26.2525

>  <r_i_glide_ecoul>  (195) 
-4.42553

>  <r_i_glide_erotb>  (195) 
0.451776

>  <r_i_glide_esite>  (195) 
-0.0827301

>  <r_i_glide_emodel>  (195) 
-35.5929

>  <r_i_glide_energy>  (195) 
-30.6781

>  <r_i_glide_einternal>  (195) 
0.236471

>  <r_i_glide_intrahb_reward>  (195) 
-0

>  <i_i_glide_confnum>  (195) 
6

>  <i_i_glide_posenum>  (195) 
1

>  <r_i_glide_eff_state_penalty>  (195) 
0

>  <ligand_id>  (195) 
49

>  <original_smiles>  (195) 
O=C(N1CC2CC2CN1c1ncncc1F)C12CC3CC(CC(C3)C1)C2

>  <smiles>  (195) 
[H]c1nc([H])c(F)c(N2N(C(=O)C34C([H])([H])C5([H])C([H])([H])C([H])(C([H])([H])C([H])(C5([H])[H])C3([H])[H])C4([H])[H])C([H])([H])C3([H])C([H])([H])C3([H])C2([H])[H])n1

$$$$
49:0:2
     RDKit          3D

 51 56  0  0  1  0  0  0  0  0999 V2000
   -1.1289    0.5453    6.8837 O   0  0  0  0  0  0  0  0  0  0  0  0
   -0.4225    1.5268    7.1388 C   0  0  0  0  0  0  0  0  0  0  0  0
    0.7549    1.7576    6.5244 N   0  0  0  0  0  0  0  0  0  0  0  0
    1.9746    1.4299    7.2958 C   0  0  0  0  0  0  0  0  0  0  0  0
    3.1881    1.8748    6.5599 C   0  0  1  0  0  0  0  0  0  0  0  0
    4.4358    1.2149    6.1225 C   0  0  0  0  0  0  0  0  0  0  0  0
    3.1636    1.0094    5.3112 C   0  0  2  0  0  0  0  0  0  0  0  0
    2.1967    1.8177    4.4659 C   0  0  0  0  0  0  0  0  0  0  0  0
    0.8335    1.8482    5.0675 N   0  0  0  0  0  0  0  0  0  0  0  0
   -0.0522    2.7304    4.4091 C   0  0  0  0  0  0  0  0  0  0  0  0
    0.3479    4.0007    4.1783 N   0  0  0  0  0  0  0  0  0  0  0  0
   -0.5395    4.8256    3.6142 C   0  0  0  0  0  0  0  0  0  0  0  0
   -1.8145    4.5511    3.3213 N   0  0  0  0  0  0  0  0  0  0  0  0
   -2.2098    3.2765    3.5140 C   0  0  0  0  0  0  0  0  0  0  0  0
   -1.3547    2.3130    4.0702 C   0  0  0  0  0  0  0  0  0  0  0  0
   -1.7762    1.0384    4.2750 F   0  0  0  0  0  0  0  0  0  0  0  0
   -0.8862    2.5409    8.2083 C   0  0  2  0  0  0  0  0  0  0  0  0
   -2.4005    2.8381    8.0018 C   0  0  0  0  0  0  0  0  0  0  0  0
   -2.9198    3.7836    9.1059 C   0  0  1  0  0  0  0  0  0  0  0  0
   -2.7120    3.1159   10.4787 C   0  0  0  0  0  0  0  0  0  0  0  0
   -1.2092    2.8567   10.7006 C   0  0  2  0  0  0  0  0  0  0  0  0
   -0.4229    4.1823   10.6393 C   0  0  0  0  0  0  0  0  0  0  0  0
   -0.6479    4.8461    9.2650 C   0  0  2  0  0  0  0  0  0  0  0  0
   -2.1487    5.1177    9.0542 C   0  0  0  0  0  0  0  0  0  0  0  0
   -0.1315    3.9100    8.1556 C   0  0  0  0  0  0  0  0  0  0  0  0
   -0.6904    1.9040    9.6087 C   0  0  0  0  0  0  0  0  0  0  0  0
    1.9969    1.8927    8.2822 H   0  0  0  0  0  0  0  0  0  0  0  0
    2.0018    0.3475    7.4445 H   0  0  0  0  0  0  0  0  0  0  0  0
    3.2426    2.9630    6.4585 H   0  0  0  0  0  0  0  0  0  0  0  0
    5.2219    1.8583    5.7276 H   0  0  0  0  0  0  0  0  0  0  0  0
    4.7757    0.4095    6.7714 H   0  0  0  0  0  0  0  0  0  0  0  0
    2.8452   -0.0329    5.3748 H   0  0  0  0  0  0  0  0  0  0  0  0
    2.6044    2.8148    4.2690 H   0  0  0  0  0  0  0  0  0  0  0  0
    2.1129    1.3200    3.5025 H   0  0  0  0  0  0  0  0  0  0  0  0
   -0.2222    5.8406    3.4301 H   0  0  0  0  0  0  0  0  0  0  0  0
   -3.2399    3.0403    3.2667 H   0  0  0  0  0  0  0  0  0  0  0  0
   -2.5735    3.2853    7.0201 H   0  0  0  0  0  0  0  0  0  0  0  0
   -2.9867    1.9191    8.0233 H   0  0  0  0  0  0  0  0  0  0  0  0
   -3.9834    3.9707    8.9510 H   0  0  0  0  0  0  0  0  0  0  0  0
   -3.1100    3.7391   11.2795 H   0  0  0  0  0  0  0  0  0  0  0  0
   -3.2567    2.1722   10.5229 H   0  0  0  0  0  0  0  0  0  0  0  0
   -1.0650    2.3910   11.6765 H   0  0  0  0  0  0  0  0  0  0  0  0
   -0.7385    4.8487   11.4422 H   0  0  0  0  0  0  0  0  0  0  0  0
    0.6396    3.9893   10.7945 H   0  0  0  0  0  0  0  0  0  0  0  0
   -0.0987    5.7882    9.2286 H   0  0  0  0  0  0  0  0  0  0  0  0
   -2.2997    5.6010    8.0905 H   0  0  0  0  0  0  0  0  0  0  0  0
   -2.5225    5.8021    9.8169 H   0  0  0  0  0  0  0  0  0  0  0  0
    0.9415    3.8079    8.3076 H   0  0  0  0  0  0  0  0  0  0  0  0
   -0.2560    4.3883    7.1826 H   0  0  0  0  0  0  0  0  0  0  0  0
   -1.2094    0.9480    9.6683 H   0  0  0  0  0  0  0  0  0  0  0  0
    0.3588    1.6824    9.8028 H   0  0  0  0  0  0  0  0  0  0  0  0
  1  2  2  0
  2  3  1  0
 17  2  1  6
  3  9  1  0
  3  4  1  0
  4  5  1  0
  4 27  1  0
  4 28  1  0
  5  7  1  0
  5  6  1  0
  5 29  1  6
  6  7  1  0
  6 30  1  0
  6 31  1  0
  7  8  1  0
  7 32  1  1
  8  9  1  0
  8 33  1  0
  8 34  1  0
  9 10  1  0
 10 15  1  0
 10 11  2  0
 11 12  1  0
 12 13  2  0
 12 35  1  0
 13 14  1  0
 14 15  2  0
 14 36  1  0
 15 16  1  0
 17 25  1  0
 17 26  1  0
 17 18  1  0
 18 19  1  0
 18 37  1  0
 18 38  1  0
 19 24  1  0
 19 20  1  0
 19 39  1  6
 20 21  1  0
 20 40  1  0
 20 41  1  0
 21 22  1  0
 21 26  1  0
 21 42  1  1
 22 23  1  0
 22 43  1  0
 22 44  1  0
 23 24  1  0
 23 25  1  0
 23 45  1  1
 24 46  1  0
 24 47  1  0
 25 48  1  0
 25 49  1  0
 26 50  1  0
 26 51  1  0
M  END
>  <i_m_ct_stereo_status>  (196) 
1

>  <s_m_source_file>  (196) 
/var/tmp/pbs.5076255.sched01/tmpco4mv84g/486h_uxm9x.sdf

>  <i_m_source_file_index>  (196) 
37

>  <i_lp_mmshare_version>  (196) 
48012

>  <i_f3d_flags>  (196) 
0

>  <s_epik_input>  (196) 
W0NIMl0xW0NASF0oW0NIMl0yKVtDSDJdW0NASF0oW0NIMl0zKVtDSDJdW0NAQEhdMVtDSDJdQzIzQyg9TylOKFtDSDJdNClOKFtDSDJdW0NASF0oW0NAQEhdNDUpW0NIMl01KWM2bltjSF1uW2NIXWM2Rg==

>  <s_epik_cmdline>  (196) 
J2VwaWtfcHl0aG9uJywgJy1waHQnLCAnMi4wJywgJy1waCcsICc3LjAnLCAnLXRuJywgJzgnLCAnLW1hJywgJzIwMCcsICctaW1hZScsICc8aW5maWxlLm1hZT4nLCAnLW9tYWUnLCAnPG91dGZpbGUubWFlPic=

>  <r_lp_tautomer_probability>  (196) 
1

>  <r_epik_Ionization_Penalty>  (196) 
5.26001e-07

>  <r_epik_Ionization_Penalty_Charging>  (196) 
0

>  <r_epik_Ionization_Penalty_Neutral>  (196) 
5.26001e-07

>  <r_epik_State_Penalty>  (196) 
-0

>  <r_epik_Charging_Adjusted_Penalty>  (196) 
0

>  <i_epik_Tot_Q>  (196) 
0

>  <i_epik_Tot_abs_Q>  (196) 
0

>  <s_lp_Force_Field>  (196) 
OPLS3e

>  <r_lp_Energy>  (196) 
81.127

>  <b_lp_Chiralities_Consistent>  (196) 
1

>  <s_lp_Variant>  (196) 
49:0-1

>  <s_i_glide_gridfile>  (196) 
pfpi4k_grid

>  <i_i_glide_lignum>  (196) 
37

>  <i_i_glide_rotatable_bonds>  (196) 
3

>  <r_i_docking_score>  (196) 
-2.92618

>  <r_i_glide_ligand_efficiency>  (196) 
-0.112546

>  <r_i_glide_ligand_efficiency_sa>  (196) 
-0.333416

>  <r_i_glide_ligand_efficiency_ln>  (196) 
-0.687205

>  <r_i_glide_gscore>  (196) 
-2.92618

>  <r_i_glide_lipo>  (196) 
-0.0677687

>  <r_i_glide_hbond>  (196) 
-0.292458

>  <r_i_glide_metal>  (196) 
-0

>  <r_i_glide_rewards>  (196) 
-0.978838

>  <r_i_glide_evdw>  (196) 
-22.7667

>  <r_i_glide_ecoul>  (196) 
-4.98712

>  <r_i_glide_erotb>  (196) 
0.451776

>  <r_i_glide_esite>  (196) 
-0.152493

>  <r_i_glide_emodel>  (196) 
-33.0479

>  <r_i_glide_energy>  (196) 
-27.7538

>  <r_i_glide_einternal>  (196) 
0.583679

>  <r_i_glide_intrahb_reward>  (196) 
-0

>  <i_i_glide_confnum>  (196) 
6

>  <i_i_glide_posenum>  (196) 
2

>  <r_i_glide_eff_state_penalty>  (196) 
0

>  <ligand_id>  (196) 
49

>  <original_smiles>  (196) 
O=C(N1CC2CC2CN1c1ncncc1F)C12CC3CC(CC(C3)C1)C2

>  <smiles>  (196) 
[H]c1nc([H])c(F)c(N2N(C(=O)C34C([H])([H])C5([H])C([H])([H])C([H])(C([H])([H])C([H])(C5([H])[H])C3([H])[H])C4([H])[H])C([H])([H])C3([H])C([H])([H])C3([H])C2([H])[H])n1

$$$$
51:0:0
     RDKit          3D

 35 38  0  0  1  0  0  0  0  0999 V2000
    2.2337    3.7124    2.7793 C   0  0  0  0  0  0  0  0  0  0  0  0
    2.2129    3.8571    4.3107 C   0  0  0  0  0  0  0  0  0  0  0  0
    3.4935    4.5653    4.7888 C   0  0  0  0  0  0  0  0  0  0  0  0
    0.9682    4.6712    4.7387 C   0  0  0  0  0  0  0  0  0  0  0  0
   -0.3071    3.8508    4.9789 C   0  0  0  0  0  0  0  0  0  0  0  0
   -1.3103    4.5864    4.8224 O   0  0  0  0  0  0  0  0  0  0  0  0
   -0.2302    2.5187    5.3597 C   0  0  0  0  0  0  0  0  0  0  0  0
    1.0806    1.8641    5.3728 C   0  0  0  0  0  0  0  0  0  0  0  0
    1.1575    0.5302    5.7500 N   0  0  0  0  0  0  0  0  0  0  0  0
    0.0220   -0.2720    5.7616 C   0  0  0  0  0  0  0  0  0  0  0  0
   -0.0581   -1.5907    5.8096 N   0  0  0  0  0  0  0  0  0  0  0  0
   -1.4189   -1.8185    5.6835 N   0  0  0  0  0  0  0  0  0  0  0  0
   -2.0884   -0.7021    5.6267 N   0  0  0  0  0  0  0  0  0  0  0  0
   -1.1760    0.2950    5.6714 N   0  0  0  0  0  0  0  0  0  0  0  0
   -1.4924    1.7129    5.6775 C   0  0  1  0  0  0  0  0  0  0  0  0
   -2.0793    2.1187    7.0057 C   0  0  0  0  0  0  0  0  0  0  0  0
   -3.2985    2.6953    7.2521 C   0  0  0  0  0  0  0  0  0  0  0  0
   -3.5374    2.9465    8.6346 C   0  0  0  0  0  0  0  0  0  0  0  0
   -2.5017    2.5512    9.4351 C   0  0  0  0  0  0  0  0  0  0  0  0
   -1.1909    1.8948    8.5004 S   0  0  0  0  0  0  0  0  0  0  0  0
    2.1831    2.4665    4.8964 C   0  0  0  0  0  0  0  0  0  0  0  0
    2.2866    4.6765    2.2648 H   0  0  0  0  0  0  0  0  0  0  0  0
    1.3263    3.2100    2.4383 H   0  0  0  0  0  0  0  0  0  0  0  0
    3.0738    3.1065    2.4430 H   0  0  0  0  0  0  0  0  0  0  0  0
    3.5747    5.5781    4.3911 H   0  0  0  0  0  0  0  0  0  0  0  0
    4.3807    4.0159    4.4819 H   0  0  0  0  0  0  0  0  0  0  0  0
    3.5216    4.6280    5.8771 H   0  0  0  0  0  0  0  0  0  0  0  0
    1.1996    5.1861    5.6729 H   0  0  0  0  0  0  0  0  0  0  0  0
    0.7858    5.4613    4.0066 H   0  0  0  0  0  0  0  0  0  0  0  0
    2.0522    0.0659    5.7481 H   0  0  0  0  0  0  0  0  0  0  0  0
   -2.2107    1.8799    4.8725 H   0  0  0  0  0  0  0  0  0  0  0  0
   -4.0227    2.9397    6.4887 H   0  0  0  0  0  0  0  0  0  0  0  0
   -4.4584    3.3844    8.9877 H   0  0  0  0  0  0  0  0  0  0  0  0
   -2.4356    2.6059   10.5117 H   0  0  0  0  0  0  0  0  0  0  0  0
    3.1203    1.9397    4.8760 H   0  0  0  0  0  0  0  0  0  0  0  0
  1  2  1  0
  1 22  1  0
  1 23  1  0
  1 24  1  0
  2 21  1  0
  2  3  1  0
  2  4  1  0
  3 25  1  0
  3 26  1  0
  3 27  1  0
  4 28  1  0
  4 29  1  0
  4  5  1  0
  5  6  1  0
  5  7  2  0
  7 15  1  0
  7  8  1  0
  8 21  2  0
  8  9  1  0
  9 10  1  0
  9 30  1  0
 10 14  1  0
 10 11  2  0
 11 12  1  0
 12 13  2  0
 13 14  1  0
 14 15  1  0
 15 16  1  0
 15 31  1  6
 16 20  1  0
 16 17  2  0
 17 18  1  0
 17 32  1  0
 18 19  2  0
 18 33  1  0
 19 20  1  0
 19 34  1  0
 21 35  1  0
M  CHG  1   6  -1
M  END
>  <i_m_ct_stereo_status>  (197) 
1

>  <s_m_source_file>  (197) 
/var/tmp/pbs.5076255.sched01/tmpco4mv84g/486h_uxm9x.sdf

>  <i_m_source_file_index>  (197) 
39

>  <i_lp_mmshare_version>  (197) 
48012

>  <i_f3d_flags>  (197) 
0

>  <s_epik_input>  (197) 
Tz1DMVtDSDJdQyhbQ0gzXSkoW0NIM10pW0NIMl1DKFtDQEhdMTIpPU5jM24obm5uMylbQ0BIXTJjNFtjSF1bY0hdW2NIXXM0

>  <s_epik_cmdline>  (197) 
J2VwaWtfcHl0aG9uJywgJy1waHQnLCAnMi4wJywgJy1waCcsICc3LjAnLCAnLXRuJywgJzgnLCAnLW1hJywgJzIwMCcsICctaW1hZScsICc8aW5maWxlLm1hZT4nLCAnLW9tYWUnLCAnPG91dGZpbGUubWFlPic=

>  <r_epik_Ionization_Penalty>  (197) 
0.361238

>  <r_epik_Ionization_Penalty_Charging>  (197) 
0.361238

>  <r_epik_Ionization_Penalty_Neutral>  (197) 
2.26436e-09

>  <r_epik_State_Penalty>  (197) 
0.358083

>  <r_epik_Charging_Adjusted_Penalty>  (197) 
0.719321

>  <i_epik_Tot_Q>  (197) 
-1

>  <i_epik_Tot_abs_Q>  (197) 
1

>  <s_epik_Chemistry_Notes>  (197) 
This compound has an imine and may undergo hydrolysis.

>  <s_lp_Force_Field>  (197) 
OPLS3e

>  <r_lp_Energy>  (197) 
24.7281

>  <b_lp_Chiralities_Consistent>  (197) 
1

>  <s_lp_Variant>  (197) 
51:0-1

>  <s_i_glide_gridfile>  (197) 
pfpi4k_grid

>  <i_i_glide_lignum>  (197) 
39

>  <i_i_glide_rotatable_bonds>  (197) 
1

>  <r_i_docking_score>  (197) 
-2.98776

>  <r_i_glide_ligand_efficiency>  (197) 
-0.142274

>  <r_i_glide_ligand_efficiency_sa>  (197) 
-0.392524

>  <r_i_glide_ligand_efficiency_ln>  (197) 
-0.738718

>  <r_i_glide_gscore>  (197) 
-2.98776

>  <r_i_glide_lipo>  (197) 
-0.157139

>  <r_i_glide_hbond>  (197) 
-0.0376681

>  <r_i_glide_metal>  (197) 
-0

>  <r_i_glide_rewards>  (197) 
-1.36118

>  <r_i_glide_evdw>  (197) 
-20.5988

>  <r_i_glide_ecoul>  (197) 
-2.62155

>  <r_i_glide_erotb>  (197) 
0.203739

>  <r_i_glide_esite>  (197) 
-0.212341

>  <r_i_glide_emodel>  (197) 
-29.8113

>  <r_i_glide_energy>  (197) 
-23.2203

>  <r_i_glide_einternal>  (197) 
0.0614108

>  <r_i_glide_intrahb_reward>  (197) 
-0

>  <i_i_glide_confnum>  (197) 
3

>  <i_i_glide_posenum>  (197) 
2

>  <r_i_glide_eff_state_penalty>  (197) 
0

>  <ligand_id>  (197) 
51

>  <original_smiles>  (197) 
CC1(C)CC(=O)C2C(=Nc3nnnn3C2c2cccs2)C1

>  <smiles>  (197) 
[H]C1=C2C(=C([O-])C([H])([H])C1(C([H])([H])[H])C([H])([H])[H])C([H])(c1sc([H])c([H])c1[H])n1nnnc1N2[H]

$$$$
51:0:1
     RDKit          3D

 35 38  0  0  1  0  0  0  0  0999 V2000
    1.2369    0.2774    3.1586 C   0  0  0  0  0  0  0  0  0  0  0  0
    0.0561    1.2334    3.4149 C   0  0  0  0  0  0  0  0  0  0  0  0
   -0.5900    1.6457    2.0831 C   0  0  0  0  0  0  0  0  0  0  0  0
   -1.0020    0.5397    4.3100 C   0  0  0  0  0  0  0  0  0  0  0  0
   -0.7890    0.6836    5.8175 C   0  0  0  0  0  0  0  0  0  0  0  0
   -1.3847   -0.2554    6.3993 O   0  0  0  0  0  0  0  0  0  0  0  0
   -0.0984    1.7758    6.3326 C   0  0  0  0  0  0  0  0  0  0  0  0
    0.5356    2.7182    5.3987 C   0  0  0  0  0  0  0  0  0  0  0  0
    1.1878    3.8292    5.9084 N   0  0  0  0  0  0  0  0  0  0  0  0
    1.5686    3.8870    7.2413 C   0  0  0  0  0  0  0  0  0  0  0  0
    2.4449    4.6899    7.8209 N   0  0  0  0  0  0  0  0  0  0  0  0
    2.4731    4.2194    9.1268 N   0  0  0  0  0  0  0  0  0  0  0  0
    1.6566    3.2154    9.2931 N   0  0  0  0  0  0  0  0  0  0  0  0
    1.0592    3.0018    8.0946 N   0  0  0  0  0  0  0  0  0  0  0  0
    0.0326    2.0080    7.8440 C   0  0  1  0  0  0  0  0  0  0  0  0
   -1.2733    2.4385    8.4720 C   0  0  0  0  0  0  0  0  0  0  0  0
   -1.6006    2.4291    9.8048 C   0  0  0  0  0  0  0  0  0  0  0  0
   -2.9042    2.9435   10.0681 C   0  0  0  0  0  0  0  0  0  0  0  0
   -3.5584    3.3432    8.9396 C   0  0  0  0  0  0  0  0  0  0  0  0
   -2.5901    3.0943    7.5183 S   0  0  0  0  0  0  0  0  0  0  0  0
    0.6039    2.4705    4.0828 C   0  0  0  0  0  0  0  0  0  0  0  0
    0.9226   -0.6303    2.6390 H   0  0  0  0  0  0  0  0  0  0  0  0
    1.6958   -0.0221    4.1016 H   0  0  0  0  0  0  0  0  0  0  0  0
    2.0143    0.7531    2.5580 H   0  0  0  0  0  0  0  0  0  0  0  0
   -1.0210    0.7942    1.5585 H   0  0  0  0  0  0  0  0  0  0  0  0
    0.1326    2.1204    1.4195 H   0  0  0  0  0  0  0  0  0  0  0  0
   -1.3891    2.3705    2.2482 H   0  0  0  0  0  0  0  0  0  0  0  0
   -1.9813    0.9664    4.0848 H   0  0  0  0  0  0  0  0  0  0  0  0
   -1.0734   -0.5123    4.0298 H   0  0  0  0  0  0  0  0  0  0  0  0
    1.6460    4.4661    5.2721 H   0  0  0  0  0  0  0  0  0  0  0  0
    0.3701    1.0741    8.2934 H   0  0  0  0  0  0  0  0  0  0  0  0
   -0.9600    2.0773   10.6019 H   0  0  0  0  0  0  0  0  0  0  0  0
   -3.3054    2.9996   11.0682 H   0  0  0  0  0  0  0  0  0  0  0  0
   -4.5518    3.7644    8.8668 H   0  0  0  0  0  0  0  0  0  0  0  0
    1.1017    3.1670    3.4252 H   0  0  0  0  0  0  0  0  0  0  0  0
  1  2  1  0
  1 22  1  0
  1 23  1  0
  1 24  1  0
  2 21  1  0
  2  3  1  0
  2  4  1  0
  3 25  1  0
  3 26  1  0
  3 27  1  0
  4 28  1  0
  4 29  1  0
  4  5  1  0
  5  6  1  0
  5  7  2  0
  7 15  1  0
  7  8  1  0
  8 21  2  0
  8  9  1  0
  9 10  1  0
  9 30  1  0
 10 14  1  0
 10 11  2  0
 11 12  1  0
 12 13  2  0
 13 14  1  0
 14 15  1  0
 15 16  1  0
 15 31  1  1
 16 20  1  0
 16 17  2  0
 17 18  1  0
 17 32  1  0
 18 19  2  0
 18 33  1  0
 19 20  1  0
 19 34  1  0
 21 35  1  0
M  CHG  1   6  -1
M  END
>  <i_m_ct_stereo_status>  (198) 
1

>  <s_m_source_file>  (198) 
/var/tmp/pbs.5076255.sched01/tmpco4mv84g/486h_uxm9x.sdf

>  <i_m_source_file_index>  (198) 
39

>  <i_lp_mmshare_version>  (198) 
48012

>  <i_f3d_flags>  (198) 
0

>  <s_epik_input>  (198) 
Tz1DMVtDSDJdQyhbQ0gzXSkoW0NIM10pW0NIMl1DKFtDQEhdMTIpPU5jM24obm5uMylbQ0BIXTJjNFtjSF1bY0hdW2NIXXM0

>  <s_epik_cmdline>  (198) 
J2VwaWtfcHl0aG9uJywgJy1waHQnLCAnMi4wJywgJy1waCcsICc3LjAnLCAnLXRuJywgJzgnLCAnLW1hJywgJzIwMCcsICctaW1hZScsICc8aW5maWxlLm1hZT4nLCAnLW9tYWUnLCAnPG91dGZpbGUubWFlPic=

>  <r_epik_Ionization_Penalty>  (198) 
0.361238

>  <r_epik_Ionization_Penalty_Charging>  (198) 
0.361238

>  <r_epik_Ionization_Penalty_Neutral>  (198) 
2.26436e-09

>  <r_epik_State_Penalty>  (198) 
0.358083

>  <r_epik_Charging_Adjusted_Penalty>  (198) 
0.719321

>  <i_epik_Tot_Q>  (198) 
-1

>  <i_epik_Tot_abs_Q>  (198) 
1

>  <s_epik_Chemistry_Notes>  (198) 
This compound has an imine and may undergo hydrolysis.

>  <s_lp_Force_Field>  (198) 
OPLS3e

>  <r_lp_Energy>  (198) 
24.7281

>  <b_lp_Chiralities_Consistent>  (198) 
1

>  <s_lp_Variant>  (198) 
51:0-1

>  <s_i_glide_gridfile>  (198) 
pfpi4k_grid

>  <i_i_glide_lignum>  (198) 
39

>  <i_i_glide_rotatable_bonds>  (198) 
1

>  <r_i_docking_score>  (198) 
-2.8825

>  <r_i_glide_ligand_efficiency>  (198) 
-0.137262

>  <r_i_glide_ligand_efficiency_sa>  (198) 
-0.378695

>  <r_i_glide_ligand_efficiency_ln>  (198) 
-0.712692

>  <r_i_glide_gscore>  (198) 
-2.8825

>  <r_i_glide_lipo>  (198) 
-0.164722

>  <r_i_glide_hbond>  (198) 
-0.161464

>  <r_i_glide_metal>  (198) 
-0

>  <r_i_glide_rewards>  (198) 
-1.36118

>  <r_i_glide_evdw>  (198) 
-19.5964

>  <r_i_glide_ecoul>  (198) 
-2.7907

>  <r_i_glide_erotb>  (198) 
0.203739

>  <r_i_glide_esite>  (198) 
-0.000447178

>  <r_i_glide_emodel>  (198) 
-28.4486

>  <r_i_glide_energy>  (198) 
-22.3871

>  <r_i_glide_einternal>  (198) 
0.652123

>  <r_i_glide_intrahb_reward>  (198) 
-0

>  <i_i_glide_confnum>  (198) 
2

>  <i_i_glide_posenum>  (198) 
17

>  <r_i_glide_eff_state_penalty>  (198) 
0

>  <ligand_id>  (198) 
51

>  <original_smiles>  (198) 
CC1(C)CC(=O)C2C(=Nc3nnnn3C2c2cccs2)C1

>  <smiles>  (198) 
[H]C1=C2C(=C([O-])C([H])([H])C1(C([H])([H])[H])C([H])([H])[H])C([H])(c1sc([H])c([H])c1[H])n1nnnc1N2[H]

$$$$
51:0:2
     RDKit          3D

 35 38  0  0  1  0  0  0  0  0999 V2000
    2.3015    3.7514    2.9052 C   0  0  0  0  0  0  0  0  0  0  0  0
    2.4000    3.7601    4.4411 C   0  0  0  0  0  0  0  0  0  0  0  0
    3.7440    4.3646    4.8825 C   0  0  0  0  0  0  0  0  0  0  0  0
    1.2427    4.5950    5.0308 C   0  0  0  0  0  0  0  0  0  0  0  0
   -0.0561    3.8424    5.3102 C   0  0  0  0  0  0  0  0  0  0  0  0
   -0.9900    4.6910    5.2906 O   0  0  0  0  0  0  0  0  0  0  0  0
   -0.0361    2.4744    5.5585 C   0  0  0  0  0  0  0  0  0  0  0  0
    1.2383    1.7505    5.4204 C   0  0  0  0  0  0  0  0  0  0  0  0
    1.2596    0.3930    5.6892 N   0  0  0  0  0  0  0  0  0  0  0  0
    0.0905   -0.3573    5.7196 C   0  0  0  0  0  0  0  0  0  0  0  0
   -0.0649   -1.6669    5.7007 N   0  0  0  0  0  0  0  0  0  0  0  0
   -1.4316   -1.8187    5.6819 N   0  0  0  0  0  0  0  0  0  0  0  0
   -2.0420   -0.6634    5.6775 N   0  0  0  0  0  0  0  0  0  0  0  0
   -1.0746    0.2752    5.7673 N   0  0  0  0  0  0  0  0  0  0  0  0
   -1.3100    1.6998    5.9075 C   0  0  1  0  0  0  0  0  0  0  0  0
   -1.7430    2.0297    7.3105 C   0  0  0  0  0  0  0  0  0  0  0  0
   -1.0885    1.7299    8.4773 C   0  0  0  0  0  0  0  0  0  0  0  0
   -1.7631    2.2011    9.6444 C   0  0  0  0  0  0  0  0  0  0  0  0
   -2.9214    2.8679    9.3618 C   0  0  0  0  0  0  0  0  0  0  0  0
   -3.2027    2.9300    7.6444 S   0  0  0  0  0  0  0  0  0  0  0  0
    2.3317    2.3315    4.9144 C   0  0  0  0  0  0  0  0  0  0  0  0
    2.3747    4.7503    2.4659 H   0  0  0  0  0  0  0  0  0  0  0  0
    1.3484    3.3302    2.5809 H   0  0  0  0  0  0  0  0  0  0  0  0
    3.0777    3.1317    2.4572 H   0  0  0  0  0  0  0  0  0  0  0  0
    3.8582    5.4035    4.5650 H   0  0  0  0  0  0  0  0  0  0  0  0
    4.5839    3.7986    4.4834 H   0  0  0  0  0  0  0  0  0  0  0  0
    3.8514    4.3355    5.9658 H   0  0  0  0  0  0  0  0  0  0  0  0
    1.5681    5.0211    5.9787 H   0  0  0  0  0  0  0  0  0  0  0  0
    1.0576    5.4551    4.3818 H   0  0  0  0  0  0  0  0  0  0  0  0
    2.1203   -0.1189    5.5916 H   0  0  0  0  0  0  0  0  0  0  0  0
   -2.0885    1.9742    5.1958 H   0  0  0  0  0  0  0  0  0  0  0  0
   -0.1529    1.1900    8.5259 H   0  0  0  0  0  0  0  0  0  0  0  0
   -1.3839    2.0229   10.6417 H   0  0  0  0  0  0  0  0  0  0  0  0
   -3.6157    3.3082   10.0670 H   0  0  0  0  0  0  0  0  0  0  0  0
    3.2415    1.7641    4.7915 H   0  0  0  0  0  0  0  0  0  0  0  0
  1  2  1  0
  1 22  1  0
  1 23  1  0
  1 24  1  0
  2 21  1  0
  2  3  1  0
  2  4  1  0
  3 25  1  0
  3 26  1  0
  3 27  1  0
  4 28  1  0
  4 29  1  0
  4  5  1  0
  5  6  1  0
  5  7  2  0
  7 15  1  0
  7  8  1  0
  8 21  2  0
  8  9  1  0
  9 10  1  0
  9 30  1  0
 10 14  1  0
 10 11  2  0
 11 12  1  0
 12 13  2  0
 13 14  1  0
 14 15  1  0
 15 16  1  0
 15 31  1  6
 16 20  1  0
 16 17  2  0
 17 18  1  0
 17 32  1  0
 18 19  2  0
 18 33  1  0
 19 20  1  0
 19 34  1  0
 21 35  1  0
M  CHG  1   6  -1
M  END
>  <i_m_ct_stereo_status>  (199) 
1

>  <s_m_source_file>  (199) 
/var/tmp/pbs.5076255.sched01/tmpco4mv84g/486h_uxm9x.sdf

>  <i_m_source_file_index>  (199) 
39

>  <i_lp_mmshare_version>  (199) 
48012

>  <i_f3d_flags>  (199) 
0

>  <s_epik_input>  (199) 
Tz1DMVtDSDJdQyhbQ0gzXSkoW0NIM10pW0NIMl1DKFtDQEhdMTIpPU5jM24obm5uMylbQ0BIXTJjNFtjSF1bY0hdW2NIXXM0

>  <s_epik_cmdline>  (199) 
J2VwaWtfcHl0aG9uJywgJy1waHQnLCAnMi4wJywgJy1waCcsICc3LjAnLCAnLXRuJywgJzgnLCAnLW1hJywgJzIwMCcsICctaW1hZScsICc8aW5maWxlLm1hZT4nLCAnLW9tYWUnLCAnPG91dGZpbGUubWFlPic=

>  <r_epik_Ionization_Penalty>  (199) 
0.361238

>  <r_epik_Ionization_Penalty_Charging>  (199) 
0.361238

>  <r_epik_Ionization_Penalty_Neutral>  (199) 
2.26436e-09

>  <r_epik_State_Penalty>  (199) 
0.358083

>  <r_epik_Charging_Adjusted_Penalty>  (199) 
0.719321

>  <i_epik_Tot_Q>  (199) 
-1

>  <i_epik_Tot_abs_Q>  (199) 
1

>  <s_epik_Chemistry_Notes>  (199) 
This compound has an imine and may undergo hydrolysis.

>  <s_lp_Force_Field>  (199) 
OPLS3e

>  <r_lp_Energy>  (199) 
24.7281

>  <b_lp_Chiralities_Consistent>  (199) 
1

>  <s_lp_Variant>  (199) 
51:0-1

>  <s_i_glide_gridfile>  (199) 
pfpi4k_grid

>  <i_i_glide_lignum>  (199) 
39

>  <i_i_glide_rotatable_bonds>  (199) 
1

>  <r_i_docking_score>  (199) 
-2.84782

>  <r_i_glide_ligand_efficiency>  (199) 
-0.135611

>  <r_i_glide_ligand_efficiency_sa>  (199) 
-0.37414

>  <r_i_glide_ligand_efficiency_ln>  (199) 
-0.704119

>  <r_i_glide_gscore>  (199) 
-2.84782

>  <r_i_glide_lipo>  (199) 
-0.126595

>  <r_i_glide_hbond>  (199) 
0

>  <r_i_glide_metal>  (199) 
-0

>  <r_i_glide_rewards>  (199) 
-1.36118

>  <r_i_glide_evdw>  (199) 
-20.2704

>  <r_i_glide_ecoul>  (199) 
-2.24562

>  <r_i_glide_erotb>  (199) 
0.203739

>  <r_i_glide_esite>  (199) 
-0.213424

>  <r_i_glide_emodel>  (199) 
-28.7456

>  <r_i_glide_energy>  (199) 
-22.516

>  <r_i_glide_einternal>  (199) 
0.151973

>  <r_i_glide_intrahb_reward>  (199) 
-0

>  <i_i_glide_confnum>  (199) 
4

>  <i_i_glide_posenum>  (199) 
18

>  <r_i_glide_eff_state_penalty>  (199) 
0

>  <ligand_id>  (199) 
51

>  <original_smiles>  (199) 
CC1(C)CC(=O)C2C(=Nc3nnnn3C2c2cccs2)C1

>  <smiles>  (199) 
[H]C1=C2C(=C([O-])C([H])([H])C1(C([H])([H])[H])C([H])([H])[H])C([H])(c1sc([H])c([H])c1[H])n1nnnc1N2[H]

$$$$
51:1:0
     RDKit          3D

 36 39  0  0  1  0  0  0  0  0999 V2000
    3.1248   -2.8780    4.7736 C   0  0  0  0  0  0  0  0  0  0  0  0
    3.3087   -2.7066    3.2577 C   0  0  0  0  0  0  0  0  0  0  0  0
    2.0202   -3.0825    2.5159 C   0  0  0  0  0  0  0  0  0  0  0  0
    3.6943   -1.2361    2.9383 C   0  0  0  0  0  0  0  0  0  0  0  0
    4.4705   -1.1137    1.6334 C   0  0  0  0  0  0  0  0  0  0  0  0
    4.3445    0.1109    1.1026 O   0  0  0  0  0  0  0  0  0  0  0  0
    5.1789   -2.1181    1.0782 C   0  0  0  0  0  0  0  0  0  0  0  0
    5.2568   -3.3891    1.8004 C   0  0  0  0  0  0  0  0  0  0  0  0
    6.2443   -4.3000    1.4584 N   0  0  0  0  0  0  0  0  0  0  0  0
    7.2523   -3.9658    0.5686 C   0  0  0  0  0  0  0  0  0  0  0  0
    8.3793   -4.6022    0.3151 N   0  0  0  0  0  0  0  0  0  0  0  0
    8.9530   -3.8180   -0.6702 N   0  0  0  0  0  0  0  0  0  0  0  0
    8.2088   -2.7774   -0.9638 N   0  0  0  0  0  0  0  0  0  0  0  0
    7.1177   -2.8670   -0.1734 N   0  0  0  0  0  0  0  0  0  0  0  0
    5.9775   -1.9710   -0.2215 C   0  0  1  0  0  0  0  0  0  0  0  0
    5.1234   -2.2718   -1.4245 C   0  0  0  0  0  0  0  0  0  0  0  0
    4.9995   -3.4658   -2.0911 C   0  0  0  0  0  0  0  0  0  0  0  0
    4.1057   -3.4097   -3.1914 C   0  0  0  0  0  0  0  0  0  0  0  0
    3.5329   -2.1820   -3.3551 C   0  0  0  0  0  0  0  0  0  0  0  0
    4.1205   -1.0517   -2.1710 S   0  0  0  0  0  0  0  0  0  0  0  0
    4.3865   -3.6659    2.7843 C   0  0  0  0  0  0  0  0  0  0  0  0
    2.3604   -2.2023    5.1608 H   0  0  0  0  0  0  0  0  0  0  0  0
    4.0550   -2.6644    5.3003 H   0  0  0  0  0  0  0  0  0  0  0  0
    2.8376   -3.8991    5.0317 H   0  0  0  0  0  0  0  0  0  0  0  0
    1.1800   -2.4514    2.8120 H   0  0  0  0  0  0  0  0  0  0  0  0
    1.7439   -4.1237    2.6929 H   0  0  0  0  0  0  0  0  0  0  0  0
    2.1557   -2.9669    1.4391 H   0  0  0  0  0  0  0  0  0  0  0  0
    2.8020   -0.6105    2.9193 H   0  0  0  0  0  0  0  0  0  0  0  0
    4.3342   -0.8440    3.7301 H   0  0  0  0  0  0  0  0  0  0  0  0
    6.3124   -5.1866    1.9343 H   0  0  0  0  0  0  0  0  0  0  0  0
    6.3656   -0.9565   -0.2771 H   0  0  0  0  0  0  0  0  0  0  0  0
    5.5121   -4.3792   -1.8224 H   0  0  0  0  0  0  0  0  0  0  0  0
    3.8909   -4.2733   -3.7987 H   0  0  0  0  0  0  0  0  0  0  0  0
    2.7869   -1.8872   -4.0796 H   0  0  0  0  0  0  0  0  0  0  0  0
    4.4443   -4.6126    3.3001 H   0  0  0  0  0  0  0  0  0  0  0  0
    3.7733    0.6100    1.6654 H   0  0  0  0  0  0  0  0  0  0  0  0
  1  2  1  0
  1 22  1  0
  1 23  1  0
  1 24  1  0
  2 21  1  0
  2  3  1  0
  2  4  1  0
  3 25  1  0
  3 26  1  0
  3 27  1  0
  4 28  1  0
  4 29  1  0
  4  5  1  0
  5  6  1  0
  5  7  2  0
  6 36  1  0
  7 15  1  0
  7  8  1  0
  8 21  2  0
  8  9  1  0
  9 10  1  0
  9 30  1  0
 10 14  1  0
 10 11  2  0
 11 12  1  0
 12 13  2  0
 13 14  1  0
 14 15  1  0
 15 16  1  0
 15 31  1  6
 16 20  1  0
 16 17  2  0
 17 18  1  0
 17 32  1  0
 18 19  2  0
 18 33  1  0
 19 20  1  0
 19 34  1  0
 21 35  1  0
M  END
>  <i_m_ct_stereo_status>  (200) 
1

>  <s_m_source_file>  (200) 
/var/tmp/pbs.5076255.sched01/tmpco4mv84g/486h_uxm9x.sdf

>  <i_m_source_file_index>  (200) 
40

>  <i_lp_mmshare_version>  (200) 
48012

>  <i_f3d_flags>  (200) 
0

>  <s_epik_input>  (200) 
Tz1DMVtDSDJdQyhbQ0gzXSkoW0NIM10pW0NIMl1DKFtDQEhdMTIpPU5jM24obm5uMylbQ0BIXTJjNFtjSF1bY0hdW2NIXXM0

>  <s_epik_cmdline>  (200) 
J2VwaWtfcHl0aG9uJywgJy1waHQnLCAnMi4wJywgJy1waCcsICc3LjAnLCAnLXRuJywgJzgnLCAnLW1hJywgJzIwMCcsICctaW1hZScsICc8aW5maWxlLm1hZT4nLCAnLW9tYWUnLCAnPG91dGZpbGUubWFlPic=

>  <r_epik_Ionization_Penalty>  (200) 
0.464626

>  <r_epik_Ionization_Penalty_Charging>  (200) 
6.19766e-11

>  <r_epik_Ionization_Penalty_Neutral>  (200) 
0.464626

>  <r_epik_State_Penalty>  (200) 
0.468405

>  <r_epik_Charging_Adjusted_Penalty>  (200) 
0.468405

>  <i_epik_Tot_Q>  (200) 
0

>  <i_epik_Tot_abs_Q>  (200) 
0

>  <s_epik_Chemistry_Notes>  (200) 
This compound has an imine and may undergo hydrolysis.

>  <s_lp_Force_Field>  (200) 
OPLS3e

>  <r_lp_Energy>  (200) 
23.6132

>  <b_lp_Chiralities_Consistent>  (200) 
1

>  <s_lp_Variant>  (200) 
51:0-2

>  <s_i_glide_gridfile>  (200) 
pfpi4k_grid

>  <i_i_glide_lignum>  (200) 
40

>  <i_i_glide_rotatable_bonds>  (200) 
2

>  <r_i_docking_score>  (200) 
-3.67738

>  <r_i_glide_ligand_efficiency>  (200) 
-0.175113

>  <r_i_glide_ligand_efficiency_sa>  (200) 
-0.483124

>  <r_i_glide_ligand_efficiency_ln>  (200) 
-0.909224

>  <r_i_glide_gscore>  (200) 
-3.67738

>  <r_i_glide_lipo>  (200) 
-0.454123

>  <r_i_glide_hbond>  (200) 
-0.00429437

>  <r_i_glide_metal>  (200) 
-0

>  <r_i_glide_rewards>  (200) 
-1.63105

>  <r_i_glide_evdw>  (200) 
-29.4225

>  <r_i_glide_ecoul>  (200) 
-1.35574

>  <r_i_glide_erotb>  (200) 
0.202547

>  <r_i_glide_esite>  (200) 
-0.11597

>  <r_i_glide_emodel>  (200) 
-36.3727

>  <r_i_glide_energy>  (200) 
-30.7782

>  <r_i_glide_einternal>  (200) 
2.49302

>  <r_i_glide_intrahb_reward>  (200) 
-0

>  <i_i_glide_confnum>  (200) 
2

>  <i_i_glide_posenum>  (200) 
1

>  <r_i_glide_eff_state_penalty>  (200) 
0

>  <ligand_id>  (200) 
51

>  <original_smiles>  (200) 
CC1(C)CC(=O)C2C(=Nc3nnnn3C2c2cccs2)C1

>  <smiles>  (200) 
[H]OC1=C2C(=C([H])C(C([H])([H])[H])(C([H])([H])[H])C1([H])[H])N([H])c1nnnn1C2([H])c1sc([H])c([H])c1[H]

$$$$
51:1:1
     RDKit          3D

 36 39  0  0  1  0  0  0  0  0999 V2000
    2.9868   -2.4982    5.0610 C   0  0  0  0  0  0  0  0  0  0  0  0
    3.0336   -2.3482    3.5317 C   0  0  0  0  0  0  0  0  0  0  0  0
    1.6903   -2.7607    2.9126 C   0  0  0  0  0  0  0  0  0  0  0  0
    3.3580   -0.8767    3.1585 C   0  0  0  0  0  0  0  0  0  0  0  0
    4.0163   -0.7597    1.7903 C   0  0  0  0  0  0  0  0  0  0  0  0
    3.8057    0.4480    1.2535 O   0  0  0  0  0  0  0  0  0  0  0  0
    4.7048   -1.7538    1.1905 C   0  0  0  0  0  0  0  0  0  0  0  0
    4.8725   -3.0118    1.9228 C   0  0  0  0  0  0  0  0  0  0  0  0
    5.8367   -3.9137    1.5038 N   0  0  0  0  0  0  0  0  0  0  0  0
    6.7463   -3.5827    0.5100 C   0  0  0  0  0  0  0  0  0  0  0  0
    7.8700   -4.1894    0.1802 N   0  0  0  0  0  0  0  0  0  0  0  0
    8.3520   -3.3953   -0.8495 N   0  0  0  0  0  0  0  0  0  0  0  0
    7.5432   -2.4015   -1.1138 N   0  0  0  0  0  0  0  0  0  0  0  0
    6.5179   -2.5029   -0.2389 N   0  0  0  0  0  0  0  0  0  0  0  0
    5.3707   -1.6093   -0.1839 C   0  0  1  0  0  0  0  0  0  0  0  0
    4.4036   -1.9315   -1.2915 C   0  0  0  0  0  0  0  0  0  0  0  0
    3.5785   -3.0266   -1.3819 C   0  0  0  0  0  0  0  0  0  0  0  0
    2.7995   -3.0471   -2.5718 C   0  0  0  0  0  0  0  0  0  0  0  0
    3.0369   -1.9718   -3.3814 C   0  0  0  0  0  0  0  0  0  0  0  0
    4.2175   -0.8953   -2.6880 S   0  0  0  0  0  0  0  0  0  0  0  0
    4.0913   -3.2915    2.9800 C   0  0  0  0  0  0  0  0  0  0  0  0
    2.2430   -1.8322    5.5052 H   0  0  0  0  0  0  0  0  0  0  0  0
    3.9553   -2.2564    5.5012 H   0  0  0  0  0  0  0  0  0  0  0  0
    2.7448   -3.5200    5.3575 H   0  0  0  0  0  0  0  0  0  0  0  0
    0.8660   -2.1431    3.2729 H   0  0  0  0  0  0  0  0  0  0  0  0
    1.4519   -3.8029    3.1261 H   0  0  0  0  0  0  0  0  0  0  0  0
    1.7327   -2.6527    1.8260 H   0  0  0  0  0  0  0  0  0  0  0  0
    2.4544   -0.2689    3.2095 H   0  0  0  0  0  0  0  0  0  0  0  0
    4.0558   -0.4585    3.8846 H   0  0  0  0  0  0  0  0  0  0  0  0
    5.9642   -4.7890    1.9885 H   0  0  0  0  0  0  0  0  0  0  0  0
    5.7470   -0.5901   -0.2841 H   0  0  0  0  0  0  0  0  0  0  0  0
    3.5058   -3.8064   -0.6363 H   0  0  0  0  0  0  0  0  0  0  0  0
    2.0943   -3.8341   -2.7806 H   0  0  0  0  0  0  0  0  0  0  0  0
    2.5673   -1.7373   -4.3243 H   0  0  0  0  0  0  0  0  0  0  0  0
    4.2098   -4.2303    3.5016 H   0  0  0  0  0  0  0  0  0  0  0  0
    3.2971    0.9522    1.8676 H   0  0  0  0  0  0  0  0  0  0  0  0
  1  2  1  0
  1 22  1  0
  1 23  1  0
  1 24  1  0
  2 21  1  0
  2  3  1  0
  2  4  1  0
  3 25  1  0
  3 26  1  0
  3 27  1  0
  4 28  1  0
  4 29  1  0
  4  5  1  0
  5  6  1  0
  5  7  2  0
  6 36  1  0
  7 15  1  0
  7  8  1  0
  8 21  2  0
  8  9  1  0
  9 10  1  0
  9 30  1  0
 10 14  1  0
 10 11  2  0
 11 12  1  0
 12 13  2  0
 13 14  1  0
 14 15  1  0
 15 16  1  0
 15 31  1  6
 16 20  1  0
 16 17  2  0
 17 18  1  0
 17 32  1  0
 18 19  2  0
 18 33  1  0
 19 20  1  0
 19 34  1  0
 21 35  1  0
M  END
>  <i_m_ct_stereo_status>  (201) 
1

>  <s_m_source_file>  (201) 
/var/tmp/pbs.5076255.sched01/tmpco4mv84g/486h_uxm9x.sdf

>  <i_m_source_file_index>  (201) 
40

>  <i_lp_mmshare_version>  (201) 
48012

>  <i_f3d_flags>  (201) 
0

>  <s_epik_input>  (201) 
Tz1DMVtDSDJdQyhbQ0gzXSkoW0NIM10pW0NIMl1DKFtDQEhdMTIpPU5jM24obm5uMylbQ0BIXTJjNFtjSF1bY0hdW2NIXXM0

>  <s_epik_cmdline>  (201) 
J2VwaWtfcHl0aG9uJywgJy1waHQnLCAnMi4wJywgJy1waCcsICc3LjAnLCAnLXRuJywgJzgnLCAnLW1hJywgJzIwMCcsICctaW1hZScsICc8aW5maWxlLm1hZT4nLCAnLW9tYWUnLCAnPG91dGZpbGUubWFlPic=

>  <r_epik_Ionization_Penalty>  (201) 
0.464626

>  <r_epik_Ionization_Penalty_Charging>  (201) 
6.19766e-11

>  <r_epik_Ionization_Penalty_Neutral>  (201) 
0.464626

>  <r_epik_State_Penalty>  (201) 
0.468405

>  <r_epik_Charging_Adjusted_Penalty>  (201) 
0.468405

>  <i_epik_Tot_Q>  (201) 
0

>  <i_epik_Tot_abs_Q>  (201) 
0

>  <s_epik_Chemistry_Notes>  (201) 
This compound has an imine and may undergo hydrolysis.

>  <s_lp_Force_Field>  (201) 
OPLS3e

>  <r_lp_Energy>  (201) 
23.6132

>  <b_lp_Chiralities_Consistent>  (201) 
1

>  <s_lp_Variant>  (201) 
51:0-2

>  <s_i_glide_gridfile>  (201) 
pfpi4k_grid

>  <i_i_glide_lignum>  (201) 
40

>  <i_i_glide_rotatable_bonds>  (201) 
2

>  <r_i_docking_score>  (201) 
-3.49667

>  <r_i_glide_ligand_efficiency>  (201) 
-0.166508

>  <r_i_glide_ligand_efficiency_sa>  (201) 
-0.459383

>  <r_i_glide_ligand_efficiency_ln>  (201) 
-0.864543

>  <r_i_glide_gscore>  (201) 
-3.49667

>  <r_i_glide_lipo>  (201) 
-0.276496

>  <r_i_glide_hbond>  (201) 
0

>  <r_i_glide_metal>  (201) 
-0

>  <r_i_glide_rewards>  (201) 
-1.50344

>  <r_i_glide_evdw>  (201) 
-28.6301

>  <r_i_glide_ecoul>  (201) 
-2.67544

>  <r_i_glide_erotb>  (201) 
0.202547

>  <r_i_glide_esite>  (201) 
-0.0864618

>  <r_i_glide_emodel>  (201) 
-36.7419

>  <r_i_glide_energy>  (201) 
-31.3055

>  <r_i_glide_einternal>  (201) 
2.10454

>  <r_i_glide_intrahb_reward>  (201) 
-0

>  <i_i_glide_confnum>  (201) 
4

>  <i_i_glide_posenum>  (201) 
8

>  <r_i_glide_eff_state_penalty>  (201) 
0

>  <ligand_id>  (201) 
51

>  <original_smiles>  (201) 
CC1(C)CC(=O)C2C(=Nc3nnnn3C2c2cccs2)C1

>  <smiles>  (201) 
[H]OC1=C2C(=C([H])C(C([H])([H])[H])(C([H])([H])[H])C1([H])[H])N([H])c1nnnn1C2([H])c1sc([H])c([H])c1[H]

$$$$
51:1:2
     RDKit          3D

 36 39  0  0  1  0  0  0  0  0999 V2000
    2.9891   -2.2964    5.2214 C   0  0  0  0  0  0  0  0  0  0  0  0
    3.0116   -2.2069    3.6857 C   0  0  0  0  0  0  0  0  0  0  0  0
    1.6599   -2.6521    3.1040 C   0  0  0  0  0  0  0  0  0  0  0  0
    3.3237   -0.7491    3.2494 C   0  0  0  0  0  0  0  0  0  0  0  0
    3.9574   -0.6845    1.8649 C   0  0  0  0  0  0  0  0  0  0  0  0
    3.7341    0.4972    1.2794 O   0  0  0  0  0  0  0  0  0  0  0  0
    4.6434   -1.6982    1.2968 C   0  0  0  0  0  0  0  0  0  0  0  0
    4.8316   -2.9222    2.0785 C   0  0  0  0  0  0  0  0  0  0  0  0
    5.7993   -3.8336    1.6812 N   0  0  0  0  0  0  0  0  0  0  0  0
    6.6877   -3.5381    0.6574 C   0  0  0  0  0  0  0  0  0  0  0  0
    7.8095   -4.1525    0.3320 N   0  0  0  0  0  0  0  0  0  0  0  0
    8.2726   -3.3919   -0.7318 N   0  0  0  0  0  0  0  0  0  0  0  0
    7.4557   -2.4094   -1.0170 N   0  0  0  0  0  0  0  0  0  0  0  0
    6.4438   -2.4899   -0.1270 N   0  0  0  0  0  0  0  0  0  0  0  0
    5.2958   -1.5997   -0.0871 C   0  0  1  0  0  0  0  0  0  0  0  0
    4.3313   -1.9436   -1.1920 C   0  0  0  0  0  0  0  0  0  0  0  0
    4.1202   -1.2682   -2.3693 C   0  0  0  0  0  0  0  0  0  0  0  0
    3.1540   -1.9004   -3.2067 C   0  0  0  0  0  0  0  0  0  0  0  0
    2.6450   -3.0489   -2.6672 C   0  0  0  0  0  0  0  0  0  0  0  0
    3.3294   -3.3763   -1.1038 S   0  0  0  0  0  0  0  0  0  0  0  0
    4.0677   -3.1658    3.1561 C   0  0  0  0  0  0  0  0  0  0  0  0
    2.2511   -1.6171    5.6505 H   0  0  0  0  0  0  0  0  0  0  0  0
    3.9633   -2.0331    5.6357 H   0  0  0  0  0  0  0  0  0  0  0  0
    2.7594   -3.3075    5.5624 H   0  0  0  0  0  0  0  0  0  0  0  0
    0.8372   -2.0238    3.4499 H   0  0  0  0  0  0  0  0  0  0  0  0
    1.4318   -3.6878    3.3618 H   0  0  0  0  0  0  0  0  0  0  0  0
    1.6827   -2.5927    2.0144 H   0  0  0  0  0  0  0  0  0  0  0  0
    2.4187   -0.1424    3.2924 H   0  0  0  0  0  0  0  0  0  0  0  0
    4.0301   -0.2988    3.9495 H   0  0  0  0  0  0  0  0  0  0  0  0
    5.9349   -4.6907    2.1921 H   0  0  0  0  0  0  0  0  0  0  0  0
    5.6696   -0.5847   -0.2201 H   0  0  0  0  0  0  0  0  0  0  0  0
    4.6117   -0.3502   -2.6536 H   0  0  0  0  0  0  0  0  0  0  0  0
    2.8614   -1.4938   -4.1602 H   0  0  0  0  0  0  0  0  0  0  0  0
    1.9002   -3.7144   -3.0820 H   0  0  0  0  0  0  0  0  0  0  0  0
    4.1994   -4.0821    3.7129 H   0  0  0  0  0  0  0  0  0  0  0  0
    3.2574    1.0358    1.8877 H   0  0  0  0  0  0  0  0  0  0  0  0
  1  2  1  0
  1 22  1  0
  1 23  1  0
  1 24  1  0
  2 21  1  0
  2  3  1  0
  2  4  1  0
  3 25  1  0
  3 26  1  0
  3 27  1  0
  4 28  1  0
  4 29  1  0
  4  5  1  0
  5  6  1  0
  5  7  2  0
  6 36  1  0
  7 15  1  0
  7  8  1  0
  8 21  2  0
  8  9  1  0
  9 10  1  0
  9 30  1  0
 10 14  1  0
 10 11  2  0
 11 12  1  0
 12 13  2  0
 13 14  1  0
 14 15  1  0
 15 16  1  0
 15 31  1  6
 16 20  1  0
 16 17  2  0
 17 18  1  0
 17 32  1  0
 18 19  2  0
 18 33  1  0
 19 20  1  0
 19 34  1  0
 21 35  1  0
M  END
>  <i_m_ct_stereo_status>  (202) 
1

>  <s_m_source_file>  (202) 
/var/tmp/pbs.5076255.sched01/tmpco4mv84g/486h_uxm9x.sdf

>  <i_m_source_file_index>  (202) 
40

>  <i_lp_mmshare_version>  (202) 
48012

>  <i_f3d_flags>  (202) 
0

>  <s_epik_input>  (202) 
Tz1DMVtDSDJdQyhbQ0gzXSkoW0NIM10pW0NIMl1DKFtDQEhdMTIpPU5jM24obm5uMylbQ0BIXTJjNFtjSF1bY0hdW2NIXXM0

>  <s_epik_cmdline>  (202) 
J2VwaWtfcHl0aG9uJywgJy1waHQnLCAnMi4wJywgJy1waCcsICc3LjAnLCAnLXRuJywgJzgnLCAnLW1hJywgJzIwMCcsICctaW1hZScsICc8aW5maWxlLm1hZT4nLCAnLW9tYWUnLCAnPG91dGZpbGUubWFlPic=

>  <r_epik_Ionization_Penalty>  (202) 
0.464626

>  <r_epik_Ionization_Penalty_Charging>  (202) 
6.19766e-11

>  <r_epik_Ionization_Penalty_Neutral>  (202) 
0.464626

>  <r_epik_State_Penalty>  (202) 
0.468405

>  <r_epik_Charging_Adjusted_Penalty>  (202) 
0.468405

>  <i_epik_Tot_Q>  (202) 
0

>  <i_epik_Tot_abs_Q>  (202) 
0

>  <s_epik_Chemistry_Notes>  (202) 
This compound has an imine and may undergo hydrolysis.

>  <s_lp_Force_Field>  (202) 
OPLS3e

>  <r_lp_Energy>  (202) 
23.6132

>  <b_lp_Chiralities_Consistent>  (202) 
1

>  <s_lp_Variant>  (202) 
51:0-2

>  <s_i_glide_gridfile>  (202) 
pfpi4k_grid

>  <i_i_glide_lignum>  (202) 
40

>  <i_i_glide_rotatable_bonds>  (202) 
2

>  <r_i_docking_score>  (202) 
-3.41237

>  <r_i_glide_ligand_efficiency>  (202) 
-0.162494

>  <r_i_glide_ligand_efficiency_sa>  (202) 
-0.448309

>  <r_i_glide_ligand_efficiency_ln>  (202) 
-0.843703

>  <r_i_glide_gscore>  (202) 
-3.41237

>  <r_i_glide_lipo>  (202) 
-0.271579

>  <r_i_glide_hbond>  (202) 
0

>  <r_i_glide_metal>  (202) 
-0

>  <r_i_glide_rewards>  (202) 
-1.49093

>  <r_i_glide_evdw>  (202) 
-28.0292

>  <r_i_glide_ecoul>  (202) 
-2.52495

>  <r_i_glide_erotb>  (202) 
0.202547

>  <r_i_glide_esite>  (202) 
-0.0722168

>  <r_i_glide_emodel>  (202) 
-35.8464

>  <r_i_glide_energy>  (202) 
-30.5541

>  <r_i_glide_einternal>  (202) 
2.06687

>  <r_i_glide_intrahb_reward>  (202) 
-0

>  <i_i_glide_confnum>  (202) 
1

>  <i_i_glide_posenum>  (202) 
18

>  <r_i_glide_eff_state_penalty>  (202) 
0

>  <ligand_id>  (202) 
51

>  <original_smiles>  (202) 
CC1(C)CC(=O)C2C(=Nc3nnnn3C2c2cccs2)C1

>  <smiles>  (202) 
[H]OC1=C2C(=C([H])C(C([H])([H])[H])(C([H])([H])[H])C1([H])[H])N([H])c1nnnn1C2([H])c1sc([H])c([H])c1[H]

$$$$
52:0:0
     RDKit          3D

 26 30  0  0  1  0  0  0  0  0999 V2000
   -4.2571   -9.9747   -5.6848 C   0  0  0  0  0  0  0  0  0  0  0  0
   -4.8022   -9.2511   -6.7671 O   0  0  0  0  0  0  0  0  0  0  0  0
   -6.2249   -9.2690   -6.7881 C   0  0  2  0  0  0  0  0  0  0  0  0
   -6.8865   -8.3899   -7.9167 C   0  0  1  0  0  0  0  0  0  0  0  0
   -8.3386   -8.4878   -7.5919 C   0  0  0  0  0  0  0  0  0  0  0  0
   -7.7718   -7.6771   -6.4020 C   0  0  1  0  0  0  0  0  0  0  0  0
   -7.3072   -6.8340   -7.5869 C   0  0  1  0  0  0  0  0  0  0  0  0
   -7.1166   -5.7489   -6.3841 C   0  0  2  0  0  0  0  0  0  0  0  0
   -7.3717   -5.8299   -4.8286 C   0  0  0  0  0  0  0  0  0  0  0  0
   -6.6887   -7.2597   -4.7165 C   0  0  2  0  0  0  0  0  0  0  0  0
   -6.3261   -6.8834   -6.0573 C   0  0  1  0  0  0  0  0  0  0  0  0
   -6.9456   -8.6047   -5.5775 C   0  0  2  0  0  0  0  0  0  0  0  0
   -3.1723   -9.9412   -5.7466 H   0  0  0  0  0  0  0  0  0  0  0  0
   -4.5684  -11.0187   -5.7078 H   0  0  0  0  0  0  0  0  0  0  0  0
   -4.5470   -9.5370   -4.7306 H   0  0  0  0  0  0  0  0  0  0  0  0
   -6.5387  -10.3020   -6.8957 H   0  0  0  0  0  0  0  0  0  0  0  0
   -6.6761   -8.6352   -8.9578 H   0  0  0  0  0  0  0  0  0  0  0  0
   -9.0978   -8.0406   -8.2491 H   0  0  0  0  0  0  0  0  0  0  0  0
   -8.6646   -9.4760   -7.2864 H   0  0  0  0  0  0  0  0  0  0  0  0
   -8.0019   -6.3834   -8.2848 H   0  0  0  0  0  0  0  0  0  0  0  0
   -6.5090   -4.8962   -6.6547 H   0  0  0  0  0  0  0  0  0  0  0  0
   -6.8368   -5.0597   -4.2576 H   0  0  0  0  0  0  0  0  0  0  0  0
   -8.4446   -5.7974   -4.6329 H   0  0  0  0  0  0  0  0  0  0  0  0
   -5.7755   -7.2699   -4.0978 H   0  0  0  0  0  0  0  0  0  0  0  0
   -5.3288   -7.0399   -6.4485 H   0  0  0  0  0  0  0  0  0  0  0  0
   -7.5544   -9.3490   -5.0732 H   0  0  0  0  0  0  0  0  0  0  0  0
  1  2  1  0
  1 13  1  0
  1 14  1  0
  1 15  1  0
  2  3  1  0
  3 12  1  0
  3  4  1  0
  3 16  1  6
  4  7  1  0
  4  5  1  0
  4 17  1  6
  6  5  1  6
  5 18  1  0
  5 19  1  0
  6 11  1  0
  6 12  1  0
  6  7  1  0
  7  8  1  0
  7 20  1  6
  8 11  1  0
  8  9  1  0
  8 21  1  6
  9 10  1  0
  9 22  1  0
  9 23  1  0
 10 11  1  0
 10 12  1  0
 10 24  1  1
 11 25  1  6
 12 26  1  1
M  END
>  <i_m_ct_stereo_status>  (203) 
1

>  <s_m_source_file>  (203) 
/var/tmp/pbs.5076255.sched01/tmpco4mv84g/486h_uxm9x.sdf

>  <i_m_source_file_index>  (203) 
41

>  <i_lp_mmshare_version>  (203) 
48012

>  <i_f3d_flags>  (203) 
0

>  <s_epik_input>  (203) 
W0NAQF0xMjNbQ0BASF00W0NASF0oW0NIMl0xKVtDQEBIXShPW0NIM10pW0NASF0zW0NASF01W0NAQEhdMltDQEBIXTRbQ0gyXTU=

>  <s_epik_cmdline>  (203) 
J2VwaWtfcHl0aG9uJywgJy1waHQnLCAnMi4wJywgJy1waCcsICc3LjAnLCAnLXRuJywgJzgnLCAnLW1hJywgJzIwMCcsICctaW1hZScsICc8aW5maWxlLm1hZT4nLCAnLW9tYWUnLCAnPG91dGZpbGUubWFlPic=

>  <r_lp_tautomer_probability>  (203) 
1

>  <r_epik_Ionization_Penalty>  (203) 
5.78859e-11

>  <r_epik_Ionization_Penalty_Charging>  (203) 
0

>  <r_epik_Ionization_Penalty_Neutral>  (203) 
5.78859e-11

>  <r_epik_State_Penalty>  (203) 
-0

>  <r_epik_Charging_Adjusted_Penalty>  (203) 
0

>  <i_epik_Tot_Q>  (203) 
0

>  <i_epik_Tot_abs_Q>  (203) 
0

>  <s_lp_Force_Field>  (203) 
OPLS3e

>  <r_lp_Energy>  (203) 
317.977

>  <b_lp_Chiralities_Consistent>  (203) 
1

>  <s_lp_Variant>  (203) 
52:0-1

>  <s_i_glide_gridfile>  (203) 
pfpi4k_grid

>  <i_i_glide_lignum>  (203) 
41

>  <i_i_glide_rotatable_bonds>  (203) 
1

>  <r_i_docking_score>  (203) 
-5.52546

>  <r_i_glide_ligand_efficiency>  (203) 
-0.460455

>  <r_i_glide_ligand_efficiency_sa>  (203) 
-1.05418

>  <r_i_glide_ligand_efficiency_ln>  (203) 
-1.58554

>  <r_i_glide_gscore>  (203) 
-5.52546

>  <r_i_glide_lipo>  (203) 
-1.94506

>  <r_i_glide_hbond>  (203) 
0

>  <r_i_glide_metal>  (203) 
-0

>  <r_i_glide_rewards>  (203) 
-2.96667

>  <r_i_glide_evdw>  (203) 
-9.01094

>  <r_i_glide_ecoul>  (203) 
-1.08789

>  <r_i_glide_erotb>  (203) 
0

>  <r_i_glide_esite>  (203) 
0

>  <r_i_glide_emodel>  (203) 
-12.88

>  <r_i_glide_energy>  (203) 
-10.0988

>  <r_i_glide_einternal>  (203) 
0.0523217

>  <r_i_glide_intrahb_reward>  (203) 
-0

>  <i_i_glide_confnum>  (203) 
1

>  <i_i_glide_posenum>  (203) 
7

>  <r_i_glide_eff_state_penalty>  (203) 
0

>  <ligand_id>  (203) 
52

>  <original_smiles>  (203) 
COC1C2CC34C2C2CC(C23)C14

>  <smiles>  (203) 
[H]C([H])([H])OC1([H])C2([H])C([H])([H])C34C1([H])C1([H])C([H])([H])C([H])(C23[H])C14[H]

$$$$
52:0:1
     RDKit          3D

 26 30  0  0  1  0  0  0  0  0999 V2000
   -4.0635   -8.5580   -5.3664 C   0  0  0  0  0  0  0  0  0  0  0  0
   -4.6606   -7.5980   -6.2189 O   0  0  0  0  0  0  0  0  0  0  0  0
   -6.0827   -7.5777   -6.1217 C   0  0  2  0  0  0  0  0  0  0  0  0
   -6.7858   -6.4960   -7.0186 C   0  0  1  0  0  0  0  0  0  0  0  0
   -8.1937   -6.5858   -6.5906 C   0  0  0  0  0  0  0  0  0  0  0  0
   -7.4879   -5.9904   -5.3473 C   0  0  1  0  0  0  0  0  0  0  0  0
   -7.0507   -4.9781   -6.3966 C   0  0  1  0  0  0  0  0  0  0  0  0
   -6.7289   -4.1586   -5.0055 C   0  0  2  0  0  0  0  0  0  0  0  0
   -6.8809   -4.5564   -3.4637 C   0  0  0  0  0  0  0  0  0  0  0  0
   -6.2690   -5.9920   -3.7168 C   0  0  2  0  0  0  0  0  0  0  0  0
   -5.9814   -5.3545   -4.9759 C   0  0  1  0  0  0  0  0  0  0  0  0
   -6.6907   -7.1038   -4.7640 C   0  0  2  0  0  0  0  0  0  0  0  0
   -2.9843   -8.5428   -5.5179 H   0  0  0  0  0  0  0  0  0  0  0  0
   -4.4171   -9.5602   -5.6077 H   0  0  0  0  0  0  0  0  0  0  0  0
   -4.3074   -8.3388   -4.3243 H   0  0  0  0  0  0  0  0  0  0  0  0
   -6.4359   -8.5758   -6.3888 H   0  0  0  0  0  0  0  0  0  0  0  0
   -6.7750   -6.6734   -8.0931 H   0  0  0  0  0  0  0  0  0  0  0  0
   -8.9601   -5.9898   -7.0984 H   0  0  0  0  0  0  0  0  0  0  0  0
   -8.5411   -7.6140   -6.4770 H   0  0  0  0  0  0  0  0  0  0  0  0
   -7.7897   -4.3857   -6.9451 H   0  0  0  0  0  0  0  0  0  0  0  0
   -6.0495   -3.3267   -5.1505 H   0  0  0  0  0  0  0  0  0  0  0  0
   -6.2721   -3.9076   -2.8279 H   0  0  0  0  0  0  0  0  0  0  0  0
   -7.9271   -4.5726   -3.1442 H   0  0  0  0  0  0  0  0  0  0  0  0
   -5.3769   -6.2530   -3.1969 H   0  0  0  0  0  0  0  0  0  0  0  0
   -5.0189   -5.4308   -5.4868 H   0  0  0  0  0  0  0  0  0  0  0  0
   -7.3674   -7.8260   -4.3243 H   0  0  0  0  0  0  0  0  0  0  0  0
  1  2  1  0
  1 13  1  0
  1 14  1  0
  1 15  1  0
  2  3  1  0
  3 12  1  0
  3  4  1  0
  3 16  1  6
  4  7  1  0
  4  5  1  0
  4 17  1  6
  6  5  1  6
  5 18  1  0
  5 19  1  0
  6 11  1  0
  6 12  1  0
  6  7  1  0
  7  8  1  0
  7 20  1  6
  8 11  1  0
  8  9  1  0
  8 21  1  1
  9 10  1  0
  9 22  1  0
  9 23  1  0
 10 11  1  0
 10 12  1  0
 10 24  1  1
 11 25  1  6
 12 26  1  1
M  END
>  <i_m_ct_stereo_status>  (204) 
1

>  <s_m_source_file>  (204) 
/var/tmp/pbs.5076255.sched01/tmpco4mv84g/486h_uxm9x.sdf

>  <i_m_source_file_index>  (204) 
41

>  <i_lp_mmshare_version>  (204) 
48012

>  <i_f3d_flags>  (204) 
0

>  <s_epik_input>  (204) 
W0NAQF0xMjNbQ0BASF00W0NASF0oW0NIMl0xKVtDQEBIXShPW0NIM10pW0NASF0zW0NASF01W0NAQEhdMltDQEBIXTRbQ0gyXTU=

>  <s_epik_cmdline>  (204) 
J2VwaWtfcHl0aG9uJywgJy1waHQnLCAnMi4wJywgJy1waCcsICc3LjAnLCAnLXRuJywgJzgnLCAnLW1hJywgJzIwMCcsICctaW1hZScsICc8aW5maWxlLm1hZT4nLCAnLW9tYWUnLCAnPG91dGZpbGUubWFlPic=

>  <r_lp_tautomer_probability>  (204) 
1

>  <r_epik_Ionization_Penalty>  (204) 
5.78859e-11

>  <r_epik_Ionization_Penalty_Charging>  (204) 
0

>  <r_epik_Ionization_Penalty_Neutral>  (204) 
5.78859e-11

>  <r_epik_State_Penalty>  (204) 
-0

>  <r_epik_Charging_Adjusted_Penalty>  (204) 
0

>  <i_epik_Tot_Q>  (204) 
0

>  <i_epik_Tot_abs_Q>  (204) 
0

>  <s_lp_Force_Field>  (204) 
OPLS3e

>  <r_lp_Energy>  (204) 
317.977

>  <b_lp_Chiralities_Consistent>  (204) 
1

>  <s_lp_Variant>  (204) 
52:0-1

>  <s_i_glide_gridfile>  (204) 
pfpi4k_grid

>  <i_i_glide_lignum>  (204) 
41

>  <i_i_glide_rotatable_bonds>  (204) 
1

>  <r_i_docking_score>  (204) 
-4.26526

>  <r_i_glide_ligand_efficiency>  (204) 
-0.355438

>  <r_i_glide_ligand_efficiency_sa>  (204) 
-0.81375

>  <r_i_glide_ligand_efficiency_ln>  (204) 
-1.22392

>  <r_i_glide_gscore>  (204) 
-4.26526

>  <r_i_glide_lipo>  (204) 
-2.19691

>  <r_i_glide_hbond>  (204) 
0

>  <r_i_glide_metal>  (204) 
-0

>  <r_i_glide_rewards>  (204) 
-1.65

>  <r_i_glide_evdw>  (204) 
-4.81676

>  <r_i_glide_ecoul>  (204) 
-1.18338

>  <r_i_glide_erotb>  (204) 
0

>  <r_i_glide_esite>  (204) 
0

>  <r_i_glide_emodel>  (204) 
-8.1139

>  <r_i_glide_energy>  (204) 
-6.00015

>  <r_i_glide_einternal>  (204) 
0.018753

>  <r_i_glide_intrahb_reward>  (204) 
-0

>  <i_i_glide_confnum>  (204) 
1

>  <i_i_glide_posenum>  (204) 
16

>  <r_i_glide_eff_state_penalty>  (204) 
0

>  <ligand_id>  (204) 
52

>  <original_smiles>  (204) 
COC1C2CC34C2C2CC(C23)C14

>  <smiles>  (204) 
[H]C([H])([H])OC1([H])C2([H])C([H])([H])C34C1([H])C1([H])C([H])([H])C([H])(C23[H])C14[H]

$$$$
52:0:2
     RDKit          3D

 26 30  0  0  1  0  0  0  0  0999 V2000
   -8.9885   -6.8885   -8.2618 C   0  0  0  0  0  0  0  0  0  0  0  0
   -7.9240   -6.0144   -7.9359 O   0  0  0  0  0  0  0  0  0  0  0  0
   -8.0757   -5.3930   -6.6599 C   0  0  2  0  0  0  0  0  0  0  0  0
   -6.9523   -4.3264   -6.3202 C   0  0  1  0  0  0  0  0  0  0  0  0
   -7.3101   -3.9614   -4.9180 C   0  0  0  0  0  0  0  0  0  0  0  0
   -6.8328   -5.4254   -4.7899 C   0  0  1  0  0  0  0  0  0  0  0  0
   -5.6249   -4.8170   -5.4647 C   0  0  1  0  0  0  0  0  0  0  0  0
   -4.9518   -6.2156   -4.9686 C   0  0  2  0  0  0  0  0  0  0  0  0
   -5.5637   -7.4234   -4.1266 C   0  0  0  0  0  0  0  0  0  0  0  0
   -6.8836   -7.4869   -5.0065 C   0  0  2  0  0  0  0  0  0  0  0  0
   -6.0736   -6.5614   -5.7623 C   0  0  1  0  0  0  0  0  0  0  0  0
   -7.9005   -6.2820   -5.3682 C   0  0  2  0  0  0  0  0  0  0  0  0
   -8.8320   -7.3476   -9.2407 H   0  0  0  0  0  0  0  0  0  0  0  0
   -9.9363   -6.3503   -8.2867 H   0  0  0  0  0  0  0  0  0  0  0  0
   -9.0705   -7.6887   -7.5270 H   0  0  0  0  0  0  0  0  0  0  0  0
   -9.0466   -4.9064   -6.6773 H   0  0  0  0  0  0  0  0  0  0  0  0
   -6.8577   -3.4703   -6.9782 H   0  0  0  0  0  0  0  0  0  0  0  0
   -6.7414   -3.1729   -4.3996 H   0  0  0  0  0  0  0  0  0  0  0  0
   -8.3711   -3.8044   -4.7193 H   0  0  0  0  0  0  0  0  0  0  0  0
   -5.0443   -4.0127   -4.9887 H   0  0  0  0  0  0  0  0  0  0  0  0
   -4.0488   -6.4897   -5.5178 H   0  0  0  0  0  0  0  0  0  0  0  0
   -4.9571   -8.3276   -4.1984 H   0  0  0  0  0  0  0  0  0  0  0  0
   -5.7897   -7.1407   -3.0928 H   0  0  0  0  0  0  0  0  0  0  0  0
   -7.0100   -8.4175   -5.5905 H   0  0  0  0  0  0  0  0  0  0  0  0
   -5.9884   -6.6561   -6.8497 H   0  0  0  0  0  0  0  0  0  0  0  0
   -8.7590   -6.2540   -4.7214 H   0  0  0  0  0  0  0  0  0  0  0  0
  1  2  1  0
  1 13  1  0
  1 14  1  0
  1 15  1  0
  2  3  1  0
  3 12  1  0
  3  4  1  0
  3 16  1  6
  4  7  1  0
  4  5  1  0
  4 17  1  6
  6  5  1  6
  5 18  1  0
  5 19  1  0
  6 11  1  0
  6 12  1  0
  6  7  1  0
  7  8  1  0
  7 20  1  1
  8 11  1  0
  8  9  1  0
  8 21  1  6
  9 10  1  0
  9 22  1  0
  9 23  1  0
 10 11  1  0
 10 12  1  0
 10 24  1  6
 11 25  1  6
 12 26  1  1
M  END
>  <i_m_ct_stereo_status>  (205) 
1

>  <s_m_source_file>  (205) 
/var/tmp/pbs.5076255.sched01/tmpco4mv84g/486h_uxm9x.sdf

>  <i_m_source_file_index>  (205) 
41

>  <i_lp_mmshare_version>  (205) 
48012

>  <i_f3d_flags>  (205) 
0

>  <s_epik_input>  (205) 
W0NAQF0xMjNbQ0BASF00W0NASF0oW0NIMl0xKVtDQEBIXShPW0NIM10pW0NASF0zW0NASF01W0NAQEhdMltDQEBIXTRbQ0gyXTU=

>  <s_epik_cmdline>  (205) 
J2VwaWtfcHl0aG9uJywgJy1waHQnLCAnMi4wJywgJy1waCcsICc3LjAnLCAnLXRuJywgJzgnLCAnLW1hJywgJzIwMCcsICctaW1hZScsICc8aW5maWxlLm1hZT4nLCAnLW9tYWUnLCAnPG91dGZpbGUubWFlPic=

>  <r_lp_tautomer_probability>  (205) 
1

>  <r_epik_Ionization_Penalty>  (205) 
5.78859e-11

>  <r_epik_Ionization_Penalty_Charging>  (205) 
0

>  <r_epik_Ionization_Penalty_Neutral>  (205) 
5.78859e-11

>  <r_epik_State_Penalty>  (205) 
-0

>  <r_epik_Charging_Adjusted_Penalty>  (205) 
0

>  <i_epik_Tot_Q>  (205) 
0

>  <i_epik_Tot_abs_Q>  (205) 
0

>  <s_lp_Force_Field>  (205) 
OPLS3e

>  <r_lp_Energy>  (205) 
317.977

>  <b_lp_Chiralities_Consistent>  (205) 
1

>  <s_lp_Variant>  (205) 
52:0-1

>  <s_i_glide_gridfile>  (205) 
pfpi4k_grid

>  <i_i_glide_lignum>  (205) 
41

>  <i_i_glide_rotatable_bonds>  (205) 
1

>  <r_i_docking_score>  (205) 
-4.15246

>  <r_i_glide_ligand_efficiency>  (205) 
-0.346038

>  <r_i_glide_ligand_efficiency_sa>  (205) 
-0.79223

>  <r_i_glide_ligand_efficiency_ln>  (205) 
-1.19155

>  <r_i_glide_gscore>  (205) 
-4.15246

>  <r_i_glide_lipo>  (205) 
-2.00304

>  <r_i_glide_hbond>  (205) 
0

>  <r_i_glide_metal>  (205) 
-0

>  <r_i_glide_rewards>  (205) 
-1.65

>  <r_i_glide_evdw>  (205) 
-8.15602

>  <r_i_glide_ecoul>  (205) 
-0.610753

>  <r_i_glide_erotb>  (205) 
0

>  <r_i_glide_esite>  (205) 
0

>  <r_i_glide_emodel>  (205) 
-10.8674

>  <r_i_glide_energy>  (205) 
-8.76677

>  <r_i_glide_einternal>  (205) 
0.0345282

>  <r_i_glide_intrahb_reward>  (205) 
-0

>  <i_i_glide_confnum>  (205) 
2

>  <i_i_glide_posenum>  (205) 
1

>  <r_i_glide_eff_state_penalty>  (205) 
0

>  <ligand_id>  (205) 
52

>  <original_smiles>  (205) 
COC1C2CC34C2C2CC(C23)C14

>  <smiles>  (205) 
[H]C([H])([H])OC1([H])C2([H])C([H])([H])C34C1([H])C1([H])C([H])([H])C([H])(C23[H])C14[H]

$$$$
53:0:0
     RDKit          3D

 53 56  0  0  1  0  0  0  0  0999 V2000
    0.4280   -9.4259    6.4134 C   0  0  0  0  0  0  0  0  0  0  0  0
    1.2090   -9.5509    5.3630 C   0  0  0  0  0  0  0  0  0  0  0  0
    2.4964   -8.8473    5.1677 C   0  0  0  0  0  0  0  0  0  0  0  0
    3.0231   -8.1032    6.0299 O   0  0  0  0  0  0  0  0  0  0  0  0
    2.9873   -9.1078    3.7313 C   0  0  1  0  0  0  0  0  0  0  0  0
    1.6398   -9.3809    2.9877 C   0  0  2  0  0  0  0  0  0  0  0  0
    1.0117   -8.0608    2.4527 C   0  0  1  0  0  0  0  0  0  0  0  0
    0.4068   -7.2265    3.4391 O   0  0  0  0  0  0  0  0  0  0  0  0
   -0.8830   -7.3333    3.8512 C   0  0  0  0  0  0  0  0  0  0  0  0
   -1.7825   -8.3800    3.1809 C   0  0  0  0  0  0  0  0  0  0  0  0
   -1.3231   -6.6349    4.7713 O   0  0  0  0  0  0  0  0  0  0  0  0
    2.0328   -7.1990    1.6415 C   0  0  0  0  0  0  0  0  0  0  0  0
    3.4730   -7.7660    1.6092 C   0  0  1  0  0  0  0  0  0  0  0  0
    4.3912   -6.8696    0.7534 C   0  0  0  0  0  0  0  0  0  0  0  0
    3.9682   -8.0712    3.0486 C   0  0  1  0  0  0  0  0  0  0  0  0
    4.2579   -6.7511    3.8221 C   0  0  0  0  0  0  0  0  0  0  0  0
    5.2383   -8.7452    2.9778 O   0  0  0  0  0  0  0  0  0  0  0  0
    5.2585  -10.0016    3.6702 C   0  0  0  0  0  0  0  0  0  0  0  0
    6.1530  -10.9496    2.8687 C   0  0  0  0  0  0  0  0  0  0  0  0
    5.8215   -9.8009    5.0886 C   0  0  0  0  0  0  0  0  0  0  0  0
    3.7804  -10.4191    3.5829 C   0  0  1  0  0  0  0  0  0  0  0  0
    3.1596  -11.6528    4.3098 C   0  0  1  0  0  0  0  0  0  0  0  0
    3.4386  -11.6942    5.6981 O   0  0  0  0  0  0  0  0  0  0  0  0
    1.6139  -11.6682    4.0887 C   0  0  0  0  0  0  0  0  0  0  0  0
    0.9419  -10.2803    4.0546 C   0  0  1  0  0  0  0  0  0  0  0  0
   -0.5613   -9.8956    6.4605 H   0  0  0  0  0  0  0  0  0  0  0  0
    0.6813   -8.7925    7.2600 H   0  0  0  0  0  0  0  0  0  0  0  0
    1.8036   -9.9615    2.0928 H   0  0  0  0  0  0  0  0  0  0  0  0
    0.2637   -8.3316    1.7235 H   0  0  0  0  0  0  0  0  0  0  0  0
   -1.7158   -8.3289    2.0854 H   0  0  0  0  0  0  0  0  0  0  0  0
   -2.8221   -8.2370    3.4828 H   0  0  0  0  0  0  0  0  0  0  0  0
   -1.4916   -9.3694    3.5233 H   0  0  0  0  0  0  0  0  0  0  0  0
    1.6383   -7.1676    0.6267 H   0  0  0  0  0  0  0  0  0  0  0  0
    2.0184   -6.1552    1.9667 H   0  0  0  0  0  0  0  0  0  0  0  0
    3.4305   -8.7165    1.0738 H   0  0  0  0  0  0  0  0  0  0  0  0
    4.3950   -5.8375    1.1005 H   0  0  0  0  0  0  0  0  0  0  0  0
    4.0560   -6.8578   -0.2848 H   0  0  0  0  0  0  0  0  0  0  0  0
    5.4106   -7.2495    0.7631 H   0  0  0  0  0  0  0  0  0  0  0  0
    3.3468   -6.1955    4.0441 H   0  0  0  0  0  0  0  0  0  0  0  0
    4.9341   -6.0941    3.2686 H   0  0  0  0  0  0  0  0  0  0  0  0
    4.7652   -6.9568    4.7629 H   0  0  0  0  0  0  0  0  0  0  0  0
    6.1743  -11.9473    3.3053 H   0  0  0  0  0  0  0  0  0  0  0  0
    7.1707  -10.5647    2.8498 H   0  0  0  0  0  0  0  0  0  0  0  0
    5.8156  -11.0436    1.8329 H   0  0  0  0  0  0  0  0  0  0  0  0
    5.8926  -10.7413    5.6308 H   0  0  0  0  0  0  0  0  0  0  0  0
    5.2342   -9.1220    5.6951 H   0  0  0  0  0  0  0  0  0  0  0  0
    6.8224   -9.3833    5.0229 H   0  0  0  0  0  0  0  0  0  0  0  0
    3.6753  -10.6898    2.5358 H   0  0  0  0  0  0  0  0  0  0  0  0
    3.5509  -12.5712    3.8689 H   0  0  0  0  0  0  0  0  0  0  0  0
    2.8084  -12.2603    6.1310 H   0  0  0  0  0  0  0  0  0  0  0  0
    1.3977  -12.1313    3.1281 H   0  0  0  0  0  0  0  0  0  0  0  0
    1.1179  -12.2815    4.8441 H   0  0  0  0  0  0  0  0  0  0  0  0
   -0.1074  -10.5226    3.8837 H   0  0  0  0  0  0  0  0  0  0  0  0
  1  2  2  0
  1 26  1  0
  1 27  1  0
  2 25  1  0
  2  3  1  0
  3  4  2  0
  5  3  1  1
  5 15  1  0
  5 21  1  0
  5  6  1  0
  6 25  1  0
  6  7  1  0
  6 28  1  6
  7  8  1  0
  7 12  1  0
  7 29  1  6
  8  9  1  0
  9 10  1  0
  9 11  2  0
 10 30  1  0
 10 31  1  0
 10 32  1  0
 12 13  1  0
 12 33  1  0
 12 34  1  0
 13 14  1  0
 13 15  1  0
 13 35  1  6
 14 36  1  0
 14 37  1  0
 14 38  1  0
 15 16  1  1
 15 17  1  0
 16 39  1  0
 16 40  1  0
 16 41  1  0
 17 18  1  0
 18 19  1  0
 18 20  1  0
 18 21  1  0
 19 42  1  0
 19 43  1  0
 19 44  1  0
 20 45  1  0
 20 46  1  0
 20 47  1  0
 21 22  1  0
 21 48  1  6
 22 23  1  0
 22 24  1  0
 22 49  1  6
 23 50  1  0
 24 25  1  0
 24 51  1  0
 24 52  1  0
 25 53  1  6
M  END
>  <i_m_ct_stereo_status>  (206) 
1

>  <s_m_source_file>  (206) 
/var/tmp/pbs.5076255.sched01/tmpco4mv84g/486h_uxm9x.sdf

>  <i_m_source_file_index>  (206) 
42

>  <i_lp_mmshare_version>  (206) 
48012

>  <i_f3d_flags>  (206) 
0

>  <s_epik_input>  (206) 
Tz1DMUMoPVtDSDJdKVtDQEBIXShbQ0BASF0yW0NAXTEzNClbQ0gyXVtDQEhdKFtPSF0pW0NAQEhdNEMoW0NIM10pKFtDSDNdKU9bQ0BAXTMoW0NIM10pW0NASF0oW0NIM10pW0NIMl1bQ0BASF0yT0MoPU8pW0NIM10=

>  <s_epik_cmdline>  (206) 
J2VwaWtfcHl0aG9uJywgJy1waHQnLCAnMi4wJywgJy1waCcsICc3LjAnLCAnLXRuJywgJzgnLCAnLW1hJywgJzIwMCcsICctaW1hZScsICc8aW5maWxlLm1hZT4nLCAnLW9tYWUnLCAnPG91dGZpbGUubWFlPic=

>  <r_lp_tautomer_probability>  (206) 
1

>  <r_epik_Ionization_Penalty>  (206) 
5.48694e-08

>  <r_epik_Ionization_Penalty_Charging>  (206) 
0

>  <r_epik_Ionization_Penalty_Neutral>  (206) 
5.48694e-08

>  <r_epik_State_Penalty>  (206) 
-0

>  <r_epik_Charging_Adjusted_Penalty>  (206) 
0

>  <i_epik_Tot_Q>  (206) 
0

>  <i_epik_Tot_abs_Q>  (206) 
0

>  <s_epik_Chemistry_Notes>  (206) 
This compound has an ester and may undergo hydrolysis at high or low pH.

>  <s_lp_Force_Field>  (206) 
OPLS3e

>  <r_lp_Energy>  (206) 
34.36

>  <b_lp_Chiralities_Consistent>  (206) 
1

>  <s_lp_Variant>  (206) 
53:0-1

>  <s_i_glide_gridfile>  (206) 
pfpi4k_grid

>  <i_i_glide_lignum>  (206) 
42

>  <i_i_glide_rotatable_bonds>  (206) 
3

>  <r_i_docking_score>  (206) 
-3.23701

>  <r_i_glide_ligand_efficiency>  (206) 
-0.12948

>  <r_i_glide_ligand_efficiency_sa>  (206) 
-0.378603

>  <r_i_glide_ligand_efficiency_ln>  (206) 
-0.767268

>  <r_i_glide_gscore>  (206) 
-3.23701

>  <r_i_glide_lipo>  (206) 
-0.15357

>  <r_i_glide_hbond>  (206) 
-0.153796

>  <r_i_glide_metal>  (206) 
-0

>  <r_i_glide_rewards>  (206) 
-1.03341

>  <r_i_glide_evdw>  (206) 
-27.3164

>  <r_i_glide_ecoul>  (206) 
-4.0982

>  <r_i_glide_erotb>  (206) 
0.156801

>  <r_i_glide_esite>  (206) 
-0.0724836

>  <r_i_glide_emodel>  (206) 
-34.5304

>  <r_i_glide_energy>  (206) 
-31.4146

>  <r_i_glide_einternal>  (206) 
6.6758

>  <r_i_glide_intrahb_reward>  (206) 
-0

>  <i_i_glide_confnum>  (206) 
3

>  <i_i_glide_posenum>  (206) 
30

>  <r_i_glide_eff_state_penalty>  (206) 
0

>  <ligand_id>  (206) 
53

>  <original_smiles>  (206) 
C=C1C(=O)C23C4C(OC(C)=O)CC(C)C2(C)OC(C)(C)C3C(O)CC14

>  <smiles>  (206) 
[H]OC1([H])C([H])([H])C2([H])C(=C([H])[H])C(=O)C34C2([H])C([H])(OC(=O)C([H])([H])[H])C([H])([H])C([H])(C([H])([H])[H])C3(C([H])([H])[H])OC(C([H])([H])[H])(C([H])([H])[H])C14[H]

$$$$
53:0:1
     RDKit          3D

 53 56  0  0  1  0  0  0  0  0999 V2000
    5.9007   -0.8114    0.4568 C   0  0  0  0  0  0  0  0  0  0  0  0
    4.9689   -1.5685    1.0626 C   0  0  0  0  0  0  0  0  0  0  0  0
    5.2199   -2.8961    1.6260 C   0  0  0  0  0  0  0  0  0  0  0  0
    6.3211   -3.4461    1.6633 O   0  0  0  0  0  0  0  0  0  0  0  0
    3.8664   -3.4814    2.1278 C   0  0  1  0  0  0  0  0  0  0  0  0
    2.9003   -2.7499    1.1970 C   0  0  2  0  0  0  0  0  0  0  0  0
    2.6878   -3.4994   -0.1358 C   0  0  1  0  0  0  0  0  0  0  0  0
    3.8190   -3.3962   -1.0103 O   0  0  0  0  0  0  0  0  0  0  0  0
    3.7446   -3.0535   -2.3201 C   0  0  0  0  0  0  0  0  0  0  0  0
    2.3476   -2.9930   -2.9241 C   0  0  0  0  0  0  0  0  0  0  0  0
    4.7345   -2.8211   -3.0203 O   0  0  0  0  0  0  0  0  0  0  0  0
    2.3269   -4.9848    0.1029 C   0  0  0  0  0  0  0  0  0  0  0  0
    2.3532   -5.4462    1.5821 C   0  0  1  0  0  0  0  0  0  0  0  0
    1.9727   -6.9300    1.7015 C   0  0  0  0  0  0  0  0  0  0  0  0
    3.7079   -5.0360    2.2407 C   0  0  1  0  0  0  0  0  0  0  0  0
    4.8719   -5.9154    1.7230 C   0  0  0  0  0  0  0  0  0  0  0  0
    3.6254   -5.3015    3.6565 O   0  0  0  0  0  0  0  0  0  0  0  0
    3.8931   -4.1473    4.4686 C   0  0  0  0  0  0  0  0  0  0  0  0
    2.9894   -4.2658    5.7039 C   0  0  0  0  0  0  0  0  0  0  0  0
    5.3680   -4.1761    4.8957 C   0  0  0  0  0  0  0  0  0  0  0  0
    3.4657   -3.0190    3.5249 C   0  0  1  0  0  0  0  0  0  0  0  0
    3.6580   -1.4897    3.7946 C   0  0  1  0  0  0  0  0  0  0  0  0
    4.9824   -1.1406    4.1654 O   0  0  0  0  0  0  0  0  0  0  0  0
    3.1987   -0.6424    2.5557 C   0  0  0  0  0  0  0  0  0  0  0  0
    3.4888   -1.3182    1.1830 C   0  0  1  0  0  0  0  0  0  0  0  0
    5.6501    0.1358    0.0123 H   0  0  0  0  0  0  0  0  0  0  0  0
    6.9239   -1.1427    0.3976 H   0  0  0  0  0  0  0  0  0  0  0  0
    1.8861   -2.6777    1.6142 H   0  0  0  0  0  0  0  0  0  0  0  0
    1.8130   -3.0201   -0.5622 H   0  0  0  0  0  0  0  0  0  0  0  0
    1.7948   -3.9071   -2.7166 H   0  0  0  0  0  0  0  0  0  0  0  0
    2.3701   -2.8732   -4.0204 H   0  0  0  0  0  0  0  0  0  0  0  0
    1.8056   -2.1429   -2.5204 H   0  0  0  0  0  0  0  0  0  0  0  0
    1.3361   -5.1475   -0.3077 H   0  0  0  0  0  0  0  0  0  0  0  0
    2.9970   -5.6346   -0.4594 H   0  0  0  0  0  0  0  0  0  0  0  0
    1.5566   -4.9023    2.1040 H   0  0  0  0  0  0  0  0  0  0  0  0
    2.6248   -7.5683    1.1067 H   0  0  0  0  0  0  0  0  0  0  0  0
    0.9561   -7.0941    1.3493 H   0  0  0  0  0  0  0  0  0  0  0  0
    2.0248   -7.2599    2.7385 H   0  0  0  0  0  0  0  0  0  0  0  0
    5.1064   -5.7154    0.6797 H   0  0  0  0  0  0  0  0  0  0  0  0
    4.6619   -6.9777    1.8215 H   0  0  0  0  0  0  0  0  0  0  0  0
    5.7700   -5.7499    2.3079 H   0  0  0  0  0  0  0  0  0  0  0  0
    3.1018   -3.4014    6.3584 H   0  0  0  0  0  0  0  0  0  0  0  0
    3.2494   -5.1548    6.2776 H   0  0  0  0  0  0  0  0  0  0  0  0
    1.9368   -4.3529    5.4297 H   0  0  0  0  0  0  0  0  0  0  0  0
    5.6098   -3.3411    5.5530 H   0  0  0  0  0  0  0  0  0  0  0  0
    6.0412   -4.1479    4.0471 H   0  0  0  0  0  0  0  0  0  0  0  0
    5.5896   -5.0950    5.4376 H   0  0  0  0  0  0  0  0  0  0  0  0
    2.3795   -3.1126    3.5590 H   0  0  0  0  0  0  0  0  0  0  0  0
    3.0404   -1.2173    4.6470 H   0  0  0  0  0  0  0  0  0  0  0  0
    5.5643   -1.3487    3.4492 H   0  0  0  0  0  0  0  0  0  0  0  0
    2.1229   -0.4915    2.6183 H   0  0  0  0  0  0  0  0  0  0  0  0
    3.6392    0.3560    2.5976 H   0  0  0  0  0  0  0  0  0  0  0  0
    3.1203   -0.7209    0.3447 H   0  0  0  0  0  0  0  0  0  0  0  0
  1  2  2  0
  1 26  1  0
  1 27  1  0
  2 25  1  0
  2  3  1  0
  3  4  2  0
  5  3  1  6
  5 15  1  0
  5 21  1  0
  5  6  1  0
  6 25  1  0
  6  7  1  0
  6 28  1  1
  7  8  1  0
  7 12  1  0
  7 29  1  6
  8  9  1  0
  9 10  1  0
  9 11  2  0
 10 30  1  0
 10 31  1  0
 10 32  1  0
 12 13  1  0
 12 33  1  0
 12 34  1  0
 13 14  1  0
 13 15  1  0
 13 35  1  1
 14 36  1  0
 14 37  1  0
 14 38  1  0
 15 16  1  6
 15 17  1  0
 16 39  1  0
 16 40  1  0
 16 41  1  0
 17 18  1  0
 18 19  1  0
 18 20  1  0
 18 21  1  0
 19 42  1  0
 19 43  1  0
 19 44  1  0
 20 45  1  0
 20 46  1  0
 20 47  1  0
 21 22  1  0
 21 48  1  6
 22 23  1  0
 22 24  1  0
 22 49  1  1
 23 50  1  0
 24 25  1  0
 24 51  1  0
 24 52  1  0
 25 53  1  6
M  END
>  <i_m_ct_stereo_status>  (207) 
1

>  <s_m_source_file>  (207) 
/var/tmp/pbs.5076255.sched01/tmpco4mv84g/486h_uxm9x.sdf

>  <i_m_source_file_index>  (207) 
42

>  <i_lp_mmshare_version>  (207) 
48012

>  <i_f3d_flags>  (207) 
0

>  <s_epik_input>  (207) 
Tz1DMUMoPVtDSDJdKVtDQEBIXShbQ0BASF0yW0NAXTEzNClbQ0gyXVtDQEhdKFtPSF0pW0NAQEhdNEMoW0NIM10pKFtDSDNdKU9bQ0BAXTMoW0NIM10pW0NASF0oW0NIM10pW0NIMl1bQ0BASF0yT0MoPU8pW0NIM10=

>  <s_epik_cmdline>  (207) 
J2VwaWtfcHl0aG9uJywgJy1waHQnLCAnMi4wJywgJy1waCcsICc3LjAnLCAnLXRuJywgJzgnLCAnLW1hJywgJzIwMCcsICctaW1hZScsICc8aW5maWxlLm1hZT4nLCAnLW9tYWUnLCAnPG91dGZpbGUubWFlPic=

>  <r_lp_tautomer_probability>  (207) 
1

>  <r_epik_Ionization_Penalty>  (207) 
5.48694e-08

>  <r_epik_Ionization_Penalty_Charging>  (207) 
0

>  <r_epik_Ionization_Penalty_Neutral>  (207) 
5.48694e-08

>  <r_epik_State_Penalty>  (207) 
-0

>  <r_epik_Charging_Adjusted_Penalty>  (207) 
0

>  <i_epik_Tot_Q>  (207) 
0

>  <i_epik_Tot_abs_Q>  (207) 
0

>  <s_epik_Chemistry_Notes>  (207) 
This compound has an ester and may undergo hydrolysis at high or low pH.

>  <s_lp_Force_Field>  (207) 
OPLS3e

>  <r_lp_Energy>  (207) 
34.36

>  <b_lp_Chiralities_Consistent>  (207) 
1

>  <s_lp_Variant>  (207) 
53:0-1

>  <s_i_glide_gridfile>  (207) 
pfpi4k_grid

>  <i_i_glide_lignum>  (207) 
42

>  <i_i_glide_rotatable_bonds>  (207) 
3

>  <r_i_docking_score>  (207) 
-3.03662

>  <r_i_glide_ligand_efficiency>  (207) 
-0.121465

>  <r_i_glide_ligand_efficiency_sa>  (207) 
-0.355165

>  <r_i_glide_ligand_efficiency_ln>  (207) 
-0.719769

>  <r_i_glide_gscore>  (207) 
-3.03662

>  <r_i_glide_lipo>  (207) 
-0.343928

>  <r_i_glide_hbond>  (207) 
0

>  <r_i_glide_metal>  (207) 
-0

>  <r_i_glide_rewards>  (207) 
-1.09697

>  <r_i_glide_evdw>  (207) 
-24.0369

>  <r_i_glide_ecoul>  (207) 
-3.52286

>  <r_i_glide_erotb>  (207) 
0.156801

>  <r_i_glide_esite>  (207) 
-0.0222487

>  <r_i_glide_emodel>  (207) 
-31.6901

>  <r_i_glide_energy>  (207) 
-27.5597

>  <r_i_glide_einternal>  (207) 
5.63158

>  <r_i_glide_intrahb_reward>  (207) 
-0

>  <i_i_glide_confnum>  (207) 
1

>  <i_i_glide_posenum>  (207) 
11

>  <r_i_glide_eff_state_penalty>  (207) 
0

>  <ligand_id>  (207) 
53

>  <original_smiles>  (207) 
C=C1C(=O)C23C4C(OC(C)=O)CC(C)C2(C)OC(C)(C)C3C(O)CC14

>  <smiles>  (207) 
[H]OC1([H])C([H])([H])C2([H])C(=C([H])[H])C(=O)C34C2([H])C([H])(OC(=O)C([H])([H])[H])C([H])([H])C([H])(C([H])([H])[H])C3(C([H])([H])[H])OC(C([H])([H])[H])(C([H])([H])[H])C14[H]

$$$$
53:0:2
     RDKit          3D

 53 56  0  0  1  0  0  0  0  0999 V2000
    5.9148   -0.7119    0.4271 C   0  0  0  0  0  0  0  0  0  0  0  0
    4.9200   -1.3971    0.9984 C   0  0  0  0  0  0  0  0  0  0  0  0
    5.0854   -2.6164    1.7821 C   0  0  0  0  0  0  0  0  0  0  0  0
    6.1873   -3.1161    2.0809 O   0  0  0  0  0  0  0  0  0  0  0  0
    3.6932   -3.1886    2.1309 C   0  0  1  0  0  0  0  0  0  0  0  0
    2.8776   -2.6250    0.9649 C   0  0  2  0  0  0  0  0  0  0  0  0
    2.8690   -3.5560   -0.2708 C   0  0  1  0  0  0  0  0  0  0  0  0
    4.1150   -3.5501   -0.9769 O   0  0  0  0  0  0  0  0  0  0  0  0
    4.2732   -3.0684   -2.2325 C   0  0  0  0  0  0  0  0  0  0  0  0
    3.0021   -2.6542   -2.9623 C   0  0  0  0  0  0  0  0  0  0  0  0
    5.3738   -2.9562   -2.7865 O   0  0  0  0  0  0  0  0  0  0  0  0
    2.5083   -5.0123    0.1190 C   0  0  0  0  0  0  0  0  0  0  0  0
    2.3227   -5.2689    1.6307 C   0  0  1  0  0  0  0  0  0  0  0  0
    1.9443   -6.7356    1.8929 C   0  0  0  0  0  0  0  0  0  0  0  0
    3.5445   -4.7176    2.4260 C   0  0  1  0  0  0  0  0  0  0  0  0
    4.7907   -5.6119    2.2140 C   0  0  0  0  0  0  0  0  0  0  0  0
    3.2481   -4.7931    3.8357 O   0  0  0  0  0  0  0  0  0  0  0  0
    3.3709   -3.5314    4.5112 C   0  0  0  0  0  0  0  0  0  0  0  0
    2.2899   -3.5220    5.6019 C   0  0  0  0  0  0  0  0  0  0  0  0
    4.7669   -3.4436    5.1524 C   0  0  0  0  0  0  0  0  0  0  0  0
    3.0644   -2.5546    3.3696 C   0  0  1  0  0  0  0  0  0  0  0  0
    3.1895   -1.0003    3.4540 C   0  0  1  0  0  0  0  0  0  0  0  0
    4.4452   -0.5704    3.9502 O   0  0  0  0  0  0  0  0  0  0  0  0
    2.9126   -0.3431    2.0547 C   0  0  0  0  0  0  0  0  0  0  0  0
    3.4315   -1.1868    0.8502 C   0  0  1  0  0  0  0  0  0  0  0  0
    5.7093    0.1343   -0.2059 H   0  0  0  0  0  0  0  0  0  0  0  0
    6.9477   -0.9983    0.5707 H   0  0  0  0  0  0  0  0  0  0  0  0
    1.8172   -2.5302    1.2140 H   0  0  0  0  0  0  0  0  0  0  0  0
    2.0516   -3.1886   -0.8901 H   0  0  0  0  0  0  0  0  0  0  0  0
    2.2809   -3.4681   -2.9492 H   0  0  0  0  0  0  0  0  0  0  0  0
    3.1946   -2.3970   -4.0155 H   0  0  0  0  0  0  0  0  0  0  0  0
    2.5685   -1.7750   -2.4866 H   0  0  0  0  0  0  0  0  0  0  0  0
    1.5794   -5.2456   -0.3918 H   0  0  0  0  0  0  0  0  0  0  0  0
    3.2383   -5.7139   -0.3020 H   0  0  0  0  0  0  0  0  0  0  0  0
    1.4487   -4.6920    1.9538 H   0  0  0  0  0  0  0  0  0  0  0  0
    2.6843   -7.4272    1.4894 H   0  0  0  0  0  0  0  0  0  0  0  0
    0.9928   -6.9772    1.4194 H   0  0  0  0  0  0  0  0  0  0  0  0
    1.8403   -6.9227    2.9621 H   0  0  0  0  0  0  0  0  0  0  0  0
    5.1782   -5.5425    1.1988 H   0  0  0  0  0  0  0  0  0  0  0  0
    4.5823   -6.6586    2.4237 H   0  0  0  0  0  0  0  0  0  0  0  0
    5.5851   -5.3369    2.9005 H   0  0  0  0  0  0  0  0  0  0  0  0
    2.2827   -2.5761    6.1425 H   0  0  0  0  0  0  0  0  0  0  0  0
    2.4729   -4.3178    6.3238 H   0  0  0  0  0  0  0  0  0  0  0  0
    1.2945   -3.6852    5.1869 H   0  0  0  0  0  0  0  0  0  0  0  0
    4.8836   -2.5254    5.7263 H   0  0  0  0  0  0  0  0  0  0  0  0
    5.5744   -3.4804    4.4290 H   0  0  0  0  0  0  0  0  0  0  0  0
    4.9218   -4.2787    5.8357 H   0  0  0  0  0  0  0  0  0  0  0  0
    1.9885   -2.6836    3.2512 H   0  0  0  0  0  0  0  0  0  0  0  0
    2.4449   -0.6316    4.1611 H   0  0  0  0  0  0  0  0  0  0  0  0
    4.4240    0.3748    4.0198 H   0  0  0  0  0  0  0  0  0  0  0  0
    1.8372   -0.2243    1.9297 H   0  0  0  0  0  0  0  0  0  0  0  0
    3.3235    0.6698    2.0189 H   0  0  0  0  0  0  0  0  0  0  0  0
    3.1817   -0.7167   -0.1043 H   0  0  0  0  0  0  0  0  0  0  0  0
  1  2  2  0
  1 26  1  0
  1 27  1  0
  2 25  1  0
  2  3  1  0
  3  4  2  0
  5  3  1  6
  5 15  1  0
  5 21  1  0
  5  6  1  0
  6 25  1  0
  6  7  1  0
  6 28  1  1
  7  8  1  0
  7 12  1  0
  7 29  1  6
  8  9  1  0
  9 10  1  0
  9 11  2  0
 10 30  1  0
 10 31  1  0
 10 32  1  0
 12 13  1  0
 12 33  1  0
 12 34  1  0
 13 14  1  0
 13 15  1  0
 13 35  1  1
 14 36  1  0
 14 37  1  0
 14 38  1  0
 15 16  1  1
 15 17  1  0
 16 39  1  0
 16 40  1  0
 16 41  1  0
 17 18  1  0
 18 19  1  0
 18 20  1  0
 18 21  1  0
 19 42  1  0
 19 43  1  0
 19 44  1  0
 20 45  1  0
 20 46  1  0
 20 47  1  0
 21 22  1  0
 21 48  1  6
 22 23  1  0
 22 24  1  0
 22 49  1  1
 23 50  1  0
 24 25  1  0
 24 51  1  0
 24 52  1  0
 25 53  1  6
M  END
>  <i_m_ct_stereo_status>  (208) 
1

>  <s_m_source_file>  (208) 
/var/tmp/pbs.5076255.sched01/tmpco4mv84g/486h_uxm9x.sdf

>  <i_m_source_file_index>  (208) 
42

>  <i_lp_mmshare_version>  (208) 
48012

>  <i_f3d_flags>  (208) 
0

>  <s_epik_input>  (208) 
Tz1DMUMoPVtDSDJdKVtDQEBIXShbQ0BASF0yW0NAXTEzNClbQ0gyXVtDQEhdKFtPSF0pW0NAQEhdNEMoW0NIM10pKFtDSDNdKU9bQ0BAXTMoW0NIM10pW0NASF0oW0NIM10pW0NIMl1bQ0BASF0yT0MoPU8pW0NIM10=

>  <s_epik_cmdline>  (208) 
J2VwaWtfcHl0aG9uJywgJy1waHQnLCAnMi4wJywgJy1waCcsICc3LjAnLCAnLXRuJywgJzgnLCAnLW1hJywgJzIwMCcsICctaW1hZScsICc8aW5maWxlLm1hZT4nLCAnLW9tYWUnLCAnPG91dGZpbGUubWFlPic=

>  <r_lp_tautomer_probability>  (208) 
1

>  <r_epik_Ionization_Penalty>  (208) 
5.48694e-08

>  <r_epik_Ionization_Penalty_Charging>  (208) 
0

>  <r_epik_Ionization_Penalty_Neutral>  (208) 
5.48694e-08

>  <r_epik_State_Penalty>  (208) 
-0

>  <r_epik_Charging_Adjusted_Penalty>  (208) 
0

>  <i_epik_Tot_Q>  (208) 
0

>  <i_epik_Tot_abs_Q>  (208) 
0

>  <s_epik_Chemistry_Notes>  (208) 
This compound has an ester and may undergo hydrolysis at high or low pH.

>  <s_lp_Force_Field>  (208) 
OPLS3e

>  <r_lp_Energy>  (208) 
34.36

>  <b_lp_Chiralities_Consistent>  (208) 
1

>  <s_lp_Variant>  (208) 
53:0-1

>  <s_i_glide_gridfile>  (208) 
pfpi4k_grid

>  <i_i_glide_lignum>  (208) 
42

>  <i_i_glide_rotatable_bonds>  (208) 
3

>  <r_i_docking_score>  (208) 
-2.92926

>  <r_i_glide_ligand_efficiency>  (208) 
-0.11717

>  <r_i_glide_ligand_efficiency_sa>  (208) 
-0.342608

>  <r_i_glide_ligand_efficiency_ln>  (208) 
-0.694323

>  <r_i_glide_gscore>  (208) 
-2.92926

>  <r_i_glide_lipo>  (208) 
-0.206626

>  <r_i_glide_hbond>  (208) 
0

>  <r_i_glide_metal>  (208) 
-0

>  <r_i_glide_rewards>  (208) 
-1.09706

>  <r_i_glide_evdw>  (208) 
-25.0519

>  <r_i_glide_ecoul>  (208) 
-3.4637

>  <r_i_glide_erotb>  (208) 
0.156801

>  <r_i_glide_esite>  (208) 
-0.0102321

>  <r_i_glide_emodel>  (208) 
-32.2238

>  <r_i_glide_energy>  (208) 
-28.5156

>  <r_i_glide_einternal>  (208) 
5.93183

>  <r_i_glide_intrahb_reward>  (208) 
-0

>  <i_i_glide_confnum>  (208) 
1

>  <i_i_glide_posenum>  (208) 
4

>  <r_i_glide_eff_state_penalty>  (208) 
0

>  <ligand_id>  (208) 
53

>  <original_smiles>  (208) 
C=C1C(=O)C23C4C(OC(C)=O)CC(C)C2(C)OC(C)(C)C3C(O)CC14

>  <smiles>  (208) 
[H]OC1([H])C([H])([H])C2([H])C(=C([H])[H])C(=O)C34C2([H])C([H])(OC(=O)C([H])([H])[H])C([H])([H])C([H])(C([H])([H])[H])C3(C([H])([H])[H])OC(C([H])([H])[H])(C([H])([H])[H])C14[H]

$$$$
54:0:0
     RDKit          3D

 48 52  0  0  1  0  0  0  0  0999 V2000
    3.7412    0.0897   -4.3695 C   0  0  0  0  0  0  0  0  0  0  0  0
    3.9394   -1.1829   -3.5768 C   0  0  0  0  0  0  0  0  0  0  0  0
    3.9523   -1.1581   -2.1760 C   0  0  0  0  0  0  0  0  0  0  0  0
    4.1275   -2.3625   -1.4741 C   0  0  0  0  0  0  0  0  0  0  0  0
    4.1205   -2.4170    0.0021 C   0  0  0  0  0  0  0  0  0  0  0  0
    4.7935   -3.4523    0.6951 C   0  0  0  0  0  0  0  0  0  0  0  0
    4.7929   -3.4948    2.0967 C   0  0  0  0  0  0  0  0  0  0  0  0
    4.1279   -2.5045    2.8389 C   0  0  0  0  0  0  0  0  0  0  0  0
    3.4283   -1.4742    2.1639 C   0  0  0  0  0  0  0  0  0  0  0  0
    3.4428   -1.4407    0.7536 C   0  0  0  0  0  0  0  0  0  0  0  0
    2.6703   -0.4121    2.9578 C   0  0  1  0  0  0  0  0  0  0  0  0
    3.3726    0.9675    2.9162 C   0  0  0  0  0  0  0  0  0  0  0  0
    2.5118    1.7609    2.0825 O   0  0  0  0  0  0  0  0  0  0  0  0
    1.3376    1.1214    1.8841 C   0  0  0  0  0  0  0  0  0  0  0  0
    0.3092    1.7477    1.3187 N   0  0  0  0  0  0  0  0  0  0  0  0
    1.3810   -0.1090    2.3190 N   0  0  0  0  0  0  0  0  0  0  0  0
    2.4707   -0.8384    4.4168 C   0  0  2  0  0  0  0  0  0  0  0  0
    1.2984   -1.8165    4.5974 C   0  0  0  0  0  0  0  0  0  0  0  0
    0.3988   -1.1065    5.6265 C   0  0  0  0  0  0  0  0  0  0  0  0
    1.2833   -0.2549    6.3406 O   0  0  0  0  0  0  0  0  0  0  0  0
    2.1082    0.3207    5.3776 C   0  0  0  0  0  0  0  0  0  0  0  0
    3.7840   -1.4503    4.9347 C   0  0  0  0  0  0  0  0  0  0  0  0
    4.1542   -2.6094    4.2111 O   0  0  0  0  0  0  0  0  0  0  0  0
    4.3315   -3.5311   -2.2382 C   0  0  0  0  0  0  0  0  0  0  0  0
    4.3228   -3.4623   -3.6437 C   0  0  0  0  0  0  0  0  0  0  0  0
    4.1259   -2.3019   -4.3105 N   0  0  0  0  0  0  0  0  0  0  0  0
    3.6008    0.9365   -3.6981 H   0  0  0  0  0  0  0  0  0  0  0  0
    2.8615    0.0064   -5.0105 H   0  0  0  0  0  0  0  0  0  0  0  0
    4.6124    0.2944   -4.9915 H   0  0  0  0  0  0  0  0  0  0  0  0
    3.8421   -0.1714   -1.6677 H   0  0  0  0  0  0  0  0  0  0  0  0
    5.3279   -4.2189    0.1600 H   0  0  0  0  0  0  0  0  0  0  0  0
    5.3057   -4.2918    2.6069 H   0  0  0  0  0  0  0  0  0  0  0  0
    2.8961   -0.6582    0.2378 H   0  0  0  0  0  0  0  0  0  0  0  0
    3.4174    1.4484    3.9118 H   0  0  0  0  0  0  0  0  0  0  0  0
    4.4493    0.8275    2.6569 H   0  0  0  0  0  0  0  0  0  0  0  0
   -0.5217    1.2581    1.0744 H   0  0  0  0  0  0  0  0  0  0  0  0
    0.6927   -0.8070    2.1428 H   0  0  0  0  0  0  0  0  0  0  0  0
    0.7376   -2.0260    3.6798 H   0  0  0  0  0  0  0  0  0  0  0  0
    1.6405   -2.7995    4.9353 H   0  0  0  0  0  0  0  0  0  0  0  0
   -0.3462   -0.4673    5.1233 H   0  0  0  0  0  0  0  0  0  0  0  0
   -0.1065   -1.7958    6.3169 H   0  0  0  0  0  0  0  0  0  0  0  0
    2.9995    0.7779    5.8278 H   0  0  0  0  0  0  0  0  0  0  0  0
    1.5684    1.1260    4.8650 H   0  0  0  0  0  0  0  0  0  0  0  0
    4.5923   -0.7231    4.8664 H   0  0  0  0  0  0  0  0  0  0  0  0
    3.6867   -1.7125    5.9886 H   0  0  0  0  0  0  0  0  0  0  0  0
    4.4661   -4.5109   -1.7796 H   0  0  0  0  0  0  0  0  0  0  0  0
    4.4711   -4.3452   -4.2336 H   0  0  0  0  0  0  0  0  0  0  0  0
    0.3592    2.7430    1.0571 H   0  0  0  0  0  0  0  0  0  0  0  0
  1  2  1  0
  1 27  1  0
  1 28  1  0
  1 29  1  0
  2 26  2  0
  2  3  1  0
  3  4  2  0
  3 30  1  0
  4  5  1  0
  4 24  1  0
  5 10  1  0
  5  6  2  0
  6  7  1  0
  6 31  1  0
  7  8  2  0
  7 32  1  0
  8 23  1  0
  8  9  1  0
  9 10  2  0
  9 11  1  0
 10 33  1  0
 11 16  1  0
 11 12  1  1
 11 17  1  0
 12 13  1  0
 12 34  1  0
 12 35  1  0
 13 14  1  0
 14 15  1  0
 14 16  2  0
 15 36  1  0
 15 48  1  0
 16 37  1  0
 17 21  1  1
 17 18  1  0
 17 22  1  0
 18 19  1  0
 18 38  1  0
 18 39  1  0
 19 20  1  0
 19 40  1  0
 19 41  1  0
 20 21  1  0
 21 42  1  0
 21 43  1  0
 22 23  1  0
 22 44  1  0
 22 45  1  0
 24 25  2  0
 24 46  1  0
 25 26  1  0
 25 47  1  0
M  CHG  1  16   1
M  END
>  <i_m_ct_stereo_status>  (209) 
1

>  <s_m_source_file>  (209) 
/var/tmp/pbs.5076255.sched01/tmpco4mv84g/486h_uxm9x.sdf

>  <i_m_source_file_index>  (209) 
43

>  <i_lp_mmshare_version>  (209) 
48012

>  <i_f3d_flags>  (209) 
0

>  <s_epik_input>  (209) 
W0NIM11jMVtjSF1jKFtjSF1bY0hdbjEpLWMoW2NIXVtjSF0yKVtjSF1jM2MyT1tDSDJdW0NAXTQoW0NIMl1bQ0gyXU9bQ0gyXTQpW0NAQF0zNVtDSDJdTy9DKD1OXFtIXSlbTkhdNQ==

>  <s_epik_cmdline>  (209) 
J2VwaWtfcHl0aG9uJywgJy1waHQnLCAnMi4wJywgJy1waCcsICc3LjAnLCAnLXRuJywgJzgnLCAnLW1hJywgJzIwMCcsICctaW1hZScsICc8aW5maWxlLm1hZT4nLCAnLW9tYWUnLCAnPG91dGZpbGUubWFlPic=

>  <r_lp_tautomer_probability>  (209) 
1

>  <r_epik_Ionization_Penalty>  (209) 
0.164966

>  <r_epik_Ionization_Penalty_Charging>  (209) 
0.00109965

>  <r_epik_Ionization_Penalty_Neutral>  (209) 
0.163867

>  <r_epik_State_Penalty>  (209) 
0.14539

>  <r_epik_Charging_Adjusted_Penalty>  (209) 
0.146489

>  <i_epik_Tot_Q>  (209) 
1

>  <i_epik_Tot_abs_Q>  (209) 
1

>  <s_epik_Chemistry_Notes>  (209) 
This compound has an imine and may undergo hydrolysis.

>  <s_lp_Force_Field>  (209) 
OPLS3e

>  <r_lp_Energy>  (209) 
33.2427

>  <b_lp_Chiralities_Consistent>  (209) 
1

>  <s_lp_Variant>  (209) 
54:0-1

>  <s_i_glide_gridfile>  (209) 
pfpi4k_grid

>  <i_i_glide_lignum>  (209) 
43

>  <i_i_glide_rotatable_bonds>  (209) 
1

>  <r_i_docking_score>  (209) 
-5.1081

>  <r_i_glide_ligand_efficiency>  (209) 
-0.196465

>  <r_i_glide_ligand_efficiency_sa>  (209) 
-0.582028

>  <r_i_glide_ligand_efficiency_ln>  (209) 
-1.19962

>  <r_i_glide_gscore>  (209) 
-5.1081

>  <r_i_glide_lipo>  (209) 
-0.646834

>  <r_i_glide_hbond>  (209) 
-0.600527

>  <r_i_glide_metal>  (209) 
-0

>  <r_i_glide_rewards>  (209) 
-1.00632

>  <r_i_glide_evdw>  (209) 
-19.419

>  <r_i_glide_ecoul>  (209) 
-12.4455

>  <r_i_glide_erotb>  (209) 
0.153671

>  <r_i_glide_esite>  (209) 
-0.17032

>  <r_i_glide_emodel>  (209) 
-44.4786

>  <r_i_glide_energy>  (209) 
-31.8645

>  <r_i_glide_einternal>  (209) 
0.237537

>  <r_i_glide_intrahb_reward>  (209) 
-0

>  <i_i_glide_confnum>  (209) 
1

>  <i_i_glide_posenum>  (209) 
33

>  <r_i_glide_eff_state_penalty>  (209) 
0

>  <ligand_id>  (209) 
54

>  <original_smiles>  (209) 
Cc1cc(-c2ccc3c(c2)C2(COC(=N)N2)C2(CCOC2)CO3)ccn1

>  <smiles>  (209) 
[H]c1nc(C([H])([H])[H])c([H])c(-c2c([H])c([H])c3c(c2[H])C2([N+]([H])=C(N([H])[H])OC2([H])[H])C2(C([H])([H])O3)C([H])([H])OC([H])([H])C2([H])[H])c1[H]

$$$$
54:0:1
     RDKit          3D

 48 52  0  0  1  0  0  0  0  0999 V2000
    3.1288   -0.4976   -4.0155 C   0  0  0  0  0  0  0  0  0  0  0  0
    3.7603   -1.5755   -3.1649 C   0  0  0  0  0  0  0  0  0  0  0  0
    3.4567   -1.6757   -1.8006 C   0  0  0  0  0  0  0  0  0  0  0  0
    4.0603   -2.6822   -1.0139 C   0  0  0  0  0  0  0  0  0  0  0  0
    3.7722   -2.8257    0.4278 C   0  0  0  0  0  0  0  0  0  0  0  0
    4.1555   -3.9909    1.1306 C   0  0  0  0  0  0  0  0  0  0  0  0
    3.8940   -4.1304    2.5016 C   0  0  0  0  0  0  0  0  0  0  0  0
    3.2316   -3.1162    3.2052 C   0  0  0  0  0  0  0  0  0  0  0  0
    2.8153   -1.9486    2.5184 C   0  0  0  0  0  0  0  0  0  0  0  0
    3.0987   -1.8111    1.1424 C   0  0  0  0  0  0  0  0  0  0  0  0
    2.0531   -0.8292    3.2479 C   0  0  1  0  0  0  0  0  0  0  0  0
    2.9506    0.4331    3.4586 C   0  0  0  0  0  0  0  0  0  0  0  0
    2.3372    1.3674    2.5725 O   0  0  0  0  0  0  0  0  0  0  0  0
    1.1723    0.9298    2.1123 C   0  0  0  0  0  0  0  0  0  0  0  0
    0.3463    1.7349    1.4312 N   0  0  0  0  0  0  0  0  0  0  0  0
    0.9620   -0.3324    2.4353 N   0  0  0  0  0  0  0  0  0  0  0  0
    1.5401   -1.3407    4.6278 C   0  0  2  0  0  0  0  0  0  0  0  0
    0.2444   -2.1449    4.5350 C   0  0  0  0  0  0  0  0  0  0  0  0
   -0.2869   -1.9904    5.9663 C   0  0  0  0  0  0  0  0  0  0  0  0
    0.1083   -0.7053    6.4368 O   0  0  0  0  0  0  0  0  0  0  0  0
    1.1540   -0.2086    5.6025 C   0  0  0  0  0  0  0  0  0  0  0  0
    2.6554   -2.1602    5.2893 C   0  0  0  0  0  0  0  0  0  0  0  0
    2.9866   -3.3093    4.5406 O   0  0  0  0  0  0  0  0  0  0  0  0
    4.9606   -3.5436   -1.6791 C   0  0  0  0  0  0  0  0  0  0  0  0
    5.1903   -3.3754   -3.0513 C   0  0  0  0  0  0  0  0  0  0  0  0
    4.6094   -2.4103   -3.7925 N   0  0  0  0  0  0  0  0  0  0  0  0
    2.4537    0.1325   -3.4326 H   0  0  0  0  0  0  0  0  0  0  0  0
    2.5566   -0.9553   -4.8187 H   0  0  0  0  0  0  0  0  0  0  0  0
    3.8994    0.1407   -4.4459 H   0  0  0  0  0  0  0  0  0  0  0  0
    2.7491   -0.9762   -1.3887 H   0  0  0  0  0  0  0  0  0  0  0  0
    4.6620   -4.8076    0.6412 H   0  0  0  0  0  0  0  0  0  0  0  0
    4.1968   -5.0249    3.0171 H   0  0  0  0  0  0  0  0  0  0  0  0
    2.7811   -0.9086    0.6387 H   0  0  0  0  0  0  0  0  0  0  0  0
    2.8655    0.8446    4.4723 H   0  0  0  0  0  0  0  0  0  0  0  0
    4.0071    0.1646    3.3905 H   0  0  0  0  0  0  0  0  0  0  0  0
   -0.5098    1.3778    1.0197 H   0  0  0  0  0  0  0  0  0  0  0  0
    0.2436   -0.8999    2.0730 H   0  0  0  0  0  0  0  0  0  0  0  0
   -0.4673   -1.7021    3.8304 H   0  0  0  0  0  0  0  0  0  0  0  0
    0.3920   -3.1856    4.2144 H   0  0  0  0  0  0  0  0  0  0  0  0
   -1.3808   -2.0717    6.0408 H   0  0  0  0  0  0  0  0  0  0  0  0
    0.1779   -2.7352    6.6341 H   0  0  0  0  0  0  0  0  0  0  0  0
    2.0031    0.0904    6.2156 H   0  0  0  0  0  0  0  0  0  0  0  0
    0.7738    0.6765    5.0937 H   0  0  0  0  0  0  0  0  0  0  0  0
    3.5464   -1.5489    5.4266 H   0  0  0  0  0  0  0  0  0  0  0  0
    2.3543   -2.4817    6.2865 H   0  0  0  0  0  0  0  0  0  0  0  0
    5.4765   -4.3437   -1.1703 H   0  0  0  0  0  0  0  0  0  0  0  0
    5.8742   -4.0315   -3.5603 H   0  0  0  0  0  0  0  0  0  0  0  0
    0.5568    2.7260    1.2758 H   0  0  0  0  0  0  0  0  0  0  0  0
  1  2  1  0
  1 27  1  0
  1 28  1  0
  1 29  1  0
  2 26  2  0
  2  3  1  0
  3  4  2  0
  3 30  1  0
  4  5  1  0
  4 24  1  0
  5 10  1  0
  5  6  2  0
  6  7  1  0
  6 31  1  0
  7  8  2  0
  7 32  1  0
  8 23  1  0
  8  9  1  0
  9 10  2  0
  9 11  1  0
 10 33  1  0
 11 16  1  0
 11 12  1  1
 11 17  1  0
 12 13  1  0
 12 34  1  0
 12 35  1  0
 13 14  1  0
 14 15  1  0
 14 16  2  0
 15 36  1  0
 15 48  1  0
 16 37  1  0
 17 21  1  1
 17 18  1  0
 17 22  1  0
 18 19  1  0
 18 38  1  0
 18 39  1  0
 19 20  1  0
 19 40  1  0
 19 41  1  0
 20 21  1  0
 21 42  1  0
 21 43  1  0
 22 23  1  0
 22 44  1  0
 22 45  1  0
 24 25  2  0
 24 46  1  0
 25 26  1  0
 25 47  1  0
M  CHG  1  16   1
M  END
>  <i_m_ct_stereo_status>  (210) 
1

>  <s_m_source_file>  (210) 
/var/tmp/pbs.5076255.sched01/tmpco4mv84g/486h_uxm9x.sdf

>  <i_m_source_file_index>  (210) 
43

>  <i_lp_mmshare_version>  (210) 
48012

>  <i_f3d_flags>  (210) 
0

>  <s_epik_input>  (210) 
W0NIM11jMVtjSF1jKFtjSF1bY0hdbjEpLWMoW2NIXVtjSF0yKVtjSF1jM2MyT1tDSDJdW0NAXTQoW0NIMl1bQ0gyXU9bQ0gyXTQpW0NAQF0zNVtDSDJdTy9DKD1OXFtIXSlbTkhdNQ==

>  <s_epik_cmdline>  (210) 
J2VwaWtfcHl0aG9uJywgJy1waHQnLCAnMi4wJywgJy1waCcsICc3LjAnLCAnLXRuJywgJzgnLCAnLW1hJywgJzIwMCcsICctaW1hZScsICc8aW5maWxlLm1hZT4nLCAnLW9tYWUnLCAnPG91dGZpbGUubWFlPic=

>  <r_lp_tautomer_probability>  (210) 
1

>  <r_epik_Ionization_Penalty>  (210) 
0.164966

>  <r_epik_Ionization_Penalty_Charging>  (210) 
0.00109965

>  <r_epik_Ionization_Penalty_Neutral>  (210) 
0.163867

>  <r_epik_State_Penalty>  (210) 
0.14539

>  <r_epik_Charging_Adjusted_Penalty>  (210) 
0.146489

>  <i_epik_Tot_Q>  (210) 
1

>  <i_epik_Tot_abs_Q>  (210) 
1

>  <s_epik_Chemistry_Notes>  (210) 
This compound has an imine and may undergo hydrolysis.

>  <s_lp_Force_Field>  (210) 
OPLS3e

>  <r_lp_Energy>  (210) 
33.2427

>  <b_lp_Chiralities_Consistent>  (210) 
1

>  <s_lp_Variant>  (210) 
54:0-1

>  <s_i_glide_gridfile>  (210) 
pfpi4k_grid

>  <i_i_glide_lignum>  (210) 
43

>  <i_i_glide_rotatable_bonds>  (210) 
1

>  <r_i_docking_score>  (210) 
-4.87421

>  <r_i_glide_ligand_efficiency>  (210) 
-0.18747

>  <r_i_glide_ligand_efficiency_sa>  (210) 
-0.555378

>  <r_i_glide_ligand_efficiency_ln>  (210) 
-1.14469

>  <r_i_glide_gscore>  (210) 
-4.87421

>  <r_i_glide_lipo>  (210) 
-0.671795

>  <r_i_glide_hbond>  (210) 
-0.337429

>  <r_i_glide_metal>  (210) 
-0

>  <r_i_glide_rewards>  (210) 
-1.00632

>  <r_i_glide_evdw>  (210) 
-21.8428

>  <r_i_glide_ecoul>  (210) 
-11.6493

>  <r_i_glide_erotb>  (210) 
0.153671

>  <r_i_glide_esite>  (210) 
-0.172809

>  <r_i_glide_emodel>  (210) 
-44.9546

>  <r_i_glide_energy>  (210) 
-33.4921

>  <r_i_glide_einternal>  (210) 
1.34683

>  <r_i_glide_intrahb_reward>  (210) 
-0

>  <i_i_glide_confnum>  (210) 
6

>  <i_i_glide_posenum>  (210) 
17

>  <r_i_glide_eff_state_penalty>  (210) 
0

>  <ligand_id>  (210) 
54

>  <original_smiles>  (210) 
Cc1cc(-c2ccc3c(c2)C2(COC(=N)N2)C2(CCOC2)CO3)ccn1

>  <smiles>  (210) 
[H]c1nc(C([H])([H])[H])c([H])c(-c2c([H])c([H])c3c(c2[H])C2([N+]([H])=C(N([H])[H])OC2([H])[H])C2(C([H])([H])O3)C([H])([H])OC([H])([H])C2([H])[H])c1[H]

$$$$
54:0:2
     RDKit          3D

 48 52  0  0  1  0  0  0  0  0999 V2000
    3.2572   -0.3750   -3.9600 C   0  0  0  0  0  0  0  0  0  0  0  0
    3.7610   -1.5601   -3.1672 C   0  0  0  0  0  0  0  0  0  0  0  0
    3.3464   -1.7715   -1.8451 C   0  0  0  0  0  0  0  0  0  0  0  0
    3.8108   -2.8929   -1.1298 C   0  0  0  0  0  0  0  0  0  0  0  0
    3.3755   -3.1659    0.2500 C   0  0  0  0  0  0  0  0  0  0  0  0
    3.2431   -4.4952    0.7120 C   0  0  0  0  0  0  0  0  0  0  0  0
    2.8431   -4.7550    2.0311 C   0  0  0  0  0  0  0  0  0  0  0  0
    2.5629   -3.7048    2.9184 C   0  0  0  0  0  0  0  0  0  0  0  0
    2.6685   -2.3629    2.4655 C   0  0  0  0  0  0  0  0  0  0  0  0
    3.0793   -2.1100    1.1389 C   0  0  0  0  0  0  0  0  0  0  0  0
    2.3276   -1.1968    3.4039 C   0  0  1  0  0  0  0  0  0  0  0  0
    3.6059   -0.4475    3.8520 C   0  0  0  0  0  0  0  0  0  0  0  0
    3.4773    0.8274    3.1643 O   0  0  0  0  0  0  0  0  0  0  0  0
    2.2663    0.9472    2.6170 C   0  0  0  0  0  0  0  0  0  0  0  0
    1.8753    2.1285    2.0878 N   0  0  0  0  0  0  0  0  0  0  0  0
    1.5744   -0.1766    2.6974 N   0  0  0  0  0  0  0  0  0  0  0  0
    1.5572   -1.6950    4.6531 C   0  0  2  0  0  0  0  0  0  0  0  0
    0.0620   -1.9065    4.3699 C   0  0  0  0  0  0  0  0  0  0  0  0
   -0.6244   -1.0037    5.4105 C   0  0  0  0  0  0  0  0  0  0  0  0
    0.3105   -0.8915    6.4629 O   0  0  0  0  0  0  0  0  0  0  0  0
    1.5527   -0.6923    5.8306 C   0  0  0  0  0  0  0  0  0  0  0  0
    2.2175   -2.9856    5.1542 C   0  0  0  0  0  0  0  0  0  0  0  0
    2.1599   -4.0256    4.1901 O   0  0  0  0  0  0  0  0  0  0  0  0
    4.7133   -3.7418   -1.7964 C   0  0  0  0  0  0  0  0  0  0  0  0
    5.0785   -3.4510   -3.1192 C   0  0  0  0  0  0  0  0  0  0  0  0
    4.5859   -2.3826   -3.8033 N   0  0  0  0  0  0  0  0  0  0  0  0
    2.5537    0.2092   -3.3709 H   0  0  0  0  0  0  0  0  0  0  0  0
    2.7392   -0.7039   -4.8601 H   0  0  0  0  0  0  0  0  0  0  0  0
    4.0888    0.2696   -4.2441 H   0  0  0  0  0  0  0  0  0  0  0  0
    2.6296   -1.0962   -1.4028 H   0  0  0  0  0  0  0  0  0  0  0  0
    3.4502   -5.3228    0.0517 H   0  0  0  0  0  0  0  0  0  0  0  0
    2.7479   -5.7791    2.3718 H   0  0  0  0  0  0  0  0  0  0  0  0
    3.1686   -1.0923    0.7869 H   0  0  0  0  0  0  0  0  0  0  0  0
    3.6489   -0.2113    4.9176 H   0  0  0  0  0  0  0  0  0  0  0  0
    4.5003   -1.0589    3.7188 H   0  0  0  0  0  0  0  0  0  0  0  0
    0.9490    2.2341    1.6736 H   0  0  0  0  0  0  0  0  0  0  0  0
    0.7051   -0.3480    2.2242 H   0  0  0  0  0  0  0  0  0  0  0  0
   -0.2325   -1.6292    3.3599 H   0  0  0  0  0  0  0  0  0  0  0  0
   -0.2148   -2.9596    4.4616 H   0  0  0  0  0  0  0  0  0  0  0  0
   -0.7966    0.0011    5.0035 H   0  0  0  0  0  0  0  0  0  0  0  0
   -1.5615   -1.4149    5.7897 H   0  0  0  0  0  0  0  0  0  0  0  0
    2.3712   -0.8698    6.5333 H   0  0  0  0  0  0  0  0  0  0  0  0
    1.6228    0.3436    5.4929 H   0  0  0  0  0  0  0  0  0  0  0  0
    3.2610   -2.8040    5.4139 H   0  0  0  0  0  0  0  0  0  0  0  0
    1.7238   -3.3224    6.0659 H   0  0  0  0  0  0  0  0  0  0  0  0
    5.1148   -4.6201   -1.3110 H   0  0  0  0  0  0  0  0  0  0  0  0
    5.7751   -4.0857   -3.6412 H   0  0  0  0  0  0  0  0  0  0  0  0
    2.4736    2.9197    2.1144 H   0  0  0  0  0  0  0  0  0  0  0  0
  1  2  1  0
  1 27  1  0
  1 28  1  0
  1 29  1  0
  2 26  2  0
  2  3  1  0
  3  4  2  0
  3 30  1  0
  4  5  1  0
  4 24  1  0
  5 10  1  0
  5  6  2  0
  6  7  1  0
  6 31  1  0
  7  8  2  0
  7 32  1  0
  8 23  1  0
  8  9  1  0
  9 10  2  0
  9 11  1  0
 10 33  1  0
 11 16  1  0
 11 12  1  1
 11 17  1  0
 12 13  1  0
 12 34  1  0
 12 35  1  0
 13 14  1  0
 14 15  1  0
 14 16  2  0
 15 36  1  0
 15 48  1  0
 16 37  1  0
 17 21  1  1
 17 18  1  0
 17 22  1  0
 18 19  1  0
 18 38  1  0
 18 39  1  0
 19 20  1  0
 19 40  1  0
 19 41  1  0
 20 21  1  0
 21 42  1  0
 21 43  1  0
 22 23  1  0
 22 44  1  0
 22 45  1  0
 24 25  2  0
 24 46  1  0
 25 26  1  0
 25 47  1  0
M  CHG  1  16   1
M  END
>  <i_m_ct_stereo_status>  (211) 
1

>  <s_m_source_file>  (211) 
/var/tmp/pbs.5076255.sched01/tmpco4mv84g/486h_uxm9x.sdf

>  <i_m_source_file_index>  (211) 
43

>  <i_lp_mmshare_version>  (211) 
48012

>  <i_f3d_flags>  (211) 
0

>  <s_epik_input>  (211) 
W0NIM11jMVtjSF1jKFtjSF1bY0hdbjEpLWMoW2NIXVtjSF0yKVtjSF1jM2MyT1tDSDJdW0NAXTQoW0NIMl1bQ0gyXU9bQ0gyXTQpW0NAQF0zNVtDSDJdTy9DKD1OXFtIXSlbTkhdNQ==

>  <s_epik_cmdline>  (211) 
J2VwaWtfcHl0aG9uJywgJy1waHQnLCAnMi4wJywgJy1waCcsICc3LjAnLCAnLXRuJywgJzgnLCAnLW1hJywgJzIwMCcsICctaW1hZScsICc8aW5maWxlLm1hZT4nLCAnLW9tYWUnLCAnPG91dGZpbGUubWFlPic=

>  <r_lp_tautomer_probability>  (211) 
1

>  <r_epik_Ionization_Penalty>  (211) 
0.164966

>  <r_epik_Ionization_Penalty_Charging>  (211) 
0.00109965

>  <r_epik_Ionization_Penalty_Neutral>  (211) 
0.163867

>  <r_epik_State_Penalty>  (211) 
0.14539

>  <r_epik_Charging_Adjusted_Penalty>  (211) 
0.146489

>  <i_epik_Tot_Q>  (211) 
1

>  <i_epik_Tot_abs_Q>  (211) 
1

>  <s_epik_Chemistry_Notes>  (211) 
This compound has an imine and may undergo hydrolysis.

>  <s_lp_Force_Field>  (211) 
OPLS3e

>  <r_lp_Energy>  (211) 
33.2427

>  <b_lp_Chiralities_Consistent>  (211) 
1

>  <s_lp_Variant>  (211) 
54:0-1

>  <s_i_glide_gridfile>  (211) 
pfpi4k_grid

>  <i_i_glide_lignum>  (211) 
43

>  <i_i_glide_rotatable_bonds>  (211) 
1

>  <r_i_docking_score>  (211) 
-3.87252

>  <r_i_glide_ligand_efficiency>  (211) 
-0.148943

>  <r_i_glide_ligand_efficiency_sa>  (211) 
-0.441244

>  <r_i_glide_ligand_efficiency_ln>  (211) 
-0.909449

>  <r_i_glide_gscore>  (211) 
-3.87252

>  <r_i_glide_lipo>  (211) 
-0.606342

>  <r_i_glide_hbond>  (211) 
-0.0521542

>  <r_i_glide_metal>  (211) 
-0

>  <r_i_glide_rewards>  (211) 
-1.00632

>  <r_i_glide_evdw>  (211) 
-22.3489

>  <r_i_glide_ecoul>  (211) 
-7.89332

>  <r_i_glide_erotb>  (211) 
0.153671

>  <r_i_glide_esite>  (211) 
-0.059936

>  <r_i_glide_emodel>  (211) 
-39.9964

>  <r_i_glide_energy>  (211) 
-30.2423

>  <r_i_glide_einternal>  (211) 
0.0283905

>  <r_i_glide_intrahb_reward>  (211) 
-0

>  <i_i_glide_confnum>  (211) 
4

>  <i_i_glide_posenum>  (211) 
30

>  <r_i_glide_eff_state_penalty>  (211) 
0

>  <ligand_id>  (211) 
54

>  <original_smiles>  (211) 
Cc1cc(-c2ccc3c(c2)C2(COC(=N)N2)C2(CCOC2)CO3)ccn1

>  <smiles>  (211) 
[H]c1nc(C([H])([H])[H])c([H])c(-c2c([H])c([H])c3c(c2[H])C2([N+]([H])=C(N([H])[H])OC2([H])[H])C2(C([H])([H])O3)C([H])([H])OC([H])([H])C2([H])[H])c1[H]

$$$$
54:1:0
     RDKit          3D

 47 51  0  0  1  0  0  0  0  0999 V2000
    3.3692   -0.3659   -4.4799 C   0  0  0  0  0  0  0  0  0  0  0  0
    3.8078   -1.5396   -3.6328 C   0  0  0  0  0  0  0  0  0  0  0  0
    3.7987   -1.4567   -2.2294 C   0  0  0  0  0  0  0  0  0  0  0  0
    4.2053   -2.5622   -1.4508 C   0  0  0  0  0  0  0  0  0  0  0  0
    4.1851   -2.5410    0.0283 C   0  0  0  0  0  0  0  0  0  0  0  0
    4.9304   -3.4655    0.7992 C   0  0  0  0  0  0  0  0  0  0  0  0
    4.9189   -3.4265    2.2009 C   0  0  0  0  0  0  0  0  0  0  0  0
    4.2063   -2.4266    2.8835 C   0  0  0  0  0  0  0  0  0  0  0  0
    3.4344   -1.5022    2.1278 C   0  0  0  0  0  0  0  0  0  0  0  0
    3.4211   -1.5756    0.7223 C   0  0  0  0  0  0  0  0  0  0  0  0
    2.6086   -0.4132    2.8287 C   0  0  1  0  0  0  0  0  0  0  0  0
    3.3053    0.9528    2.6277 C   0  0  0  0  0  0  0  0  0  0  0  0
    2.2248    1.8231    2.3422 O   0  0  0  0  0  0  0  0  0  0  0  0
    1.1376    1.0687    2.0650 C   0  0  0  0  0  0  0  0  0  0  0  0
    0.0409    1.7531    1.6592 N   0  0  0  0  0  0  0  0  0  0  0  0
    1.2935   -0.2030    2.2292 N   0  0  0  0  0  0  0  0  0  0  0  0
    2.4283   -0.7756    4.3365 C   0  0  2  0  0  0  0  0  0  0  0  0
    1.4207   -1.9381    4.5767 C   0  0  0  0  0  0  0  0  0  0  0  0
    0.3536   -1.3390    5.4733 C   0  0  0  0  0  0  0  0  0  0  0  0
    1.0365   -0.2982    6.1768 O   0  0  0  0  0  0  0  0  0  0  0  0
    1.8388    0.3625    5.2215 C   0  0  0  0  0  0  0  0  0  0  0  0
    3.7954   -1.2318    4.8931 C   0  0  0  0  0  0  0  0  0  0  0  0
    4.2834   -2.4074    4.2572 O   0  0  0  0  0  0  0  0  0  0  0  0
    4.6317   -3.7049   -2.1625 C   0  0  0  0  0  0  0  0  0  0  0  0
    4.6120   -3.6961   -3.5690 C   0  0  0  0  0  0  0  0  0  0  0  0
    4.2131   -2.6379   -4.3001 N   0  0  0  0  0  0  0  0  0  0  0  0
    3.0608    0.4753   -3.8574 H   0  0  0  0  0  0  0  0  0  0  0  0
    2.5262   -0.6452   -5.1130 H   0  0  0  0  0  0  0  0  0  0  0  0
    4.1947   -0.0366   -5.1116 H   0  0  0  0  0  0  0  0  0  0  0  0
    3.4474   -0.5470   -1.7769 H   0  0  0  0  0  0  0  0  0  0  0  0
    5.5424   -4.2205    0.3279 H   0  0  0  0  0  0  0  0  0  0  0  0
    5.5037   -4.1409    2.7575 H   0  0  0  0  0  0  0  0  0  0  0  0
    2.8194   -0.8479    0.1941 H   0  0  0  0  0  0  0  0  0  0  0  0
    3.8651    1.2911    3.4978 H   0  0  0  0  0  0  0  0  0  0  0  0
    3.9595    0.9481    1.7583 H   0  0  0  0  0  0  0  0  0  0  0  0
   -0.8068    1.3372    1.3371 H   0  0  0  0  0  0  0  0  0  0  0  0
    0.9915   -2.3554    3.6609 H   0  0  0  0  0  0  0  0  0  0  0  0
    1.8767   -2.7843    5.1025 H   0  0  0  0  0  0  0  0  0  0  0  0
   -0.4632   -0.9310    4.8669 H   0  0  0  0  0  0  0  0  0  0  0  0
   -0.0292   -2.0555    6.1922 H   0  0  0  0  0  0  0  0  0  0  0  0
    2.6434    0.9641    5.6755 H   0  0  0  0  0  0  0  0  0  0  0  0
    1.1693    1.0271    4.6596 H   0  0  0  0  0  0  0  0  0  0  0  0
    4.5669   -0.4676    4.8066 H   0  0  0  0  0  0  0  0  0  0  0  0
    3.7309   -1.4590    5.9536 H   0  0  0  0  0  0  0  0  0  0  0  0
    4.9322   -4.6123   -1.6641 H   0  0  0  0  0  0  0  0  0  0  0  0
    4.9314   -4.5742   -4.1133 H   0  0  0  0  0  0  0  0  0  0  0  0
    0.0524    2.7918    1.4748 H   0  0  0  0  0  0  0  0  0  0  0  0
  1  2  1  0
  1 27  1  0
  1 28  1  0
  1 29  1  0
  2 26  2  0
  2  3  1  0
  3  4  2  0
  3 30  1  0
  4  5  1  0
  4 24  1  0
  5 10  1  0
  5  6  2  0
  6  7  1  0
  6 31  1  0
  7  8  2  0
  7 32  1  0
  8 23  1  0
  8  9  1  0
  9 10  2  0
  9 11  1  0
 10 33  1  0
 11 16  1  0
 11 12  1  1
 11 17  1  0
 12 13  1  0
 12 34  1  0
 12 35  1  0
 13 14  1  0
 14 15  1  0
 14 16  2  0
 15 36  1  0
 15 47  1  0
 17 21  1  1
 17 18  1  0
 17 22  1  0
 18 19  1  0
 18 37  1  0
 18 38  1  0
 19 20  1  0
 19 39  1  0
 19 40  1  0
 20 21  1  0
 21 41  1  0
 21 42  1  0
 22 23  1  0
 22 43  1  0
 22 44  1  0
 24 25  2  0
 24 45  1  0
 25 26  1  0
 25 46  1  0
M  END
>  <i_m_ct_stereo_status>  (212) 
1

>  <s_m_source_file>  (212) 
/var/tmp/pbs.5076255.sched01/tmpco4mv84g/486h_uxm9x.sdf

>  <i_m_source_file_index>  (212) 
44

>  <i_lp_mmshare_version>  (212) 
48012

>  <i_f3d_flags>  (212) 
0

>  <s_epik_input>  (212) 
W0NIM11jMVtjSF1jKFtjSF1bY0hdbjEpLWMoW2NIXVtjSF0yKVtjSF1jM2MyT1tDSDJdW0NAXTQoW0NIMl1bQ0gyXU9bQ0gyXTQpW0NAQF0zNVtDSDJdTy9DKD1OXFtIXSlbTkhdNQ==

>  <s_epik_cmdline>  (212) 
J2VwaWtfcHl0aG9uJywgJy1waHQnLCAnMi4wJywgJy1waCcsICc3LjAnLCAnLXRuJywgJzgnLCAnLW1hJywgJzIwMCcsICctaW1hZScsICc8aW5maWxlLm1hZT4nLCAnLW9tYWUnLCAnPG91dGZpbGUubWFlPic=

>  <r_lp_tautomer_probability>  (212) 
1

>  <r_epik_Ionization_Penalty>  (212) 
1.23584

>  <r_epik_Ionization_Penalty_Charging>  (212) 
1.16183

>  <r_epik_Ionization_Penalty_Neutral>  (212) 
0.0740069

>  <r_epik_State_Penalty>  (212) 
1.28927

>  <r_epik_Charging_Adjusted_Penalty>  (212) 
2.45111

>  <i_epik_Tot_Q>  (212) 
0

>  <i_epik_Tot_abs_Q>  (212) 
0

>  <s_epik_Chemistry_Notes>  (212) 
This compound has an imine and may undergo hydrolysis.

>  <s_lp_Force_Field>  (212) 
OPLS3e

>  <r_lp_Energy>  (212) 
25.1546

>  <b_lp_Chiralities_Consistent>  (212) 
1

>  <s_lp_Variant>  (212) 
54:0-2

>  <s_i_glide_gridfile>  (212) 
pfpi4k_grid

>  <i_i_glide_lignum>  (212) 
44

>  <i_i_glide_rotatable_bonds>  (212) 
1

>  <r_i_docking_score>  (212) 
-4.63026

>  <r_i_glide_ligand_efficiency>  (212) 
-0.178087

>  <r_i_glide_ligand_efficiency_sa>  (212) 
-0.527581

>  <r_i_glide_ligand_efficiency_ln>  (212) 
-1.0874

>  <r_i_glide_gscore>  (212) 
-4.63026

>  <r_i_glide_lipo>  (212) 
-0.743711

>  <r_i_glide_hbond>  (212) 
-0.443078

>  <r_i_glide_metal>  (212) 
-0

>  <r_i_glide_rewards>  (212) 
-1.01319

>  <r_i_glide_evdw>  (212) 
-24.6157

>  <r_i_glide_ecoul>  (212) 
-8.14558

>  <r_i_glide_erotb>  (212) 
0.154456

>  <r_i_glide_esite>  (212) 
-0.132113

>  <r_i_glide_emodel>  (212) 
-42.2934

>  <r_i_glide_energy>  (212) 
-32.7613

>  <r_i_glide_einternal>  (212) 
0.821193

>  <r_i_glide_intrahb_reward>  (212) 
-0

>  <i_i_glide_confnum>  (212) 
2

>  <i_i_glide_posenum>  (212) 
38

>  <r_i_glide_eff_state_penalty>  (212) 
0

>  <ligand_id>  (212) 
54

>  <original_smiles>  (212) 
Cc1cc(-c2ccc3c(c2)C2(COC(=N)N2)C2(CCOC2)CO3)ccn1

>  <smiles>  (212) 
[H]c1nc(C([H])([H])[H])c([H])c(-c2c([H])c([H])c3c(c2[H])C2(N=C(N([H])[H])OC2([H])[H])C2(C([H])([H])O3)C([H])([H])OC([H])([H])C2([H])[H])c1[H]

$$$$
54:1:1
     RDKit          3D

 47 51  0  0  1  0  0  0  0  0999 V2000
    3.2280   -0.4444   -3.9745 C   0  0  0  0  0  0  0  0  0  0  0  0
    3.8106   -1.5903   -3.1778 C   0  0  0  0  0  0  0  0  0  0  0  0
    3.5202   -1.7116   -1.8066 C   0  0  0  0  0  0  0  0  0  0  0  0
    4.0723   -2.7750   -1.0520 C   0  0  0  0  0  0  0  0  0  0  0  0
    3.7729   -2.9776    0.3888 C   0  0  0  0  0  0  0  0  0  0  0  0
    4.2021   -4.1326    1.0926 C   0  0  0  0  0  0  0  0  0  0  0  0
    3.9398   -4.2988    2.4644 C   0  0  0  0  0  0  0  0  0  0  0  0
    3.2635   -3.3059    3.1903 C   0  0  0  0  0  0  0  0  0  0  0  0
    2.8026   -2.1536    2.4974 C   0  0  0  0  0  0  0  0  0  0  0  0
    3.0532   -2.0051    1.1190 C   0  0  0  0  0  0  0  0  0  0  0  0
    2.0242   -1.0526    3.2307 C   0  0  1  0  0  0  0  0  0  0  0  0
    2.9269    0.1933    3.3951 C   0  0  0  0  0  0  0  0  0  0  0  0
    2.0528    1.2642    3.0787 O   0  0  0  0  0  0  0  0  0  0  0  0
    0.9564    0.7450    2.4780 C   0  0  0  0  0  0  0  0  0  0  0  0
    0.0294    1.6697    2.0395 N   0  0  0  0  0  0  0  0  0  0  0  0
    0.8917   -0.5386    2.4641 N   0  0  0  0  0  0  0  0  0  0  0  0
    1.4946   -1.6026    4.5966 C   0  0  2  0  0  0  0  0  0  0  0  0
    0.3102   -2.6021    4.4548 C   0  0  0  0  0  0  0  0  0  0  0  0
   -0.8196   -1.9721    5.2511 C   0  0  0  0  0  0  0  0  0  0  0  0
   -0.1544   -1.1832    6.2369 O   0  0  0  0  0  0  0  0  0  0  0  0
    0.9115   -0.5313    5.5615 C   0  0  0  0  0  0  0  0  0  0  0  0
    2.6490   -2.3711    5.2849 C   0  0  0  0  0  0  0  0  0  0  0  0
    3.0745   -3.5050    4.5428 O   0  0  0  0  0  0  0  0  0  0  0  0
    4.9315   -3.6467   -1.7673 C   0  0  0  0  0  0  0  0  0  0  0  0
    5.1535   -3.4471   -3.1411 C   0  0  0  0  0  0  0  0  0  0  0  0
    4.6173   -2.4356   -3.8473 N   0  0  0  0  0  0  0  0  0  0  0  0
    2.5846    0.1556   -3.3308 H   0  0  0  0  0  0  0  0  0  0  0  0
    2.6179   -0.8320   -4.7896 H   0  0  0  0  0  0  0  0  0  0  0  0
    4.0256    0.1894   -4.3716 H   0  0  0  0  0  0  0  0  0  0  0  0
    2.8425   -0.9886   -1.3707 H   0  0  0  0  0  0  0  0  0  0  0  0
    4.7580   -4.9241    0.6119 H   0  0  0  0  0  0  0  0  0  0  0  0
    4.3033   -5.1754    2.9730 H   0  0  0  0  0  0  0  0  0  0  0  0
    2.6932   -1.0959    0.6548 H   0  0  0  0  0  0  0  0  0  0  0  0
    3.3483    0.2900    4.3969 H   0  0  0  0  0  0  0  0  0  0  0  0
    3.7397    0.2067    2.6693 H   0  0  0  0  0  0  0  0  0  0  0  0
   -0.7887    1.4162    1.5240 H   0  0  0  0  0  0  0  0  0  0  0  0
    0.0209   -2.7890    3.4200 H   0  0  0  0  0  0  0  0  0  0  0  0
    0.5229   -3.5863    4.8848 H   0  0  0  0  0  0  0  0  0  0  0  0
   -1.4402   -1.3452    4.5994 H   0  0  0  0  0  0  0  0  0  0  0  0
   -1.4299   -2.7142    5.7583 H   0  0  0  0  0  0  0  0  0  0  0  0
    1.6851   -0.1526    6.2413 H   0  0  0  0  0  0  0  0  0  0  0  0
    0.4508    0.3090    5.0331 H   0  0  0  0  0  0  0  0  0  0  0  0
    3.5252   -1.7474    5.4606 H   0  0  0  0  0  0  0  0  0  0  0  0
    2.3515   -2.7409    6.2602 H   0  0  0  0  0  0  0  0  0  0  0  0
    5.4176   -4.4860   -1.3056 H   0  0  0  0  0  0  0  0  0  0  0  0
    5.8021   -4.1129   -3.6873 H   0  0  0  0  0  0  0  0  0  0  0  0
    0.1901    2.6821    2.0467 H   0  0  0  0  0  0  0  0  0  0  0  0
  1  2  1  0
  1 27  1  0
  1 28  1  0
  1 29  1  0
  2 26  2  0
  2  3  1  0
  3  4  2  0
  3 30  1  0
  4  5  1  0
  4 24  1  0
  5 10  1  0
  5  6  2  0
  6  7  1  0
  6 31  1  0
  7  8  2  0
  7 32  1  0
  8 23  1  0
  8  9  1  0
  9 10  2  0
  9 11  1  0
 10 33  1  0
 11 16  1  0
 11 12  1  1
 11 17  1  0
 12 13  1  0
 12 34  1  0
 12 35  1  0
 13 14  1  0
 14 15  1  0
 14 16  2  0
 15 36  1  0
 15 47  1  0
 17 21  1  1
 17 18  1  0
 17 22  1  0
 18 19  1  0
 18 37  1  0
 18 38  1  0
 19 20  1  0
 19 39  1  0
 19 40  1  0
 20 21  1  0
 21 41  1  0
 21 42  1  0
 22 23  1  0
 22 43  1  0
 22 44  1  0
 24 25  2  0
 24 45  1  0
 25 26  1  0
 25 46  1  0
M  END
>  <i_m_ct_stereo_status>  (213) 
1

>  <s_m_source_file>  (213) 
/var/tmp/pbs.5076255.sched01/tmpco4mv84g/486h_uxm9x.sdf

>  <i_m_source_file_index>  (213) 
44

>  <i_lp_mmshare_version>  (213) 
48012

>  <i_f3d_flags>  (213) 
0

>  <s_epik_input>  (213) 
W0NIM11jMVtjSF1jKFtjSF1bY0hdbjEpLWMoW2NIXVtjSF0yKVtjSF1jM2MyT1tDSDJdW0NAXTQoW0NIMl1bQ0gyXU9bQ0gyXTQpW0NAQF0zNVtDSDJdTy9DKD1OXFtIXSlbTkhdNQ==

>  <s_epik_cmdline>  (213) 
J2VwaWtfcHl0aG9uJywgJy1waHQnLCAnMi4wJywgJy1waCcsICc3LjAnLCAnLXRuJywgJzgnLCAnLW1hJywgJzIwMCcsICctaW1hZScsICc8aW5maWxlLm1hZT4nLCAnLW9tYWUnLCAnPG91dGZpbGUubWFlPic=

>  <r_lp_tautomer_probability>  (213) 
1

>  <r_epik_Ionization_Penalty>  (213) 
1.23584

>  <r_epik_Ionization_Penalty_Charging>  (213) 
1.16183

>  <r_epik_Ionization_Penalty_Neutral>  (213) 
0.0740069

>  <r_epik_State_Penalty>  (213) 
1.28927

>  <r_epik_Charging_Adjusted_Penalty>  (213) 
2.45111

>  <i_epik_Tot_Q>  (213) 
0

>  <i_epik_Tot_abs_Q>  (213) 
0

>  <s_epik_Chemistry_Notes>  (213) 
This compound has an imine and may undergo hydrolysis.

>  <s_lp_Force_Field>  (213) 
OPLS3e

>  <r_lp_Energy>  (213) 
25.1546

>  <b_lp_Chiralities_Consistent>  (213) 
1

>  <s_lp_Variant>  (213) 
54:0-2

>  <s_i_glide_gridfile>  (213) 
pfpi4k_grid

>  <i_i_glide_lignum>  (213) 
44

>  <i_i_glide_rotatable_bonds>  (213) 
1

>  <r_i_docking_score>  (213) 
-3.95881

>  <r_i_glide_ligand_efficiency>  (213) 
-0.152262

>  <r_i_glide_ligand_efficiency_sa>  (213) 
-0.451076

>  <r_i_glide_ligand_efficiency_ln>  (213) 
-0.929715

>  <r_i_glide_gscore>  (213) 
-3.95881

>  <r_i_glide_lipo>  (213) 
-0.660328

>  <r_i_glide_hbond>  (213) 
-0.184536

>  <r_i_glide_metal>  (213) 
-0

>  <r_i_glide_rewards>  (213) 
-1.01319

>  <r_i_glide_evdw>  (213) 
-26.1695

>  <r_i_glide_ecoul>  (213) 
-5.56316

>  <r_i_glide_erotb>  (213) 
0.154456

>  <r_i_glide_esite>  (213) 
-0.112267

>  <r_i_glide_emodel>  (213) 
-39.2152

>  <r_i_glide_energy>  (213) 
-31.7327

>  <r_i_glide_einternal>  (213) 
1.79128

>  <r_i_glide_intrahb_reward>  (213) 
-0

>  <i_i_glide_confnum>  (213) 
4

>  <i_i_glide_posenum>  (213) 
28

>  <r_i_glide_eff_state_penalty>  (213) 
0

>  <ligand_id>  (213) 
54

>  <original_smiles>  (213) 
Cc1cc(-c2ccc3c(c2)C2(COC(=N)N2)C2(CCOC2)CO3)ccn1

>  <smiles>  (213) 
[H]c1nc(C([H])([H])[H])c([H])c(-c2c([H])c([H])c3c(c2[H])C2(N=C(N([H])[H])OC2([H])[H])C2(C([H])([H])O3)C([H])([H])OC([H])([H])C2([H])[H])c1[H]

$$$$
54:1:2
     RDKit          3D

 47 51  0  0  1  0  0  0  0  0999 V2000
    2.7445   -2.5659   -3.9875 C   0  0  0  0  0  0  0  0  0  0  0  0
    3.7734   -2.7860   -2.9019 C   0  0  0  0  0  0  0  0  0  0  0  0
    3.4088   -2.7291   -1.5446 C   0  0  0  0  0  0  0  0  0  0  0  0
    4.3919   -2.9420   -0.5596 C   0  0  0  0  0  0  0  0  0  0  0  0
    4.0557   -2.9155    0.8619 C   0  0  0  0  0  0  0  0  0  0  0  0
    4.5259   -3.9064    1.7479 C   0  0  0  0  0  0  0  0  0  0  0  0
    4.2098   -3.8586    3.1166 C   0  0  0  0  0  0  0  0  0  0  0  0
    3.4551   -2.7903    3.6338 C   0  0  0  0  0  0  0  0  0  0  0  0
    2.9607   -1.7999    2.7458 C   0  0  0  0  0  0  0  0  0  0  0  0
    3.2608   -1.8754    1.3719 C   0  0  0  0  0  0  0  0  0  0  0  0
    2.1092   -0.6340    3.2737 C   0  0  1  0  0  0  0  0  0  0  0  0
    2.9614    0.6639    3.2625 C   0  0  0  0  0  0  0  0  0  0  0  0
    2.0603    1.6264    2.7502 O   0  0  0  0  0  0  0  0  0  0  0  0
    0.9919    0.9788    2.2353 C   0  0  0  0  0  0  0  0  0  0  0  0
    0.0513    1.7515    1.6451 N   0  0  0  0  0  0  0  0  0  0  0  0
    1.0021   -0.3044    2.3920 N   0  0  0  0  0  0  0  0  0  0  0  0
    1.5547   -0.9719    4.6971 C   0  0  2  0  0  0  0  0  0  0  0  0
    0.4117   -2.0377    4.6927 C   0  0  0  0  0  0  0  0  0  0  0  0
   -0.7692   -1.3392    5.3356 C   0  0  0  0  0  0  0  0  0  0  0  0
   -0.1684   -0.3635    6.1982 O   0  0  0  0  0  0  0  0  0  0  0  0
    0.8837    0.2119    5.4583 C   0  0  0  0  0  0  0  0  0  0  0  0
    2.7124   -1.5599    5.5384 C   0  0  0  0  0  0  0  0  0  0  0  0
    3.2209   -2.7745    4.9954 O   0  0  0  0  0  0  0  0  0  0  0  0
    5.7106   -3.1875   -0.9954 C   0  0  0  0  0  0  0  0  0  0  0  0
    5.9744   -3.2189   -2.3786 C   0  0  0  0  0  0  0  0  0  0  0  0
    5.0291   -3.0273   -3.3162 N   0  0  0  0  0  0  0  0  0  0  0  0
    1.7607   -2.3797   -3.5619 H   0  0  0  0  0  0  0  0  0  0  0  0
    2.6799   -3.4482   -4.6270 H   0  0  0  0  0  0  0  0  0  0  0  0
    3.0248   -1.7050   -4.5984 H   0  0  0  0  0  0  0  0  0  0  0  0
    2.3889   -2.5406   -1.2627 H   0  0  0  0  0  0  0  0  0  0  0  0
    5.1372   -4.7130    1.3736 H   0  0  0  0  0  0  0  0  0  0  0  0
    4.5813   -4.6185    3.7808 H   0  0  0  0  0  0  0  0  0  0  0  0
    2.8940   -1.1042    0.7087 H   0  0  0  0  0  0  0  0  0  0  0  0
    3.3302    0.9447    4.2496 H   0  0  0  0  0  0  0  0  0  0  0  0
    3.8007    0.5964    2.5766 H   0  0  0  0  0  0  0  0  0  0  0  0
   -0.6991    1.3941    1.0907 H   0  0  0  0  0  0  0  0  0  0  0  0
    0.1648   -2.4185    3.6971 H   0  0  0  0  0  0  0  0  0  0  0  0
    0.6567   -2.9193    5.2923 H   0  0  0  0  0  0  0  0  0  0  0  0
   -1.3886   -0.8564    4.5711 H   0  0  0  0  0  0  0  0  0  0  0  0
   -1.3681   -2.0136    5.9368 H   0  0  0  0  0  0  0  0  0  0  0  0
    1.6155    0.7402    6.0861 H   0  0  0  0  0  0  0  0  0  0  0  0
    0.4155    0.9386    4.7849 H   0  0  0  0  0  0  0  0  0  0  0  0
    3.5489   -0.8672    5.6465 H   0  0  0  0  0  0  0  0  0  0  0  0
    2.3909   -1.7716    6.5527 H   0  0  0  0  0  0  0  0  0  0  0  0
    6.5002   -3.3524   -0.2860 H   0  0  0  0  0  0  0  0  0  0  0  0
    6.9769   -3.4136   -2.7360 H   0  0  0  0  0  0  0  0  0  0  0  0
    0.1805    2.7621    1.4678 H   0  0  0  0  0  0  0  0  0  0  0  0
  1  2  1  0
  1 27  1  0
  1 28  1  0
  1 29  1  0
  2 26  2  0
  2  3  1  0
  3  4  2  0
  3 30  1  0
  4  5  1  0
  4 24  1  0
  5 10  1  0
  5  6  2  0
  6  7  1  0
  6 31  1  0
  7  8  2  0
  7 32  1  0
  8 23  1  0
  8  9  1  0
  9 10  2  0
  9 11  1  0
 10 33  1  0
 11 16  1  0
 11 12  1  1
 11 17  1  0
 12 13  1  0
 12 34  1  0
 12 35  1  0
 13 14  1  0
 14 15  1  0
 14 16  2  0
 15 36  1  0
 15 47  1  0
 17 21  1  1
 17 18  1  0
 17 22  1  0
 18 19  1  0
 18 37  1  0
 18 38  1  0
 19 20  1  0
 19 39  1  0
 19 40  1  0
 20 21  1  0
 21 41  1  0
 21 42  1  0
 22 23  1  0
 22 43  1  0
 22 44  1  0
 24 25  2  0
 24 45  1  0
 25 26  1  0
 25 46  1  0
M  END
>  <i_m_ct_stereo_status>  (214) 
1

>  <s_m_source_file>  (214) 
/var/tmp/pbs.5076255.sched01/tmpco4mv84g/486h_uxm9x.sdf

>  <i_m_source_file_index>  (214) 
44

>  <i_lp_mmshare_version>  (214) 
48012

>  <i_f3d_flags>  (214) 
0

>  <s_epik_input>  (214) 
W0NIM11jMVtjSF1jKFtjSF1bY0hdbjEpLWMoW2NIXVtjSF0yKVtjSF1jM2MyT1tDSDJdW0NAXTQoW0NIMl1bQ0gyXU9bQ0gyXTQpW0NAQF0zNVtDSDJdTy9DKD1OXFtIXSlbTkhdNQ==

>  <s_epik_cmdline>  (214) 
J2VwaWtfcHl0aG9uJywgJy1waHQnLCAnMi4wJywgJy1waCcsICc3LjAnLCAnLXRuJywgJzgnLCAnLW1hJywgJzIwMCcsICctaW1hZScsICc8aW5maWxlLm1hZT4nLCAnLW9tYWUnLCAnPG91dGZpbGUubWFlPic=

>  <r_lp_tautomer_probability>  (214) 
1

>  <r_epik_Ionization_Penalty>  (214) 
1.23584

>  <r_epik_Ionization_Penalty_Charging>  (214) 
1.16183

>  <r_epik_Ionization_Penalty_Neutral>  (214) 
0.0740069

>  <r_epik_State_Penalty>  (214) 
1.28927

>  <r_epik_Charging_Adjusted_Penalty>  (214) 
2.45111

>  <i_epik_Tot_Q>  (214) 
0

>  <i_epik_Tot_abs_Q>  (214) 
0

>  <s_epik_Chemistry_Notes>  (214) 
This compound has an imine and may undergo hydrolysis.

>  <s_lp_Force_Field>  (214) 
OPLS3e

>  <r_lp_Energy>  (214) 
25.1546

>  <b_lp_Chiralities_Consistent>  (214) 
1

>  <s_lp_Variant>  (214) 
54:0-2

>  <s_i_glide_gridfile>  (214) 
pfpi4k_grid

>  <i_i_glide_lignum>  (214) 
44

>  <i_i_glide_rotatable_bonds>  (214) 
1

>  <r_i_docking_score>  (214) 
-3.92412

>  <r_i_glide_ligand_efficiency>  (214) 
-0.150928

>  <r_i_glide_ligand_efficiency_sa>  (214) 
-0.447123

>  <r_i_glide_ligand_efficiency_ln>  (214) 
-0.921567

>  <r_i_glide_gscore>  (214) 
-3.92412

>  <r_i_glide_lipo>  (214) 
-0.499848

>  <r_i_glide_hbond>  (214) 
-0.238249

>  <r_i_glide_metal>  (214) 
-0

>  <r_i_glide_rewards>  (214) 
-1.01319

>  <r_i_glide_evdw>  (214) 
-25.9868

>  <r_i_glide_ecoul>  (214) 
-5.99844

>  <r_i_glide_erotb>  (214) 
0.154456

>  <r_i_glide_esite>  (214) 
-0.128186

>  <r_i_glide_emodel>  (214) 
-39.8796

>  <r_i_glide_energy>  (214) 
-31.9852

>  <r_i_glide_einternal>  (214) 
0.295442

>  <r_i_glide_intrahb_reward>  (214) 
-0

>  <i_i_glide_confnum>  (214) 
4

>  <i_i_glide_posenum>  (214) 
18

>  <r_i_glide_eff_state_penalty>  (214) 
0

>  <ligand_id>  (214) 
54

>  <original_smiles>  (214) 
Cc1cc(-c2ccc3c(c2)C2(COC(=N)N2)C2(CCOC2)CO3)ccn1

>  <smiles>  (214) 
[H]c1nc(C([H])([H])[H])c([H])c(-c2c([H])c([H])c3c(c2[H])C2(N=C(N([H])[H])OC2([H])[H])C2(C([H])([H])O3)C([H])([H])OC([H])([H])C2([H])[H])c1[H]

$$$$
54:2:0
     RDKit          3D

 49 53  0  0  1  0  0  0  0  0999 V2000
    3.6446   -1.3114   -3.2462 C   0  0  0  0  0  0  0  0  0  0  0  0
    4.3614   -1.9342   -2.0678 C   0  0  0  0  0  0  0  0  0  0  0  0
    3.7984   -1.9599   -0.7794 C   0  0  0  0  0  0  0  0  0  0  0  0
    4.5019   -2.5533    0.2931 C   0  0  0  0  0  0  0  0  0  0  0  0
    3.9315   -2.5935    1.6489 C   0  0  0  0  0  0  0  0  0  0  0  0
    4.2425   -3.6560    2.5242 C   0  0  0  0  0  0  0  0  0  0  0  0
    3.7075   -3.6992    3.8217 C   0  0  0  0  0  0  0  0  0  0  0  0
    2.8486   -2.6866    4.2723 C   0  0  0  0  0  0  0  0  0  0  0  0
    2.5075   -1.6241    3.3999 C   0  0  0  0  0  0  0  0  0  0  0  0
    3.0597   -1.5813    2.1002 C   0  0  0  0  0  0  0  0  0  0  0  0
    1.5392   -0.5184    3.8541 C   0  0  1  0  0  0  0  0  0  0  0  0
    2.2877    0.8308    4.1117 C   0  0  0  0  0  0  0  0  0  0  0  0
    1.8181    1.6418    3.0439 O   0  0  0  0  0  0  0  0  0  0  0  0
    0.8000    1.0769    2.4020 C   0  0  0  0  0  0  0  0  0  0  0  0
    0.0817    1.7425    1.5032 N   0  0  0  0  0  0  0  0  0  0  0  0
    0.6114   -0.1743    2.7922 N   0  0  0  0  0  0  0  0  0  0  0  0
    0.7789   -0.9517    5.1369 C   0  0  2  0  0  0  0  0  0  0  0  0
   -0.4112   -1.8703    4.8270 C   0  0  0  0  0  0  0  0  0  0  0  0
   -1.5999   -1.1253    5.4430 C   0  0  0  0  0  0  0  0  0  0  0  0
   -1.0453   -0.3207    6.4702 O   0  0  0  0  0  0  0  0  0  0  0  0
    0.1294    0.2300    5.8962 C   0  0  0  0  0  0  0  0  0  0  0  0
    1.7710   -1.6175    6.0941 C   0  0  0  0  0  0  0  0  0  0  0  0
    2.3414   -2.7873    5.5436 O   0  0  0  0  0  0  0  0  0  0  0  0
    5.7744   -3.1066    0.0207 C   0  0  0  0  0  0  0  0  0  0  0  0
    6.2985   -3.0526   -1.2834 C   0  0  0  0  0  0  0  0  0  0  0  0
    5.5790   -2.4830   -2.2707 N   0  0  0  0  0  0  0  0  0  0  0  0
    2.6660   -0.9227   -2.9553 H   0  0  0  0  0  0  0  0  0  0  0  0
    3.4945   -2.0526   -4.0316 H   0  0  0  0  0  0  0  0  0  0  0  0
    4.2300   -0.4846   -3.6486 H   0  0  0  0  0  0  0  0  0  0  0  0
    2.8176   -1.5347   -0.6229 H   0  0  0  0  0  0  0  0  0  0  0  0
    4.8969   -4.4578    2.2127 H   0  0  0  0  0  0  0  0  0  0  0  0
    3.9519   -4.5194    4.4765 H   0  0  0  0  0  0  0  0  0  0  0  0
    2.8084   -0.7632    1.4384 H   0  0  0  0  0  0  0  0  0  0  0  0
    1.9826    1.3172    5.0479 H   0  0  0  0  0  0  0  0  0  0  0  0
    3.3591    0.6456    4.2868 H   0  0  0  0  0  0  0  0  0  0  0  0
   -0.6512    1.2989    0.9799 H   0  0  0  0  0  0  0  0  0  0  0  0
    0.0127   -0.8314    2.3633 H   0  0  0  0  0  0  0  0  0  0  0  0
   -0.5749   -2.0553    3.7614 H   0  0  0  0  0  0  0  0  0  0  0  0
   -0.2598   -2.8699    5.2500 H   0  0  0  0  0  0  0  0  0  0  0  0
   -2.0750   -0.4497    4.7061 H   0  0  0  0  0  0  0  0  0  0  0  0
   -2.3645   -1.7921    5.8715 H   0  0  0  0  0  0  0  0  0  0  0  0
    0.7720    0.6320    6.6775 H   0  0  0  0  0  0  0  0  0  0  0  0
   -0.1540    1.0491    5.2357 H   0  0  0  0  0  0  0  0  0  0  0  0
    2.5722   -0.9251    6.3560 H   0  0  0  0  0  0  0  0  0  0  0  0
    1.2664   -1.8746    7.0274 H   0  0  0  0  0  0  0  0  0  0  0  0
    6.3557   -3.5660    0.8068 H   0  0  0  0  0  0  0  0  0  0  0  0
    7.2616   -3.4604   -1.5630 H   0  0  0  0  0  0  0  0  0  0  0  0
    0.2358    2.7437    1.3051 H   0  0  0  0  0  0  0  0  0  0  0  0
    5.9739   -2.4669   -3.2093 H   0  0  0  0  0  0  0  0  0  0  0  0
  1  2  1  0
  1 27  1  0
  1 28  1  0
  1 29  1  0
  2 26  2  0
  2  3  1  0
  3  4  2  0
  3 30  1  0
  4  5  1  0
  4 24  1  0
  5 10  1  0
  5  6  2  0
  6  7  1  0
  6 31  1  0
  7  8  2  0
  7 32  1  0
  8 23  1  0
  8  9  1  0
  9 10  2  0
  9 11  1  0
 10 33  1  0
 11 16  1  0
 11 12  1  1
 11 17  1  0
 12 13  1  0
 12 34  1  0
 12 35  1  0
 13 14  1  0
 14 15  1  0
 14 16  2  0
 15 36  1  0
 15 48  1  0
 16 37  1  0
 17 21  1  1
 17 18  1  0
 17 22  1  0
 18 19  1  0
 18 38  1  0
 18 39  1  0
 19 20  1  0
 19 40  1  0
 19 41  1  0
 20 21  1  0
 21 42  1  0
 21 43  1  0
 22 23  1  0
 22 44  1  0
 22 45  1  0
 24 25  2  0
 24 46  1  0
 25 26  1  0
 25 47  1  0
 26 49  1  0
M  CHG  2  16   1  26   1
M  END
>  <i_m_ct_stereo_status>  (215) 
1

>  <s_m_source_file>  (215) 
/var/tmp/pbs.5076255.sched01/tmpco4mv84g/486h_uxm9x.sdf

>  <i_m_source_file_index>  (215) 
45

>  <i_lp_mmshare_version>  (215) 
48012

>  <i_f3d_flags>  (215) 
0

>  <s_epik_input>  (215) 
W0NIM11jMVtjSF1jKFtjSF1bY0hdbjEpLWMoW2NIXVtjSF0yKVtjSF1jM2MyT1tDSDJdW0NAXTQoW0NIMl1bQ0gyXU9bQ0gyXTQpW0NAQF0zNVtDSDJdTy9DKD1OXFtIXSlbTkhdNQ==

>  <s_epik_cmdline>  (215) 
J2VwaWtfcHl0aG9uJywgJy1waHQnLCAnMi4wJywgJy1waCcsICc3LjAnLCAnLXRuJywgJzgnLCAnLW1hJywgJzIwMCcsICctaW1hZScsICc8aW5maWxlLm1hZT4nLCAnLW9tYWUnLCAnPG91dGZpbGUubWFlPic=

>  <r_lp_tautomer_probability>  (215) 
1

>  <r_epik_Ionization_Penalty>  (215) 
1.36005

>  <r_epik_Ionization_Penalty_Charging>  (215) 
1.27019

>  <r_epik_Ionization_Penalty_Neutral>  (215) 
0.0898599

>  <r_epik_State_Penalty>  (215) 
1.42064

>  <r_epik_Charging_Adjusted_Penalty>  (215) 
2.69083

>  <i_epik_Tot_Q>  (215) 
2

>  <i_epik_Tot_abs_Q>  (215) 
2

>  <s_epik_Chemistry_Notes>  (215) 
This compound has an imine and may undergo hydrolysis.

>  <s_lp_Force_Field>  (215) 
OPLS3e

>  <r_lp_Energy>  (215) 
39.1228

>  <b_lp_Chiralities_Consistent>  (215) 
1

>  <s_lp_Variant>  (215) 
54:0-3

>  <s_i_glide_gridfile>  (215) 
pfpi4k_grid

>  <i_i_glide_lignum>  (215) 
45

>  <i_i_glide_rotatable_bonds>  (215) 
1

>  <r_i_docking_score>  (215) 
-4.6233

>  <r_i_glide_ligand_efficiency>  (215) 
-0.177819

>  <r_i_glide_ligand_efficiency_sa>  (215) 
-0.526789

>  <r_i_glide_ligand_efficiency_ln>  (215) 
-1.08577

>  <r_i_glide_gscore>  (215) 
-4.6233

>  <r_i_glide_lipo>  (215) 
-0.198131

>  <r_i_glide_hbond>  (215) 
-0.462056

>  <r_i_glide_metal>  (215) 
-0

>  <r_i_glide_rewards>  (215) 
-0.999444

>  <r_i_glide_evdw>  (215) 
-19.4795

>  <r_i_glide_ecoul>  (215) 
-13.2142

>  <r_i_glide_erotb>  (215) 
0.152892

>  <r_i_glide_esite>  (215) 
-0.160461

>  <r_i_glide_emodel>  (215) 
-43.1413

>  <r_i_glide_energy>  (215) 
-32.6937

>  <r_i_glide_einternal>  (215) 
0.0825911

>  <r_i_glide_intrahb_reward>  (215) 
-0

>  <i_i_glide_confnum>  (215) 
3

>  <i_i_glide_posenum>  (215) 
26

>  <r_i_glide_eff_state_penalty>  (215) 
0

>  <ligand_id>  (215) 
54

>  <original_smiles>  (215) 
Cc1cc(-c2ccc3c(c2)C2(COC(=N)N2)C2(CCOC2)CO3)ccn1

>  <smiles>  (215) 
[H]c1c([H])c(-c2c([H])c([H])[n+]([H])c(C([H])([H])[H])c2[H])c([H])c2c1OC([H])([H])C1(C([H])([H])OC([H])([H])C1([H])[H])C21[N+]([H])=C(N([H])[H])OC1([H])[H]

$$$$
54:2:1
     RDKit          3D

 49 53  0  0  1  0  0  0  0  0999 V2000
    3.7287   -0.4823   -3.4691 C   0  0  0  0  0  0  0  0  0  0  0  0
    4.1076   -1.4820   -2.4050 C   0  0  0  0  0  0  0  0  0  0  0  0
    3.4273   -1.5432   -1.1650 C   0  0  0  0  0  0  0  0  0  0  0  0
    3.8271   -2.5251   -0.2149 C   0  0  0  0  0  0  0  0  0  0  0  0
    3.1405   -2.6378    1.0721 C   0  0  0  0  0  0  0  0  0  0  0  0
    2.7982   -3.8979    1.5997 C   0  0  0  0  0  0  0  0  0  0  0  0
    2.1409   -4.0085    2.8365 C   0  0  0  0  0  0  0  0  0  0  0  0
    1.8136   -2.8564    3.5727 C   0  0  0  0  0  0  0  0  0  0  0  0
    2.1303   -1.5807    3.0503 C   0  0  0  0  0  0  0  0  0  0  0  0
    2.8006   -1.4781    1.8122 C   0  0  0  0  0  0  0  0  0  0  0  0
    1.7426   -0.3200    3.8272 C   0  0  1  0  0  0  0  0  0  0  0  0
    2.9840    0.3650    4.4546 C   0  0  0  0  0  0  0  0  0  0  0  0
    3.1267    1.5799    3.6696 O   0  0  0  0  0  0  0  0  0  0  0  0
    2.0399    1.7635    2.8997 C   0  0  0  0  0  0  0  0  0  0  0  0
    1.8527    2.9187    2.2502 N   0  0  0  0  0  0  0  0  0  0  0  0
    1.2485    0.7113    2.9149 N   0  0  0  0  0  0  0  0  0  0  0  0
    0.7210   -0.6217    4.9366 C   0  0  2  0  0  0  0  0  0  0  0  0
   -0.7067   -0.7206    4.3917 C   0  0  0  0  0  0  0  0  0  0  0  0
   -1.4731    0.3269    5.2252 C   0  0  0  0  0  0  0  0  0  0  0  0
   -0.7333    0.4382    6.4247 O   0  0  0  0  0  0  0  0  0  0  0  0
    0.6067    0.4757    6.0214 C   0  0  0  0  0  0  0  0  0  0  0  0
    1.1418   -1.9157    5.6445 C   0  0  0  0  0  0  0  0  0  0  0  0
    1.1506   -3.0280    4.7637 O   0  0  0  0  0  0  0  0  0  0  0  0
    4.9036   -3.3933   -0.5366 C   0  0  0  0  0  0  0  0  0  0  0  0
    5.5437   -3.2617   -1.7766 C   0  0  0  0  0  0  0  0  0  0  0  0
    5.1355   -2.3390   -2.6655 N   0  0  0  0  0  0  0  0  0  0  0  0
    2.8816    0.1282   -3.1548 H   0  0  0  0  0  0  0  0  0  0  0  0
    3.4547   -0.9887   -4.3978 H   0  0  0  0  0  0  0  0  0  0  0  0
    4.5647    0.1886   -3.6701 H   0  0  0  0  0  0  0  0  0  0  0  0
    2.6496   -0.9031   -0.9663 H   0  0  0  0  0  0  0  0  0  0  0  0
    3.0346   -4.7985    1.0480 H   0  0  0  0  0  0  0  0  0  0  0  0
    1.8739   -4.9789    3.2222 H   0  0  0  0  0  0  0  0  0  0  0  0
    3.0559   -0.5121    1.4032 H   0  0  0  0  0  0  0  0  0  0  0  0
    2.8621    0.6850    5.4920 H   0  0  0  0  0  0  0  0  0  0  0  0
    3.8229   -0.3498    4.5669 H   0  0  0  0  0  0  0  0  0  0  0  0
    1.0443    3.1207    1.6749 H   0  0  0  0  0  0  0  0  0  0  0  0
    0.4553    0.5779    2.3124 H   0  0  0  0  0  0  0  0  0  0  0  0
   -0.8013   -0.5076    3.3218 H   0  0  0  0  0  0  0  0  0  0  0  0
   -1.1054   -1.7325    4.4987 H   0  0  0  0  0  0  0  0  0  0  0  0
   -1.4629    1.3073    4.7237 H   0  0  0  0  0  0  0  0  0  0  0  0
   -2.5046    0.0342    5.4545 H   0  0  0  0  0  0  0  0  0  0  0  0
    1.2711    0.2894    6.8713 H   0  0  0  0  0  0  0  0  0  0  0  0
    0.8507    1.4674    5.6323 H   0  0  0  0  0  0  0  0  0  0  0  0
    2.1343   -1.8045    6.0853 H   0  0  0  0  0  0  0  0  0  0  0  0
    0.4586   -2.1202    6.4699 H   0  0  0  0  0  0  0  0  0  0  0  0
    5.2347   -4.1399    0.1785 H   0  0  0  0  0  0  0  0  0  0  0  0
    6.3923   -3.8639   -2.0928 H   0  0  0  0  0  0  0  0  0  0  0  0
    2.5212    3.6554    2.3364 H   0  0  0  0  0  0  0  0  0  0  0  0
    5.6161   -2.2692   -3.5565 H   0  0  0  0  0  0  0  0  0  0  0  0
  1  2  1  0
  1 27  1  0
  1 28  1  0
  1 29  1  0
  2 26  2  0
  2  3  1  0
  3  4  2  0
  3 30  1  0
  4  5  1  0
  4 24  1  0
  5 10  1  0
  5  6  2  0
  6  7  1  0
  6 31  1  0
  7  8  2  0
  7 32  1  0
  8 23  1  0
  8  9  1  0
  9 10  2  0
  9 11  1  0
 10 33  1  0
 11 16  1  0
 11 12  1  1
 11 17  1  0
 12 13  1  0
 12 34  1  0
 12 35  1  0
 13 14  1  0
 14 15  1  0
 14 16  2  0
 15 36  1  0
 15 48  1  0
 16 37  1  0
 17 21  1  1
 17 18  1  0
 17 22  1  0
 18 19  1  0
 18 38  1  0
 18 39  1  0
 19 20  1  0
 19 40  1  0
 19 41  1  0
 20 21  1  0
 21 42  1  0
 21 43  1  0
 22 23  1  0
 22 44  1  0
 22 45  1  0
 24 25  2  0
 24 46  1  0
 25 26  1  0
 25 47  1  0
 26 49  1  0
M  CHG  2  16   1  26   1
M  END
>  <i_m_ct_stereo_status>  (216) 
1

>  <s_m_source_file>  (216) 
/var/tmp/pbs.5076255.sched01/tmpco4mv84g/486h_uxm9x.sdf

>  <i_m_source_file_index>  (216) 
45

>  <i_lp_mmshare_version>  (216) 
48012

>  <i_f3d_flags>  (216) 
0

>  <s_epik_input>  (216) 
W0NIM11jMVtjSF1jKFtjSF1bY0hdbjEpLWMoW2NIXVtjSF0yKVtjSF1jM2MyT1tDSDJdW0NAXTQoW0NIMl1bQ0gyXU9bQ0gyXTQpW0NAQF0zNVtDSDJdTy9DKD1OXFtIXSlbTkhdNQ==

>  <s_epik_cmdline>  (216) 
J2VwaWtfcHl0aG9uJywgJy1waHQnLCAnMi4wJywgJy1waCcsICc3LjAnLCAnLXRuJywgJzgnLCAnLW1hJywgJzIwMCcsICctaW1hZScsICc8aW5maWxlLm1hZT4nLCAnLW9tYWUnLCAnPG91dGZpbGUubWFlPic=

>  <r_lp_tautomer_probability>  (216) 
1

>  <r_epik_Ionization_Penalty>  (216) 
1.36005

>  <r_epik_Ionization_Penalty_Charging>  (216) 
1.27019

>  <r_epik_Ionization_Penalty_Neutral>  (216) 
0.0898599

>  <r_epik_State_Penalty>  (216) 
1.42064

>  <r_epik_Charging_Adjusted_Penalty>  (216) 
2.69083

>  <i_epik_Tot_Q>  (216) 
2

>  <i_epik_Tot_abs_Q>  (216) 
2

>  <s_epik_Chemistry_Notes>  (216) 
This compound has an imine and may undergo hydrolysis.

>  <s_lp_Force_Field>  (216) 
OPLS3e

>  <r_lp_Energy>  (216) 
39.1228

>  <b_lp_Chiralities_Consistent>  (216) 
1

>  <s_lp_Variant>  (216) 
54:0-3

>  <s_i_glide_gridfile>  (216) 
pfpi4k_grid

>  <i_i_glide_lignum>  (216) 
45

>  <i_i_glide_rotatable_bonds>  (216) 
1

>  <r_i_docking_score>  (216) 
-3.87478

>  <r_i_glide_ligand_efficiency>  (216) 
-0.14903

>  <r_i_glide_ligand_efficiency_sa>  (216) 
-0.4415

>  <r_i_glide_ligand_efficiency_ln>  (216) 
-0.909978

>  <r_i_glide_gscore>  (216) 
-3.87478

>  <r_i_glide_lipo>  (216) 
-0.418442

>  <r_i_glide_hbond>  (216) 
-0.192633

>  <r_i_glide_metal>  (216) 
-0

>  <r_i_glide_rewards>  (216) 
-1.00135

>  <r_i_glide_evdw>  (216) 
-19.4443

>  <r_i_glide_ecoul>  (216) 
-8.92

>  <r_i_glide_erotb>  (216) 
0.152892

>  <r_i_glide_esite>  (216) 
-0.105033

>  <r_i_glide_emodel>  (216) 
-36.4703

>  <r_i_glide_energy>  (216) 
-28.3643

>  <r_i_glide_einternal>  (216) 
0.156669

>  <r_i_glide_intrahb_reward>  (216) 
-0

>  <i_i_glide_confnum>  (216) 
3

>  <i_i_glide_posenum>  (216) 
13

>  <r_i_glide_eff_state_penalty>  (216) 
0

>  <ligand_id>  (216) 
54

>  <original_smiles>  (216) 
Cc1cc(-c2ccc3c(c2)C2(COC(=N)N2)C2(CCOC2)CO3)ccn1

>  <smiles>  (216) 
[H]c1c([H])c(-c2c([H])c([H])[n+]([H])c(C([H])([H])[H])c2[H])c([H])c2c1OC([H])([H])C1(C([H])([H])OC([H])([H])C1([H])[H])C21[N+]([H])=C(N([H])[H])OC1([H])[H]

$$$$
54:2:2
     RDKit          3D

 49 53  0  0  1  0  0  0  0  0999 V2000
    4.7138   -2.5824   -1.8459 C   0  0  0  0  0  0  0  0  0  0  0  0
    4.8038   -2.0124   -0.4456 C   0  0  0  0  0  0  0  0  0  0  0  0
    3.6643   -1.7608    0.3436 C   0  0  0  0  0  0  0  0  0  0  0  0
    3.8139   -1.2258    1.6412 C   0  0  0  0  0  0  0  0  0  0  0  0
    2.6487   -0.9639    2.4865 C   0  0  0  0  0  0  0  0  0  0  0  0
    1.8102   -2.0212    2.8883 C   0  0  0  0  0  0  0  0  0  0  0  0
    0.6912   -1.7749    3.7037 C   0  0  0  0  0  0  0  0  0  0  0  0
    0.3911   -0.4656    4.1251 C   0  0  0  0  0  0  0  0  0  0  0  0
    1.2169    0.6118    3.7087 C   0  0  0  0  0  0  0  0  0  0  0  0
    2.3478    0.3469    2.9025 C   0  0  0  0  0  0  0  0  0  0  0  0
    0.8864    2.0444    4.1318 C   0  0  1  0  0  0  0  0  0  0  0  0
    1.8638    2.5777    5.2094 C   0  0  0  0  0  0  0  0  0  0  0  0
    2.6364    3.5551    4.4762 O   0  0  0  0  0  0  0  0  0  0  0  0
    2.0550    3.8207    3.2539 C   0  0  0  0  0  0  0  0  0  0  0  0
    2.4951    4.8328    2.5541 N   0  0  0  0  0  0  0  0  0  0  0  0
    1.0876    2.9720    3.0132 N   0  0  0  0  0  0  0  0  0  0  0  0
   -0.5572    2.1471    4.6685 C   0  0  2  0  0  0  0  0  0  0  0  0
   -1.6123    2.2250    3.5477 C   0  0  0  0  0  0  0  0  0  0  0  0
   -2.3488    3.5375    3.8634 C   0  0  0  0  0  0  0  0  0  0  0  0
   -2.1641    3.7368    5.2604 O   0  0  0  0  0  0  0  0  0  0  0  0
   -0.8241    3.4246    5.5055 C   0  0  0  0  0  0  0  0  0  0  0  0
   -0.8242    0.9495    5.5955 C   0  0  0  0  0  0  0  0  0  0  0  0
   -0.7293   -0.2845    4.9075 O   0  0  0  0  0  0  0  0  0  0  0  0
    5.1162   -0.9559    2.1108 C   0  0  0  0  0  0  0  0  0  0  0  0
    6.2213   -1.2262    1.2857 C   0  0  0  0  0  0  0  0  0  0  0  0
    6.0294   -1.7419    0.0534 N   0  0  0  0  0  0  0  0  0  0  0  0
    3.6772   -2.7752   -2.1259 H   0  0  0  0  0  0  0  0  0  0  0  0
    5.2623   -3.5229   -1.9105 H   0  0  0  0  0  0  0  0  0  0  0  0
    5.1356   -1.8826   -2.5679 H   0  0  0  0  0  0  0  0  0  0  0  0
    2.6757   -1.9645   -0.0443 H   0  0  0  0  0  0  0  0  0  0  0  0
    2.0269   -3.0329    2.5783 H   0  0  0  0  0  0  0  0  0  0  0  0
    0.0516   -2.5889    4.0019 H   0  0  0  0  0  0  0  0  0  0  0  0
    2.9878    1.1566    2.5784 H   0  0  0  0  0  0  0  0  0  0  0  0
    1.3288    3.1038    6.0189 H   0  0  0  0  0  0  0  0  0  0  0  0
    2.3648    1.7401    5.7265 H   0  0  0  0  0  0  0  0  0  0  0  0
    1.9832    5.0063    1.6441 H   0  0  0  0  0  0  0  0  0  0  0  0
    0.6104    2.9198    2.1384 H   0  0  0  0  0  0  0  0  0  0  0  0
   -1.1780    2.2601    2.5420 H   0  0  0  0  0  0  0  0  0  0  0  0
   -2.2990    1.3658    3.5540 H   0  0  0  0  0  0  0  0  0  0  0  0
   -1.8881    4.3928    3.3430 H   0  0  0  0  0  0  0  0  0  0  0  0
   -3.4136    3.4969    3.6209 H   0  0  0  0  0  0  0  0  0  0  0  0
   -0.6331    3.2682    6.5754 H   0  0  0  0  0  0  0  0  0  0  0  0
   -0.1896    4.2636    5.1896 H   0  0  0  0  0  0  0  0  0  0  0  0
   -0.1188    0.9458    6.4240 H   0  0  0  0  0  0  0  0  0  0  0  0
   -1.8197    1.0353    6.0332 H   0  0  0  0  0  0  0  0  0  0  0  0
    5.2662   -0.5573    3.1022 H   0  0  0  0  0  0  0  0  0  0  0  0
    7.2480   -1.0538    1.5785 H   0  0  0  0  0  0  0  0  0  0  0  0
    3.1993    5.4539    2.8390 H   0  0  0  0  0  0  0  0  0  0  0  0
    6.8428   -1.9524   -0.5180 H   0  0  0  0  0  0  0  0  0  0  0  0
  1  2  1  0
  1 27  1  0
  1 28  1  0
  1 29  1  0
  2 26  2  0
  2  3  1  0
  3  4  2  0
  3 30  1  0
  4  5  1  0
  4 24  1  0
  5 10  1  0
  5  6  2  0
  6  7  1  0
  6 31  1  0
  7  8  2  0
  7 32  1  0
  8 23  1  0
  8  9  1  0
  9 10  2  0
  9 11  1  0
 10 33  1  0
 11 16  1  0
 11 12  1  1
 11 17  1  0
 12 13  1  0
 12 34  1  0
 12 35  1  0
 13 14  1  0
 14 15  1  0
 14 16  2  0
 15 36  1  0
 15 48  1  0
 16 37  1  0
 17 21  1  1
 17 18  1  0
 17 22  1  0
 18 19  1  0
 18 38  1  0
 18 39  1  0
 19 20  1  0
 19 40  1  0
 19 41  1  0
 20 21  1  0
 21 42  1  0
 21 43  1  0
 22 23  1  0
 22 44  1  0
 22 45  1  0
 24 25  2  0
 24 46  1  0
 25 26  1  0
 25 47  1  0
 26 49  1  0
M  CHG  2  16   1  26   1
M  END
>  <i_m_ct_stereo_status>  (217) 
1

>  <s_m_source_file>  (217) 
/var/tmp/pbs.5076255.sched01/tmpco4mv84g/486h_uxm9x.sdf

>  <i_m_source_file_index>  (217) 
45

>  <i_lp_mmshare_version>  (217) 
48012

>  <i_f3d_flags>  (217) 
0

>  <s_epik_input>  (217) 
W0NIM11jMVtjSF1jKFtjSF1bY0hdbjEpLWMoW2NIXVtjSF0yKVtjSF1jM2MyT1tDSDJdW0NAXTQoW0NIMl1bQ0gyXU9bQ0gyXTQpW0NAQF0zNVtDSDJdTy9DKD1OXFtIXSlbTkhdNQ==

>  <s_epik_cmdline>  (217) 
J2VwaWtfcHl0aG9uJywgJy1waHQnLCAnMi4wJywgJy1waCcsICc3LjAnLCAnLXRuJywgJzgnLCAnLW1hJywgJzIwMCcsICctaW1hZScsICc8aW5maWxlLm1hZT4nLCAnLW9tYWUnLCAnPG91dGZpbGUubWFlPic=

>  <r_lp_tautomer_probability>  (217) 
1

>  <r_epik_Ionization_Penalty>  (217) 
1.36005

>  <r_epik_Ionization_Penalty_Charging>  (217) 
1.27019

>  <r_epik_Ionization_Penalty_Neutral>  (217) 
0.0898599

>  <r_epik_State_Penalty>  (217) 
1.42064

>  <r_epik_Charging_Adjusted_Penalty>  (217) 
2.69083

>  <i_epik_Tot_Q>  (217) 
2

>  <i_epik_Tot_abs_Q>  (217) 
2

>  <s_epik_Chemistry_Notes>  (217) 
This compound has an imine and may undergo hydrolysis.

>  <s_lp_Force_Field>  (217) 
OPLS3e

>  <r_lp_Energy>  (217) 
39.1228

>  <b_lp_Chiralities_Consistent>  (217) 
1

>  <s_lp_Variant>  (217) 
54:0-3

>  <s_i_glide_gridfile>  (217) 
pfpi4k_grid

>  <i_i_glide_lignum>  (217) 
45

>  <i_i_glide_rotatable_bonds>  (217) 
1

>  <r_i_docking_score>  (217) 
-3.71227

>  <r_i_glide_ligand_efficiency>  (217) 
-0.14278

>  <r_i_glide_ligand_efficiency_sa>  (217) 
-0.422984

>  <r_i_glide_ligand_efficiency_ln>  (217) 
-0.871815

>  <r_i_glide_gscore>  (217) 
-3.71227

>  <r_i_glide_lipo>  (217) 
-0.281515

>  <r_i_glide_hbond>  (217) 
-0.23319

>  <r_i_glide_metal>  (217) 
-0

>  <r_i_glide_rewards>  (217) 
-0.999444

>  <r_i_glide_evdw>  (217) 
-20.9964

>  <r_i_glide_ecoul>  (217) 
-7.43268

>  <r_i_glide_erotb>  (217) 
0.152892

>  <r_i_glide_esite>  (217) 
-0.186291

>  <r_i_glide_emodel>  (217) 
-35.4685

>  <r_i_glide_energy>  (217) 
-28.4291

>  <r_i_glide_einternal>  (217) 
0.997191

>  <r_i_glide_intrahb_reward>  (217) 
-0

>  <i_i_glide_confnum>  (217) 
1

>  <i_i_glide_posenum>  (217) 
7

>  <r_i_glide_eff_state_penalty>  (217) 
0

>  <ligand_id>  (217) 
54

>  <original_smiles>  (217) 
Cc1cc(-c2ccc3c(c2)C2(COC(=N)N2)C2(CCOC2)CO3)ccn1

>  <smiles>  (217) 
[H]c1c([H])c(-c2c([H])c([H])[n+]([H])c(C([H])([H])[H])c2[H])c([H])c2c1OC([H])([H])C1(C([H])([H])OC([H])([H])C1([H])[H])C21[N+]([H])=C(N([H])[H])OC1([H])[H]

$$$$
54:3:0
     RDKit          3D

 48 52  0  0  1  0  0  0  0  0999 V2000
    3.5396   -0.0969   -4.5447 C   0  0  0  0  0  0  0  0  0  0  0  0
    3.3440   -1.1957   -3.5172 C   0  0  0  0  0  0  0  0  0  0  0  0
    3.7113   -1.0557   -2.1680 C   0  0  0  0  0  0  0  0  0  0  0  0
    3.4464   -2.0954   -1.2491 C   0  0  0  0  0  0  0  0  0  0  0  0
    3.7586   -1.9471    0.1675 C   0  0  0  0  0  0  0  0  0  0  0  0
    4.7713   -2.7249    0.7570 C   0  0  0  0  0  0  0  0  0  0  0  0
    5.0858   -2.5762    2.1175 C   0  0  0  0  0  0  0  0  0  0  0  0
    4.4131   -1.6283    2.9078 C   0  0  0  0  0  0  0  0  0  0  0  0
    3.3730   -0.8582    2.3277 C   0  0  0  0  0  0  0  0  0  0  0  0
    3.0566   -1.0256    0.9659 C   0  0  0  0  0  0  0  0  0  0  0  0
    2.5815    0.1448    3.1623 C   0  0  1  0  0  0  0  0  0  0  0  0
    2.9935    1.5850    2.7607 C   0  0  0  0  0  0  0  0  0  0  0  0
    1.7703    2.2857    2.7189 O   0  0  0  0  0  0  0  0  0  0  0  0
    0.7775    1.3341    2.7167 C   0  0  0  0  0  0  0  0  0  0  0  0
   -0.4899    1.8550    2.5711 N   0  0  0  0  0  0  0  0  0  0  0  0
    1.1550    0.1129    2.8591 N   0  0  0  0  0  0  0  0  0  0  0  0
    2.8087   -0.1219    4.6822 C   0  0  2  0  0  0  0  0  0  0  0  0
    2.0667   -1.3785    5.2206 C   0  0  0  0  0  0  0  0  0  0  0  0
    1.1643   -0.8544    6.3243 C   0  0  0  0  0  0  0  0  0  0  0  0
    1.8273    0.3156    6.8124 O   0  0  0  0  0  0  0  0  0  0  0  0
    2.2905    0.9928    5.6421 C   0  0  0  0  0  0  0  0  0  0  0  0
    4.3212   -0.3536    4.9187 C   0  0  0  0  0  0  0  0  0  0  0  0
    4.8108   -1.4978    4.2228 O   0  0  0  0  0  0  0  0  0  0  0  0
    2.8709   -3.2842   -1.7369 C   0  0  0  0  0  0  0  0  0  0  0  0
    2.5508   -3.3902   -3.1008 C   0  0  0  0  0  0  0  0  0  0  0  0
    2.7795   -2.3498   -3.9307 N   0  0  0  0  0  0  0  0  0  0  0  0
    3.9806    0.7895   -4.0864 H   0  0  0  0  0  0  0  0  0  0  0  0
    2.5848    0.1879   -4.9944 H   0  0  0  0  0  0  0  0  0  0  0  0
    4.2075   -0.4537   -5.3323 H   0  0  0  0  0  0  0  0  0  0  0  0
    4.1612   -0.1426   -1.8245 H   0  0  0  0  0  0  0  0  0  0  0  0
    5.3173   -3.4317    0.1521 H   0  0  0  0  0  0  0  0  0  0  0  0
    5.8763   -3.1664    2.5503 H   0  0  0  0  0  0  0  0  0  0  0  0
    2.2733   -0.4194    0.5323 H   0  0  0  0  0  0  0  0  0  0  0  0
    3.7002    2.0381    3.4518 H   0  0  0  0  0  0  0  0  0  0  0  0
    3.4082    1.6041    1.7581 H   0  0  0  0  0  0  0  0  0  0  0  0
   -1.3384    1.3245    2.5719 H   0  0  0  0  0  0  0  0  0  0  0  0
    1.5018   -1.9157    4.4549 H   0  0  0  0  0  0  0  0  0  0  0  0
    2.7448   -2.1208    5.6551 H   0  0  0  0  0  0  0  0  0  0  0  0
    0.1786   -0.6095    5.9165 H   0  0  0  0  0  0  0  0  0  0  0  0
    1.0735   -1.5566    7.1369 H   0  0  0  0  0  0  0  0  0  0  0  0
    3.0762    1.7342    5.8678 H   0  0  0  0  0  0  0  0  0  0  0  0
    1.4113    1.5283    5.2513 H   0  0  0  0  0  0  0  0  0  0  0  0
    4.9370    0.5026    4.6251 H   0  0  0  0  0  0  0  0  0  0  0  0
    4.5358   -0.5053    5.9760 H   0  0  0  0  0  0  0  0  0  0  0  0
    2.6707   -4.1062   -1.0711 H   0  0  0  0  0  0  0  0  0  0  0  0
    2.1097   -4.2571   -3.5586 H   0  0  0  0  0  0  0  0  0  0  0  0
   -0.6305    2.8665    2.4339 H   0  0  0  0  0  0  0  0  0  0  0  0
    2.4991   -2.4343   -4.8985 H   0  0  0  0  0  0  0  0  0  0  0  0
  1  2  1  0
  1 27  1  0
  1 28  1  0
  1 29  1  0
  2 26  2  0
  2  3  1  0
  3  4  2  0
  3 30  1  0
  4  5  1  0
  4 24  1  0
  5 10  1  0
  5  6  2  0
  6  7  1  0
  6 31  1  0
  7  8  2  0
  7 32  1  0
  8 23  1  0
  8  9  1  0
  9 10  2  0
  9 11  1  0
 10 33  1  0
 11 16  1  0
 11 12  1  6
 11 17  1  0
 12 13  1  0
 12 34  1  0
 12 35  1  0
 13 14  1  0
 14 15  1  0
 14 16  2  0
 15 36  1  0
 15 47  1  0
 17 21  1  1
 17 18  1  0
 17 22  1  0
 18 19  1  0
 18 37  1  0
 18 38  1  0
 19 20  1  0
 19 39  1  0
 19 40  1  0
 20 21  1  0
 21 41  1  0
 21 42  1  0
 22 23  1  0
 22 43  1  0
 22 44  1  0
 24 25  2  0
 24 45  1  0
 25 26  1  0
 25 46  1  0
 26 48  1  0
M  CHG  1  26   1
M  END
>  <i_m_ct_stereo_status>  (218) 
1

>  <s_m_source_file>  (218) 
/var/tmp/pbs.5076255.sched01/tmpco4mv84g/486h_uxm9x.sdf

>  <i_m_source_file_index>  (218) 
46

>  <i_lp_mmshare_version>  (218) 
48012

>  <i_f3d_flags>  (218) 
0

>  <s_epik_input>  (218) 
W0NIM11jMVtjSF1jKFtjSF1bY0hdbjEpLWMoW2NIXVtjSF0yKVtjSF1jM2MyT1tDSDJdW0NAXTQoW0NIMl1bQ0gyXU9bQ0gyXTQpW0NAQF0zNVtDSDJdTy9DKD1OXFtIXSlbTkhdNQ==

>  <s_epik_cmdline>  (218) 
J2VwaWtfcHl0aG9uJywgJy1waHQnLCAnMi4wJywgJy1waCcsICc3LjAnLCAnLXRuJywgJzgnLCAnLW1hJywgJzIwMCcsICctaW1hZScsICc8aW5maWxlLm1hZT4nLCAnLW9tYWUnLCAnPG91dGZpbGUubWFlPic=

>  <r_epik_Ionization_Penalty>  (218) 
2.43092

>  <r_epik_Ionization_Penalty_Charging>  (218) 
2.43092

>  <r_epik_Ionization_Penalty_Neutral>  (218) 
2.10191e-12

>  <r_epik_State_Penalty>  (218) 
2.56452

>  <r_epik_Charging_Adjusted_Penalty>  (218) 
4.99545

>  <i_epik_Tot_Q>  (218) 
1

>  <i_epik_Tot_abs_Q>  (218) 
1

>  <s_epik_Chemistry_Notes>  (218) 
This compound has an imine and may undergo hydrolysis.

>  <s_lp_Force_Field>  (218) 
OPLS3e

>  <r_lp_Energy>  (218) 
29.2331

>  <b_lp_Chiralities_Consistent>  (218) 
1

>  <s_lp_Variant>  (218) 
54:0-4

>  <s_i_glide_gridfile>  (218) 
pfpi4k_grid

>  <i_i_glide_lignum>  (218) 
46

>  <i_i_glide_rotatable_bonds>  (218) 
1

>  <r_i_docking_score>  (218) 
-4.15707

>  <r_i_glide_ligand_efficiency>  (218) 
-0.159887

>  <r_i_glide_ligand_efficiency_sa>  (218) 
-0.473666

>  <r_i_glide_ligand_efficiency_ln>  (218) 
-0.976275

>  <r_i_glide_gscore>  (218) 
-4.15707

>  <r_i_glide_lipo>  (218) 
-0.820698

>  <r_i_glide_hbond>  (218) 
-0.0246157

>  <r_i_glide_metal>  (218) 
-0

>  <r_i_glide_rewards>  (218) 
-1.00632

>  <r_i_glide_evdw>  (218) 
-23.1577

>  <r_i_glide_ecoul>  (218) 
-7.92419

>  <r_i_glide_erotb>  (218) 
0.153671

>  <r_i_glide_esite>  (218) 
-0.112602

>  <r_i_glide_emodel>  (218) 
-39.6122

>  <r_i_glide_energy>  (218) 
-31.0819

>  <r_i_glide_einternal>  (218) 
1.14

>  <r_i_glide_intrahb_reward>  (218) 
-0

>  <i_i_glide_confnum>  (218) 
3

>  <i_i_glide_posenum>  (218) 
2

>  <r_i_glide_eff_state_penalty>  (218) 
0

>  <ligand_id>  (218) 
54

>  <original_smiles>  (218) 
Cc1cc(-c2ccc3c(c2)C2(COC(=N)N2)C2(CCOC2)CO3)ccn1

>  <smiles>  (218) 
[H]c1c([H])c(-c2c([H])c([H])[n+]([H])c(C([H])([H])[H])c2[H])c([H])c2c1OC([H])([H])C1(C([H])([H])OC([H])([H])C1([H])[H])C21N=C(N([H])[H])OC1([H])[H]

$$$$
54:3:1
     RDKit          3D

 48 52  0  0  1  0  0  0  0  0999 V2000
    3.6454   -2.2358   -1.4790 C   0  0  0  0  0  0  0  0  0  0  0  0
    3.4737   -2.8790   -0.1190 C   0  0  0  0  0  0  0  0  0  0  0  0
    2.7321   -2.2652    0.9080 C   0  0  0  0  0  0  0  0  0  0  0  0
    2.5848   -2.8977    2.1598 C   0  0  0  0  0  0  0  0  0  0  0  0
    1.7833   -2.2864    3.2301 C   0  0  0  0  0  0  0  0  0  0  0  0
    1.0039   -3.0676    4.1106 C   0  0  0  0  0  0  0  0  0  0  0  0
    0.2582   -2.4735    5.1441 C   0  0  0  0  0  0  0  0  0  0  0  0
    0.3033   -1.0842    5.3501 C   0  0  0  0  0  0  0  0  0  0  0  0
    1.0685   -0.2844    4.4597 C   0  0  0  0  0  0  0  0  0  0  0  0
    1.7881   -0.8922    3.4102 C   0  0  0  0  0  0  0  0  0  0  0  0
    1.1276    1.2362    4.6234 C   0  0  1  0  0  0  0  0  0  0  0  0
    2.5162    1.6477    5.1722 C   0  0  0  0  0  0  0  0  0  0  0  0
    2.8565    2.7874    4.3955 O   0  0  0  0  0  0  0  0  0  0  0  0
    1.9970    2.8040    3.3305 C   0  0  0  0  0  0  0  0  0  0  0  0
    2.2298    3.8073    2.4166 N   0  0  0  0  0  0  0  0  0  0  0  0
    1.0645    1.9198    3.3358 N   0  0  0  0  0  0  0  0  0  0  0  0
   -0.0456    1.7221    5.5387 C   0  0  2  0  0  0  0  0  0  0  0  0
   -1.4452    1.6705    4.8575 C   0  0  0  0  0  0  0  0  0  0  0  0
   -1.9546    3.1003    4.9200 C   0  0  0  0  0  0  0  0  0  0  0  0
   -1.3184    3.6549    6.0737 O   0  0  0  0  0  0  0  0  0  0  0  0
    0.0457    3.2009    6.0046 C   0  0  0  0  0  0  0  0  0  0  0  0
   -0.1086    0.7822    6.7694 C   0  0  0  0  0  0  0  0  0  0  0  0
   -0.4038   -0.5678    6.4168 O   0  0  0  0  0  0  0  0  0  0  0  0
    3.2173   -4.1474    2.3391 C   0  0  0  0  0  0  0  0  0  0  0  0
    3.9497   -4.7282    1.2847 C   0  0  0  0  0  0  0  0  0  0  0  0
    4.0474   -4.0811    0.1038 N   0  0  0  0  0  0  0  0  0  0  0  0
    3.1278   -1.2760   -1.5308 H   0  0  0  0  0  0  0  0  0  0  0  0
    3.2388   -2.8810   -2.2584 H   0  0  0  0  0  0  0  0  0  0  0  0
    4.7029   -2.0631   -1.6807 H   0  0  0  0  0  0  0  0  0  0  0  0
    2.2442   -1.3220    0.7198 H   0  0  0  0  0  0  0  0  0  0  0  0
    0.9671   -4.1385    4.0030 H   0  0  0  0  0  0  0  0  0  0  0  0
   -0.3149   -3.0949    5.8155 H   0  0  0  0  0  0  0  0  0  0  0  0
    2.3806   -0.2612    2.7645 H   0  0  0  0  0  0  0  0  0  0  0  0
    2.5153    1.8648    6.2384 H   0  0  0  0  0  0  0  0  0  0  0  0
    3.2702    0.8927    4.9698 H   0  0  0  0  0  0  0  0  0  0  0  0
    1.5703    4.0532    1.6949 H   0  0  0  0  0  0  0  0  0  0  0  0
   -1.4292    1.2959    3.8305 H   0  0  0  0  0  0  0  0  0  0  0  0
   -2.1606    1.0355    5.3901 H   0  0  0  0  0  0  0  0  0  0  0  0
   -1.6695    3.6403    4.0102 H   0  0  0  0  0  0  0  0  0  0  0  0
   -3.0227    3.1470    5.0720 H   0  0  0  0  0  0  0  0  0  0  0  0
    0.5538    3.2893    6.9731 H   0  0  0  0  0  0  0  0  0  0  0  0
    0.5280    3.8594    5.2703 H   0  0  0  0  0  0  0  0  0  0  0  0
    0.8179    0.7760    7.3518 H   0  0  0  0  0  0  0  0  0  0  0  0
   -0.8753    1.0995    7.4701 H   0  0  0  0  0  0  0  0  0  0  0  0
    3.1402   -4.6636    3.2820 H   0  0  0  0  0  0  0  0  0  0  0  0
    4.4532   -5.6827    1.3568 H   0  0  0  0  0  0  0  0  0  0  0  0
    2.9529    4.5166    2.5434 H   0  0  0  0  0  0  0  0  0  0  0  0
    4.5711   -4.5157   -0.6546 H   0  0  0  0  0  0  0  0  0  0  0  0
  1  2  1  0
  1 27  1  0
  1 28  1  0
  1 29  1  0
  2 26  2  0
  2  3  1  0
  3  4  2  0
  3 30  1  0
  4  5  1  0
  4 24  1  0
  5 10  1  0
  5  6  2  0
  6  7  1  0
  6 31  1  0
  7  8  2  0
  7 32  1  0
  8 23  1  0
  8  9  1  0
  9 10  2  0
  9 11  1  0
 10 33  1  0
 11 16  1  0
 11 12  1  1
 11 17  1  0
 12 13  1  0
 12 34  1  0
 12 35  1  0
 13 14  1  0
 14 15  1  0
 14 16  2  0
 15 36  1  0
 15 47  1  0
 17 21  1  1
 17 18  1  0
 17 22  1  0
 18 19  1  0
 18 37  1  0
 18 38  1  0
 19 20  1  0
 19 39  1  0
 19 40  1  0
 20 21  1  0
 21 41  1  0
 21 42  1  0
 22 23  1  0
 22 43  1  0
 22 44  1  0
 24 25  2  0
 24 45  1  0
 25 26  1  0
 25 46  1  0
 26 48  1  0
M  CHG  1  26   1
M  END
>  <i_m_ct_stereo_status>  (219) 
1

>  <s_m_source_file>  (219) 
/var/tmp/pbs.5076255.sched01/tmpco4mv84g/486h_uxm9x.sdf

>  <i_m_source_file_index>  (219) 
46

>  <i_lp_mmshare_version>  (219) 
48012

>  <i_f3d_flags>  (219) 
0

>  <s_epik_input>  (219) 
W0NIM11jMVtjSF1jKFtjSF1bY0hdbjEpLWMoW2NIXVtjSF0yKVtjSF1jM2MyT1tDSDJdW0NAXTQoW0NIMl1bQ0gyXU9bQ0gyXTQpW0NAQF0zNVtDSDJdTy9DKD1OXFtIXSlbTkhdNQ==

>  <s_epik_cmdline>  (219) 
J2VwaWtfcHl0aG9uJywgJy1waHQnLCAnMi4wJywgJy1waCcsICc3LjAnLCAnLXRuJywgJzgnLCAnLW1hJywgJzIwMCcsICctaW1hZScsICc8aW5maWxlLm1hZT4nLCAnLW9tYWUnLCAnPG91dGZpbGUubWFlPic=

>  <r_epik_Ionization_Penalty>  (219) 
2.43092

>  <r_epik_Ionization_Penalty_Charging>  (219) 
2.43092

>  <r_epik_Ionization_Penalty_Neutral>  (219) 
2.10191e-12

>  <r_epik_State_Penalty>  (219) 
2.56452

>  <r_epik_Charging_Adjusted_Penalty>  (219) 
4.99545

>  <i_epik_Tot_Q>  (219) 
1

>  <i_epik_Tot_abs_Q>  (219) 
1

>  <s_epik_Chemistry_Notes>  (219) 
This compound has an imine and may undergo hydrolysis.

>  <s_lp_Force_Field>  (219) 
OPLS3e

>  <r_lp_Energy>  (219) 
29.2331

>  <b_lp_Chiralities_Consistent>  (219) 
1

>  <s_lp_Variant>  (219) 
54:0-4

>  <s_i_glide_gridfile>  (219) 
pfpi4k_grid

>  <i_i_glide_lignum>  (219) 
46

>  <i_i_glide_rotatable_bonds>  (219) 
1

>  <r_i_docking_score>  (219) 
-3.3326

>  <r_i_glide_ligand_efficiency>  (219) 
-0.128177

>  <r_i_glide_ligand_efficiency_sa>  (219) 
-0.379724

>  <r_i_glide_ligand_efficiency_ln>  (219) 
-0.78265

>  <r_i_glide_gscore>  (219) 
-3.3326

>  <r_i_glide_lipo>  (219) 
-0.060114

>  <r_i_glide_hbond>  (219) 
-0.16

>  <r_i_glide_metal>  (219) 
-0

>  <r_i_glide_rewards>  (219) 
-1.00632

>  <r_i_glide_evdw>  (219) 
-19.3168

>  <r_i_glide_ecoul>  (219) 
-7.76618

>  <r_i_glide_erotb>  (219) 
0.153671

>  <r_i_glide_esite>  (219) 
-0.129074

>  <r_i_glide_emodel>  (219) 
-34.2721

>  <r_i_glide_energy>  (219) 
-27.083

>  <r_i_glide_einternal>  (219) 
0.00280113

>  <r_i_glide_intrahb_reward>  (219) 
-0

>  <i_i_glide_confnum>  (219) 
2

>  <i_i_glide_posenum>  (219) 
5

>  <r_i_glide_eff_state_penalty>  (219) 
0

>  <ligand_id>  (219) 
54

>  <original_smiles>  (219) 
Cc1cc(-c2ccc3c(c2)C2(COC(=N)N2)C2(CCOC2)CO3)ccn1

>  <smiles>  (219) 
[H]c1c([H])c(-c2c([H])c([H])[n+]([H])c(C([H])([H])[H])c2[H])c([H])c2c1OC([H])([H])C1(C([H])([H])OC([H])([H])C1([H])[H])C21N=C(N([H])[H])OC1([H])[H]

$$$$
54:3:2
     RDKit          3D

 48 52  0  0  1  0  0  0  0  0999 V2000
    3.7102   -0.5398   -3.8092 C   0  0  0  0  0  0  0  0  0  0  0  0
    4.0788   -1.6624   -2.8646 C   0  0  0  0  0  0  0  0  0  0  0  0
    3.8744   -1.5693   -1.4706 C   0  0  0  0  0  0  0  0  0  0  0  0
    4.2229   -2.6402   -0.6099 C   0  0  0  0  0  0  0  0  0  0  0  0
    3.9992   -2.5751    0.8495 C   0  0  0  0  0  0  0  0  0  0  0  0
    4.6331   -3.4728    1.7425 C   0  0  0  0  0  0  0  0  0  0  0  0
    4.4246   -3.4023    3.1249 C   0  0  0  0  0  0  0  0  0  0  0  0
    3.6194   -2.3899    3.6790 C   0  0  0  0  0  0  0  0  0  0  0  0
    2.9646   -1.4867    2.7961 C   0  0  0  0  0  0  0  0  0  0  0  0
    3.1449   -1.5943    1.4056 C   0  0  0  0  0  0  0  0  0  0  0  0
    2.0539   -0.3801    3.3408 C   0  0  1  0  0  0  0  0  0  0  0  0
    2.7760    0.9788    3.2101 C   0  0  0  0  0  0  0  0  0  0  0  0
    1.7431    1.8399    2.7592 O   0  0  0  0  0  0  0  0  0  0  0  0
    0.7180    1.0604    2.3381 C   0  0  0  0  0  0  0  0  0  0  0  0
   -0.3357    1.7595    1.8072 N   0  0  0  0  0  0  0  0  0  0  0  0
    0.8379   -0.1933    2.5486 N   0  0  0  0  0  0  0  0  0  0  0  0
    1.6545   -0.7079    4.8175 C   0  0  2  0  0  0  0  0  0  0  0  0
    0.6275   -1.8662    4.9377 C   0  0  0  0  0  0  0  0  0  0  0  0
   -0.5576   -1.2510    5.6609 C   0  0  0  0  0  0  0  0  0  0  0  0
    0.0153   -0.1956    6.4273 O   0  0  0  0  0  0  0  0  0  0  0  0
    0.9535    0.4495    5.5776 C   0  0  0  0  0  0  0  0  0  0  0  0
    2.9285   -1.1451    5.5752 C   0  0  0  0  0  0  0  0  0  0  0  0
    3.4967   -2.3373    5.0451 O   0  0  0  0  0  0  0  0  0  0  0  0
    4.7881   -3.7827   -1.2166 C   0  0  0  0  0  0  0  0  0  0  0  0
    4.9895   -3.8220   -2.6078 C   0  0  0  0  0  0  0  0  0  0  0  0
    4.6251   -2.7799   -3.3717 N   0  0  0  0  0  0  0  0  0  0  0  0
    3.2913    0.3085   -3.2657 H   0  0  0  0  0  0  0  0  0  0  0  0
    2.9693   -0.8806   -4.5343 H   0  0  0  0  0  0  0  0  0  0  0  0
    4.5983   -0.2003   -4.3423 H   0  0  0  0  0  0  0  0  0  0  0  0
    3.4214   -0.6702   -1.0843 H   0  0  0  0  0  0  0  0  0  0  0  0
    5.3101   -4.2391    1.3930 H   0  0  0  0  0  0  0  0  0  0  0  0
    4.9233   -4.1007    3.7794 H   0  0  0  0  0  0  0  0  0  0  0  0
    2.6173   -0.8825    0.7860 H   0  0  0  0  0  0  0  0  0  0  0  0
    3.2151    1.3365    4.1407 H   0  0  0  0  0  0  0  0  0  0  0  0
    3.5487    0.9665    2.4392 H   0  0  0  0  0  0  0  0  0  0  0  0
   -1.1298    1.3251    1.3771 H   0  0  0  0  0  0  0  0  0  0  0  0
    0.3318   -2.3073    3.9827 H   0  0  0  0  0  0  0  0  0  0  0  0
    1.0038   -2.6985    5.5433 H   0  0  0  0  0  0  0  0  0  0  0  0
   -1.2818   -0.8623    4.9363 H   0  0  0  0  0  0  0  0  0  0  0  0
   -1.0381   -1.9565    6.3327 H   0  0  0  0  0  0  0  0  0  0  0  0
    1.6745    1.0671    6.1244 H   0  0  0  0  0  0  0  0  0  0  0  0
    0.3616    1.0971    4.9263 H   0  0  0  0  0  0  0  0  0  0  0  0
    3.7061   -0.3832    5.5777 H   0  0  0  0  0  0  0  0  0  0  0  0
    2.7132   -1.3464    6.6216 H   0  0  0  0  0  0  0  0  0  0  0  0
    5.0540   -4.6548   -0.6478 H   0  0  0  0  0  0  0  0  0  0  0  0
    5.4096   -4.6633   -3.1286 H   0  0  0  0  0  0  0  0  0  0  0  0
   -0.2803    2.7675    1.6116 H   0  0  0  0  0  0  0  0  0  0  0  0
    4.7685   -2.8482   -4.3764 H   0  0  0  0  0  0  0  0  0  0  0  0
  1  2  1  0
  1 27  1  0
  1 28  1  0
  1 29  1  0
  2 26  2  0
  2  3  1  0
  3  4  2  0
  3 30  1  0
  4  5  1  0
  4 24  1  0
  5 10  1  0
  5  6  2  0
  6  7  1  0
  6 31  1  0
  7  8  2  0
  7 32  1  0
  8 23  1  0
  8  9  1  0
  9 10  2  0
  9 11  1  0
 10 33  1  0
 11 16  1  0
 11 12  1  1
 11 17  1  0
 12 13  1  0
 12 34  1  0
 12 35  1  0
 13 14  1  0
 14 15  1  0
 14 16  2  0
 15 36  1  0
 15 47  1  0
 17 21  1  1
 17 18  1  0
 17 22  1  0
 18 19  1  0
 18 37  1  0
 18 38  1  0
 19 20  1  0
 19 39  1  0
 19 40  1  0
 20 21  1  0
 21 41  1  0
 21 42  1  0
 22 23  1  0
 22 43  1  0
 22 44  1  0
 24 25  2  0
 24 45  1  0
 25 26  1  0
 25 46  1  0
 26 48  1  0
M  CHG  1  26   1
M  END
>  <i_m_ct_stereo_status>  (220) 
1

>  <s_m_source_file>  (220) 
/var/tmp/pbs.5076255.sched01/tmpco4mv84g/486h_uxm9x.sdf

>  <i_m_source_file_index>  (220) 
46

>  <i_lp_mmshare_version>  (220) 
48012

>  <i_f3d_flags>  (220) 
0

>  <s_epik_input>  (220) 
W0NIM11jMVtjSF1jKFtjSF1bY0hdbjEpLWMoW2NIXVtjSF0yKVtjSF1jM2MyT1tDSDJdW0NAXTQoW0NIMl1bQ0gyXU9bQ0gyXTQpW0NAQF0zNVtDSDJdTy9DKD1OXFtIXSlbTkhdNQ==

>  <s_epik_cmdline>  (220) 
J2VwaWtfcHl0aG9uJywgJy1waHQnLCAnMi4wJywgJy1waCcsICc3LjAnLCAnLXRuJywgJzgnLCAnLW1hJywgJzIwMCcsICctaW1hZScsICc8aW5maWxlLm1hZT4nLCAnLW9tYWUnLCAnPG91dGZpbGUubWFlPic=

>  <r_epik_Ionization_Penalty>  (220) 
2.43092

>  <r_epik_Ionization_Penalty_Charging>  (220) 
2.43092

>  <r_epik_Ionization_Penalty_Neutral>  (220) 
2.10191e-12

>  <r_epik_State_Penalty>  (220) 
2.56452

>  <r_epik_Charging_Adjusted_Penalty>  (220) 
4.99545

>  <i_epik_Tot_Q>  (220) 
1

>  <i_epik_Tot_abs_Q>  (220) 
1

>  <s_epik_Chemistry_Notes>  (220) 
This compound has an imine and may undergo hydrolysis.

>  <s_lp_Force_Field>  (220) 
OPLS3e

>  <r_lp_Energy>  (220) 
29.2331

>  <b_lp_Chiralities_Consistent>  (220) 
1

>  <s_lp_Variant>  (220) 
54:0-4

>  <s_i_glide_gridfile>  (220) 
pfpi4k_grid

>  <i_i_glide_lignum>  (220) 
46

>  <i_i_glide_rotatable_bonds>  (220) 
1

>  <r_i_docking_score>  (220) 
-3.26208

>  <r_i_glide_ligand_efficiency>  (220) 
-0.125465

>  <r_i_glide_ligand_efficiency_sa>  (220) 
-0.371689

>  <r_i_glide_ligand_efficiency_ln>  (220) 
-0.766089

>  <r_i_glide_gscore>  (220) 
-3.26208

>  <r_i_glide_lipo>  (220) 
-0.30554

>  <r_i_glide_hbond>  (220) 
-0.169259

>  <r_i_glide_metal>  (220) 
-0

>  <r_i_glide_rewards>  (220) 
-1.00632

>  <r_i_glide_evdw>  (220) 
-23.5774

>  <r_i_glide_ecoul>  (220) 
-4.20636

>  <r_i_glide_erotb>  (220) 
0.153671

>  <r_i_glide_esite>  (220) 
-0.124816

>  <r_i_glide_emodel>  (220) 
-33.4477

>  <r_i_glide_energy>  (220) 
-27.7837

>  <r_i_glide_einternal>  (220) 
1.35638

>  <r_i_glide_intrahb_reward>  (220) 
-0

>  <i_i_glide_confnum>  (220) 
3

>  <i_i_glide_posenum>  (220) 
30

>  <r_i_glide_eff_state_penalty>  (220) 
0

>  <ligand_id>  (220) 
54

>  <original_smiles>  (220) 
Cc1cc(-c2ccc3c(c2)C2(COC(=N)N2)C2(CCOC2)CO3)ccn1

>  <smiles>  (220) 
[H]c1c([H])c(-c2c([H])c([H])[n+]([H])c(C([H])([H])[H])c2[H])c([H])c2c1OC([H])([H])C1(C([H])([H])OC([H])([H])C1([H])[H])C21N=C(N([H])[H])OC1([H])[H]

$$$$
55:0:0
     RDKit          3D

 44 48  0  0  1  0  0  0  0  0999 V2000
    4.0678   -2.1671    0.3190 C   0  0  0  0  0  0  0  0  0  0  0  0
    4.1416   -3.6074    0.8685 C   0  0  2  0  0  0  0  0  0  0  0  0
    5.5165   -4.2318    0.5265 C   0  0  0  0  0  0  0  0  0  0  0  0
    5.5835   -5.6647    1.0988 C   0  0  2  0  0  0  0  0  0  0  0  0
    4.4732   -6.5345    0.4759 C   0  0  0  0  0  0  0  0  0  0  0  0
    3.0902   -5.9261    0.8074 C   0  0  2  0  0  0  0  0  0  0  0  0
    3.0309   -4.4855    0.2522 C   0  0  0  0  0  0  0  0  0  0  0  0
    2.8634   -5.9196    2.3426 C   0  0  0  0  0  0  0  0  0  0  0  0
    2.9651   -7.2338    2.9024 O   0  0  0  0  0  0  0  0  0  0  0  0
    1.8759   -8.0986    2.3123 O   0  0  0  0  0  0  0  0  0  0  0  0
    0.6142   -7.5455    2.6616 C   0  0  0  0  0  0  0  0  0  0  0  0
   -0.5163   -8.4270    2.1052 C   0  0  0  0  0  0  0  0  0  0  0  0
   -1.6878   -8.3668    3.0924 C   0  0  0  0  0  0  0  0  0  0  0  0
   -1.1589   -7.6400    4.3302 C   0  0  0  0  0  0  0  0  0  0  0  0
    0.3602   -7.5742    4.1715 C   0  0  0  0  0  0  0  0  0  0  0  0
    0.4780   -6.2334    2.1232 O   0  0  0  0  0  0  0  0  0  0  0  0
    1.5869   -5.3560    2.6852 O   0  0  0  0  0  0  0  0  0  0  0  0
    3.9966   -5.0468    2.9642 C   0  0  1  0  0  0  0  0  0  0  0  0
    5.3955   -5.6281    2.6276 C   0  0  0  0  0  0  0  0  0  0  0  0
    3.9555   -3.6030    2.4049 C   0  0  0  0  0  0  0  0  0  0  0  0
    4.8411   -1.5265    0.7476 H   0  0  0  0  0  0  0  0  0  0  0  0
    3.1074   -1.7009    0.5439 H   0  0  0  0  0  0  0  0  0  0  0  0
    4.1903   -2.1350   -0.7649 H   0  0  0  0  0  0  0  0  0  0  0  0
    5.6705   -4.2570   -0.5537 H   0  0  0  0  0  0  0  0  0  0  0  0
    6.3321   -3.6260    0.9299 H   0  0  0  0  0  0  0  0  0  0  0  0
    6.5615   -6.0865    0.8628 H   0  0  0  0  0  0  0  0  0  0  0  0
    4.6057   -6.5966   -0.6000 H   0  0  0  0  0  0  0  0  0  0  0  0
    4.5590   -7.5540    0.8597 H   0  0  0  0  0  0  0  0  0  0  0  0
    2.3138   -6.5118    0.3170 H   0  0  0  0  0  0  0  0  0  0  0  0
    2.0618   -4.0436    0.4706 H   0  0  0  0  0  0  0  0  0  0  0  0
    3.1313   -4.4994   -0.8306 H   0  0  0  0  0  0  0  0  0  0  0  0
   -0.8253   -8.1529    1.0943 H   0  0  0  0  0  0  0  0  0  0  0  0
   -0.1696   -9.4637    2.0751 H   0  0  0  0  0  0  0  0  0  0  0  0
   -2.5592   -7.8555    2.6763 H   0  0  0  0  0  0  0  0  0  0  0  0
   -2.0074   -9.3813    3.3477 H   0  0  0  0  0  0  0  0  0  0  0  0
   -1.5916   -6.6396    4.3700 H   0  0  0  0  0  0  0  0  0  0  0  0
   -1.4354   -8.1655    5.2461 H   0  0  0  0  0  0  0  0  0  0  0  0
    0.7889   -8.4868    4.5784 H   0  0  0  0  0  0  0  0  0  0  0  0
    0.8053   -6.7443    4.7147 H   0  0  0  0  0  0  0  0  0  0  0  0
    3.8851   -5.0095    4.0475 H   0  0  0  0  0  0  0  0  0  0  0  0
    5.5156   -6.6298    3.0428 H   0  0  0  0  0  0  0  0  0  0  0  0
    6.1825   -5.0203    3.0815 H   0  0  0  0  0  0  0  0  0  0  0  0
    4.7404   -3.0018    2.8715 H   0  0  0  0  0  0  0  0  0  0  0  0
    3.0132   -3.1229    2.6683 H   0  0  0  0  0  0  0  0  0  0  0  0
  2  1  1  6
  1 21  1  0
  1 22  1  0
  1 23  1  0
  2  7  1  0
  2 20  1  0
  2  3  1  0
  3  4  1  0
  3 24  1  0
  3 25  1  0
  4 19  1  0
  4  5  1  0
  4 26  1  1
  5  6  1  0
  5 27  1  0
  5 28  1  0
  6  7  1  0
  6  8  1  0
  6 29  1  6
  7 30  1  0
  7 31  1  0
  8 17  1  0
  8  9  1  0
  8 18  1  0
  9 10  1  0
 10 11  1  0
 11 15  1  0
 11 12  1  0
 11 16  1  0
 12 13  1  0
 12 32  1  0
 12 33  1  0
 13 14  1  0
 13 34  1  0
 13 35  1  0
 14 15  1  0
 14 36  1  0
 14 37  1  0
 15 38  1  0
 15 39  1  0
 16 17  1  0
 18 19  1  0
 18 20  1  0
 18 40  1  1
 19 41  1  0
 19 42  1  0
 20 43  1  0
 20 44  1  0
M  END
>  <i_m_ct_stereo_status>  (221) 
1

>  <s_m_source_file>  (221) 
/var/tmp/pbs.5076255.sched01/tmpco4mv84g/486h_uxm9x.sdf

>  <i_m_source_file_index>  (221) 
47

>  <i_lp_mmshare_version>  (221) 
48012

>  <i_f3d_flags>  (221) 
0

>  <s_epik_input>  (221) 
W0NIMl0xW0NASF0yW0NIMl1bQ0BdKFtDSDNdKShbQ0gyXTMpW0NIMl1bQ0BASF0xW0NIMl1bQ0BIXTNDMjRPT0M1KE9PNClbQ0gyXVtDSDJdW0NIMl1bQ0gyXTU=

>  <s_epik_cmdline>  (221) 
J2VwaWtfcHl0aG9uJywgJy1waHQnLCAnMi4wJywgJy1waCcsICc3LjAnLCAnLXRuJywgJzgnLCAnLW1hJywgJzIwMCcsICctaW1hZScsICc8aW5maWxlLm1hZT4nLCAnLW9tYWUnLCAnPG91dGZpbGUubWFlPic=

>  <r_lp_tautomer_probability>  (221) 
1

>  <r_epik_Ionization_Penalty>  (221) 
0

>  <r_epik_Ionization_Penalty_Charging>  (221) 
0

>  <r_epik_Ionization_Penalty_Neutral>  (221) 
0

>  <r_epik_State_Penalty>  (221) 
-0

>  <r_epik_Charging_Adjusted_Penalty>  (221) 
0

>  <i_epik_Tot_Q>  (221) 
0

>  <i_epik_Tot_abs_Q>  (221) 
0

>  <s_lp_Force_Field>  (221) 
OPLS3e

>  <r_lp_Energy>  (221) 
8.86675

>  <b_lp_Chiralities_Consistent>  (221) 
1

>  <s_lp_Variant>  (221) 
55:0-1

>  <s_i_glide_gridfile>  (221) 
pfpi4k_grid

>  <i_i_glide_lignum>  (221) 
47

>  <i_i_glide_rotatable_bonds>  (221) 
0

>  <r_i_docking_score>  (221) 
-3.25138

>  <r_i_glide_ligand_efficiency>  (221) 
-0.162569

>  <r_i_glide_ligand_efficiency_sa>  (221) 
-0.441281

>  <r_i_glide_ligand_efficiency_ln>  (221) 
-0.813714

>  <r_i_glide_gscore>  (221) 
-3.25138

>  <r_i_glide_lipo>  (221) 
-0.31667

>  <r_i_glide_hbond>  (221) 
-0.15173

>  <r_i_glide_metal>  (221) 
-0

>  <r_i_glide_rewards>  (221) 
-1.49755

>  <r_i_glide_evdw>  (221) 
-21.2331

>  <r_i_glide_ecoul>  (221) 
-1.20592

>  <r_i_glide_erotb>  (221) 
0

>  <r_i_glide_esite>  (221) 
-0.0428904

>  <r_i_glide_emodel>  (221) 
-27.0593

>  <r_i_glide_energy>  (221) 
-22.439

>  <r_i_glide_einternal>  (221) 
0

>  <r_i_glide_intrahb_reward>  (221) 
-0

>  <i_i_glide_confnum>  (221) 
1

>  <i_i_glide_posenum>  (221) 
1

>  <r_i_glide_eff_state_penalty>  (221) 
0

>  <ligand_id>  (221) 
55

>  <original_smiles>  (221) 
CC12CC3CC(C1)C1(OOC4(CCCC4)OO1)C(C3)C2

>  <smiles>  (221) 
[H]C([H])([H])C12C([H])([H])C3([H])C([H])([H])C([H])(C1([H])[H])C1(OOC4(OO1)C([H])([H])C([H])([H])C([H])([H])C4([H])[H])C([H])(C3([H])[H])C2([H])[H]

$$$$
55:0:1
     RDKit          3D

 44 48  0  0  1  0  0  0  0  0999 V2000
    5.0440   -3.6547   -0.8393 C   0  0  0  0  0  0  0  0  0  0  0  0
    4.7751   -4.3584    0.5072 C   0  0  2  0  0  0  0  0  0  0  0  0
    6.0758   -4.3848    1.3476 C   0  0  0  0  0  0  0  0  0  0  0  0
    5.7906   -5.0729    2.6991 C   0  0  2  0  0  0  0  0  0  0  0  0
    5.3179   -6.5201    2.4725 C   0  0  0  0  0  0  0  0  0  0  0  0
    4.0196   -6.5158    1.6318 C   0  0  2  0  0  0  0  0  0  0  0  0
    4.2942   -5.8102    0.2856 C   0  0  0  0  0  0  0  0  0  0  0  0
    2.8921   -5.7649    2.4026 C   0  0  0  0  0  0  0  0  0  0  0  0
    2.6460   -6.3442    3.6853 O   0  0  0  0  0  0  0  0  0  0  0  0
    2.1573   -7.7583    3.4846 O   0  0  0  0  0  0  0  0  0  0  0  0
    0.9451   -7.7227    2.7440 C   0  0  0  0  0  0  0  0  0  0  0  0
    0.4303   -9.1612    2.5648 C   0  0  0  0  0  0  0  0  0  0  0  0
   -1.1064   -9.0896    2.5694 C   0  0  0  0  0  0  0  0  0  0  0  0
   -1.4697   -7.6635    2.9926 C   0  0  0  0  0  0  0  0  0  0  0  0
   -0.1783   -7.0439    3.5239 C   0  0  0  0  0  0  0  0  0  0  0  0
    1.1340   -7.1228    1.4627 O   0  0  0  0  0  0  0  0  0  0  0  0
    1.6684   -5.7119    1.6550 O   0  0  0  0  0  0  0  0  0  0  0  0
    3.3868   -4.3093    2.6410 C   0  0  1  0  0  0  0  0  0  0  0  0
    4.7010   -4.2938    3.4643 C   0  0  0  0  0  0  0  0  0  0  0  0
    3.6832   -3.5958    1.2979 C   0  0  0  0  0  0  0  0  0  0  0  0
    5.3809   -2.6249   -0.7086 H   0  0  0  0  0  0  0  0  0  0  0  0
    4.1442   -3.6167   -1.4564 H   0  0  0  0  0  0  0  0  0  0  0  0
    5.8095   -4.1656   -1.4263 H   0  0  0  0  0  0  0  0  0  0  0  0
    6.8667   -4.9228    0.8203 H   0  0  0  0  0  0  0  0  0  0  0  0
    6.4635   -3.3770    1.5123 H   0  0  0  0  0  0  0  0  0  0  0  0
    6.7065   -5.0764    3.2874 H   0  0  0  0  0  0  0  0  0  0  0  0
    6.0969   -7.0826    1.9641 H   0  0  0  0  0  0  0  0  0  0  0  0
    5.1637   -7.0017    3.4395 H   0  0  0  0  0  0  0  0  0  0  0  0
    3.7293   -7.5433    1.4234 H   0  0  0  0  0  0  0  0  0  0  0  0
    3.3897   -5.8046   -0.3188 H   0  0  0  0  0  0  0  0  0  0  0  0
    5.0417   -6.3663   -0.2749 H   0  0  0  0  0  0  0  0  0  0  0  0
    0.8342   -9.6492    1.6936 H   0  0  0  0  0  0  0  0  0  0  0  0
    0.7288   -9.7642    3.4287 H   0  0  0  0  0  0  0  0  0  0  0  0
   -1.5398   -9.3209    1.5961 H   0  0  0  0  0  0  0  0  0  0  0  0
   -1.5125   -9.8168    3.2769 H   0  0  0  0  0  0  0  0  0  0  0  0
   -1.8195   -7.1196    2.1164 H   0  0  0  0  0  0  0  0  0  0  0  0
   -2.2697   -7.6529    3.7366 H   0  0  0  0  0  0  0  0  0  0  0  0
   -0.0766   -7.2908    4.5766 H   0  0  0  0  0  0  0  0  0  0  0  0
   -0.1663   -5.9597    3.4584 H   0  0  0  0  0  0  0  0  0  0  0  0
    2.6309   -3.7403    3.1837 H   0  0  0  0  0  0  0  0  0  0  0  0
    4.5556   -4.7303    4.4540 H   0  0  0  0  0  0  0  0  0  0  0  0
    5.0351   -3.2678    3.6347 H   0  0  0  0  0  0  0  0  0  0  0  0
    4.0073   -2.5696    1.4906 H   0  0  0  0  0  0  0  0  0  0  0  0
    2.7734   -3.5160    0.7036 H   0  0  0  0  0  0  0  0  0  0  0  0
  2  1  1  6
  1 21  1  0
  1 22  1  0
  1 23  1  0
  2  7  1  0
  2 20  1  0
  2  3  1  0
  3  4  1  0
  3 24  1  0
  3 25  1  0
  4 19  1  0
  4  5  1  0
  4 26  1  1
  5  6  1  0
  5 27  1  0
  5 28  1  0
  6  7  1  0
  6  8  1  0
  6 29  1  6
  7 30  1  0
  7 31  1  0
  8 17  1  0
  8  9  1  0
  8 18  1  0
  9 10  1  0
 10 11  1  0
 11 15  1  0
 11 12  1  0
 11 16  1  0
 12 13  1  0
 12 32  1  0
 12 33  1  0
 13 14  1  0
 13 34  1  0
 13 35  1  0
 14 15  1  0
 14 36  1  0
 14 37  1  0
 15 38  1  0
 15 39  1  0
 16 17  1  0
 18 19  1  0
 18 20  1  0
 18 40  1  1
 19 41  1  0
 19 42  1  0
 20 43  1  0
 20 44  1  0
M  END
>  <i_m_ct_stereo_status>  (222) 
1

>  <s_m_source_file>  (222) 
/var/tmp/pbs.5076255.sched01/tmpco4mv84g/486h_uxm9x.sdf

>  <i_m_source_file_index>  (222) 
47

>  <i_lp_mmshare_version>  (222) 
48012

>  <i_f3d_flags>  (222) 
0

>  <s_epik_input>  (222) 
W0NIMl0xW0NASF0yW0NIMl1bQ0BdKFtDSDNdKShbQ0gyXTMpW0NIMl1bQ0BASF0xW0NIMl1bQ0BIXTNDMjRPT0M1KE9PNClbQ0gyXVtDSDJdW0NIMl1bQ0gyXTU=

>  <s_epik_cmdline>  (222) 
J2VwaWtfcHl0aG9uJywgJy1waHQnLCAnMi4wJywgJy1waCcsICc3LjAnLCAnLXRuJywgJzgnLCAnLW1hJywgJzIwMCcsICctaW1hZScsICc8aW5maWxlLm1hZT4nLCAnLW9tYWUnLCAnPG91dGZpbGUubWFlPic=

>  <r_lp_tautomer_probability>  (222) 
1

>  <r_epik_Ionization_Penalty>  (222) 
0

>  <r_epik_Ionization_Penalty_Charging>  (222) 
0

>  <r_epik_Ionization_Penalty_Neutral>  (222) 
0

>  <r_epik_State_Penalty>  (222) 
-0

>  <r_epik_Charging_Adjusted_Penalty>  (222) 
0

>  <i_epik_Tot_Q>  (222) 
0

>  <i_epik_Tot_abs_Q>  (222) 
0

>  <s_lp_Force_Field>  (222) 
OPLS3e

>  <r_lp_Energy>  (222) 
8.86675

>  <b_lp_Chiralities_Consistent>  (222) 
1

>  <s_lp_Variant>  (222) 
55:0-1

>  <s_i_glide_gridfile>  (222) 
pfpi4k_grid

>  <i_i_glide_lignum>  (222) 
47

>  <i_i_glide_rotatable_bonds>  (222) 
0

>  <r_i_docking_score>  (222) 
-3.23298

>  <r_i_glide_ligand_efficiency>  (222) 
-0.161649

>  <r_i_glide_ligand_efficiency_sa>  (222) 
-0.438783

>  <r_i_glide_ligand_efficiency_ln>  (222) 
-0.809108

>  <r_i_glide_gscore>  (222) 
-3.23298

>  <r_i_glide_lipo>  (222) 
-0.427102

>  <r_i_glide_hbond>  (222) 
-0.0540219

>  <r_i_glide_metal>  (222) 
-0

>  <r_i_glide_rewards>  (222) 
-1.49755

>  <r_i_glide_evdw>  (222) 
-21.1061

>  <r_i_glide_ecoul>  (222) 
-1.11427

>  <r_i_glide_erotb>  (222) 
0

>  <r_i_glide_esite>  (222) 
-0.0318638

>  <r_i_glide_emodel>  (222) 
-26.8171

>  <r_i_glide_energy>  (222) 
-22.2203

>  <r_i_glide_einternal>  (222) 
0

>  <r_i_glide_intrahb_reward>  (222) 
-0

>  <i_i_glide_confnum>  (222) 
1

>  <i_i_glide_posenum>  (222) 
8

>  <r_i_glide_eff_state_penalty>  (222) 
0

>  <ligand_id>  (222) 
55

>  <original_smiles>  (222) 
CC12CC3CC(C1)C1(OOC4(CCCC4)OO1)C(C3)C2

>  <smiles>  (222) 
[H]C([H])([H])C12C([H])([H])C3([H])C([H])([H])C([H])(C1([H])[H])C1(OOC4(OO1)C([H])([H])C([H])([H])C([H])([H])C4([H])[H])C([H])(C3([H])[H])C2([H])[H]

$$$$
55:0:2
     RDKit          3D

 44 48  0  0  1  0  0  0  0  0999 V2000
   -0.9779   -9.4836    2.7113 C   0  0  0  0  0  0  0  0  0  0  0  0
    0.0966   -8.4985    3.1950 C   0  0  2  0  0  0  0  0  0  0  0  0
    0.4760   -8.7983    4.6643 C   0  0  0  0  0  0  0  0  0  0  0  0
    1.5645   -7.8073    5.1231 C   0  0  2  0  0  0  0  0  0  0  0  0
    1.0271   -6.3639    5.0300 C   0  0  0  0  0  0  0  0  0  0  0  0
    0.6599   -6.0332    3.5581 C   0  0  2  0  0  0  0  0  0  0  0  0
   -0.4279   -7.0490    3.1100 C   0  0  0  0  0  0  0  0  0  0  0  0
    1.9188   -6.1479    2.6429 C   0  0  0  0  0  0  0  0  0  0  0  0
    2.8388   -5.1690    3.0782 O   0  0  0  0  0  0  0  0  0  0  0  0
    4.0508   -5.1601    2.1730 O   0  0  0  0  0  0  0  0  0  0  0  0
    3.6114   -4.8574    0.8766 C   0  0  0  0  0  0  0  0  0  0  0  0
    3.0810   -3.4128    0.7775 C   0  0  0  0  0  0  0  0  0  0  0  0
    4.2891   -2.5021    0.5036 C   0  0  0  0  0  0  0  0  0  0  0  0
    5.4607   -3.4242    0.1444 C   0  0  0  0  0  0  0  0  0  0  0  0
    4.8540   -4.8235   -0.0314 C   0  0  0  0  0  0  0  0  0  0  0  0
    2.7147   -5.8370    0.4320 O   0  0  0  0  0  0  0  0  0  0  0  0
    1.5100   -5.8328    1.3334 O   0  0  0  0  0  0  0  0  0  0  0  0
    2.4465   -7.6089    2.7658 C   0  0  1  0  0  0  0  0  0  0  0  0
    2.8137   -7.9349    4.2280 C   0  0  0  0  0  0  0  0  0  0  0  0
    1.3647   -8.6102    2.3166 C   0  0  0  0  0  0  0  0  0  0  0  0
   -0.5865  -10.5014    2.7608 H   0  0  0  0  0  0  0  0  0  0  0  0
   -1.2741   -9.3008    1.6786 H   0  0  0  0  0  0  0  0  0  0  0  0
   -1.8853   -9.4545    3.3224 H   0  0  0  0  0  0  0  0  0  0  0  0
   -0.4015   -8.7309    5.3151 H   0  0  0  0  0  0  0  0  0  0  0  0
    0.8355   -9.8242    4.7703 H   0  0  0  0  0  0  0  0  0  0  0  0
    1.8276   -8.0321    6.1563 H   0  0  0  0  0  0  0  0  0  0  0  0
    0.1508   -6.2518    5.6782 H   0  0  0  0  0  0  0  0  0  0  0  0
    1.7817   -5.6699    5.4083 H   0  0  0  0  0  0  0  0  0  0  0  0
    0.2444   -5.0209    3.5135 H   0  0  0  0  0  0  0  0  0  0  0  0
   -0.7411   -6.8447    2.0851 H   0  0  0  0  0  0  0  0  0  0  0  0
   -1.3245   -6.9468    3.7330 H   0  0  0  0  0  0  0  0  0  0  0  0
    2.4003   -3.3234   -0.0666 H   0  0  0  0  0  0  0  0  0  0  0  0
    2.5273   -3.0896    1.6574 H   0  0  0  0  0  0  0  0  0  0  0  0
    4.0685   -1.8062   -0.3138 H   0  0  0  0  0  0  0  0  0  0  0  0
    4.5481   -1.8903    1.3714 H   0  0  0  0  0  0  0  0  0  0  0  0
    5.9866   -3.0837   -0.7546 H   0  0  0  0  0  0  0  0  0  0  0  0
    6.1870   -3.4189    0.9623 H   0  0  0  0  0  0  0  0  0  0  0  0
    5.5748   -5.6193    0.1712 H   0  0  0  0  0  0  0  0  0  0  0  0
    4.5472   -4.9193   -1.0735 H   0  0  0  0  0  0  0  0  0  0  0  0
    3.3252   -7.7436    2.1373 H   0  0  0  0  0  0  0  0  0  0  0  0
    3.5977   -7.2722    4.5879 H   0  0  0  0  0  0  0  0  0  0  0  0
    3.2107   -8.9475    4.3030 H   0  0  0  0  0  0  0  0  0  0  0  0
    1.7521   -9.6286    2.3574 H   0  0  0  0  0  0  0  0  0  0  0  0
    1.1005   -8.4387    1.2786 H   0  0  0  0  0  0  0  0  0  0  0  0
  2  1  1  6
  1 21  1  0
  1 22  1  0
  1 23  1  0
  2  7  1  0
  2 20  1  0
  2  3  1  0
  3  4  1  0
  3 24  1  0
  3 25  1  0
  4 19  1  0
  4  5  1  0
  4 26  1  1
  5  6  1  0
  5 27  1  0
  5 28  1  0
  6  7  1  0
  6  8  1  0
  6 29  1  1
  7 30  1  0
  7 31  1  0
  8 17  1  0
  8  9  1  0
  8 18  1  0
  9 10  1  0
 10 11  1  0
 11 15  1  0
 11 12  1  0
 11 16  1  0
 12 13  1  0
 12 32  1  0
 12 33  1  0
 13 14  1  0
 13 34  1  0
 13 35  1  0
 14 15  1  0
 14 36  1  0
 14 37  1  0
 15 38  1  0
 15 39  1  0
 16 17  1  0
 18 19  1  0
 18 20  1  0
 18 40  1  6
 19 41  1  0
 19 42  1  0
 20 43  1  0
 20 44  1  0
M  END
>  <i_m_ct_stereo_status>  (223) 
1

>  <s_m_source_file>  (223) 
/var/tmp/pbs.5076255.sched01/tmpco4mv84g/486h_uxm9x.sdf

>  <i_m_source_file_index>  (223) 
47

>  <i_lp_mmshare_version>  (223) 
48012

>  <i_f3d_flags>  (223) 
0

>  <s_epik_input>  (223) 
W0NIMl0xW0NASF0yW0NIMl1bQ0BdKFtDSDNdKShbQ0gyXTMpW0NIMl1bQ0BASF0xW0NIMl1bQ0BIXTNDMjRPT0M1KE9PNClbQ0gyXVtDSDJdW0NIMl1bQ0gyXTU=

>  <s_epik_cmdline>  (223) 
J2VwaWtfcHl0aG9uJywgJy1waHQnLCAnMi4wJywgJy1waCcsICc3LjAnLCAnLXRuJywgJzgnLCAnLW1hJywgJzIwMCcsICctaW1hZScsICc8aW5maWxlLm1hZT4nLCAnLW9tYWUnLCAnPG91dGZpbGUubWFlPic=

>  <r_lp_tautomer_probability>  (223) 
1

>  <r_epik_Ionization_Penalty>  (223) 
0

>  <r_epik_Ionization_Penalty_Charging>  (223) 
0

>  <r_epik_Ionization_Penalty_Neutral>  (223) 
0

>  <r_epik_State_Penalty>  (223) 
-0

>  <r_epik_Charging_Adjusted_Penalty>  (223) 
0

>  <i_epik_Tot_Q>  (223) 
0

>  <i_epik_Tot_abs_Q>  (223) 
0

>  <s_lp_Force_Field>  (223) 
OPLS3e

>  <r_lp_Energy>  (223) 
8.86675

>  <b_lp_Chiralities_Consistent>  (223) 
1

>  <s_lp_Variant>  (223) 
55:0-1

>  <s_i_glide_gridfile>  (223) 
pfpi4k_grid

>  <i_i_glide_lignum>  (223) 
47

>  <i_i_glide_rotatable_bonds>  (223) 
0

>  <r_i_docking_score>  (223) 
-3.01777

>  <r_i_glide_ligand_efficiency>  (223) 
-0.150888

>  <r_i_glide_ligand_efficiency_sa>  (223) 
-0.409574

>  <r_i_glide_ligand_efficiency_ln>  (223) 
-0.755248

>  <r_i_glide_gscore>  (223) 
-3.01777

>  <r_i_glide_lipo>  (223) 
-0.136354

>  <r_i_glide_hbond>  (223) 
-0.123672

>  <r_i_glide_metal>  (223) 
-0

>  <r_i_glide_rewards>  (223) 
-1.49755

>  <r_i_glide_evdw>  (223) 
-20.8358

>  <r_i_glide_ecoul>  (223) 
-1.34263

>  <r_i_glide_erotb>  (223) 
0

>  <r_i_glide_esite>  (223) 
-0.0170075

>  <r_i_glide_emodel>  (223) 
-26.4408

>  <r_i_glide_energy>  (223) 
-22.1785

>  <r_i_glide_einternal>  (223) 
0

>  <r_i_glide_intrahb_reward>  (223) 
-0

>  <i_i_glide_confnum>  (223) 
4

>  <i_i_glide_posenum>  (223) 
22

>  <r_i_glide_eff_state_penalty>  (223) 
0

>  <ligand_id>  (223) 
55

>  <original_smiles>  (223) 
CC12CC3CC(C1)C1(OOC4(CCCC4)OO1)C(C3)C2

>  <smiles>  (223) 
[H]C([H])([H])C12C([H])([H])C3([H])C([H])([H])C([H])(C1([H])[H])C1(OOC4(OO1)C([H])([H])C([H])([H])C([H])([H])C4([H])[H])C([H])(C3([H])[H])C2([H])[H]

$$$$
57:0:0
     RDKit          3D

 35 37  0  0  1  0  0  0  0  0999 V2000
    1.2038   -5.8503    0.1119 O   0  0  0  0  0  0  0  0  0  0  0  0
    2.2327   -5.5269    0.7326 C   0  0  0  0  0  0  0  0  0  0  0  0
    2.5799   -6.2571    2.0354 C   0  0  2  0  0  0  0  0  0  0  0  0
    2.4188   -7.7754    1.9029 C   0  0  0  0  0  0  0  0  0  0  0  0
    1.3461   -8.1257    2.9328 C   0  0  0  0  0  0  0  0  0  0  0  0
    0.6276   -6.9154    3.1312 O   0  0  0  0  0  0  0  0  0  0  0  0
    1.6014   -5.8859    3.1678 C   0  0  0  0  0  0  0  0  0  0  0  0
    3.0108   -4.4850    0.3257 N   0  0  0  0  0  0  0  0  0  0  0  0
    4.2936   -4.0998    0.9061 C   0  0  0  0  0  0  0  0  0  0  0  0
    4.8981   -3.0640   -0.0436 C   0  0  1  0  0  0  0  0  0  0  0  0
    5.7648   -3.7496   -1.1027 C   0  0  0  0  0  0  0  0  0  0  0  0
    6.0309   -2.8105   -2.2738 C   0  0  0  0  0  0  0  0  0  0  0  0
    4.7964   -2.4349   -2.8722 O   0  0  0  0  0  0  0  0  0  0  0  0
    3.9671   -1.6842   -1.9927 C   0  0  0  0  0  0  0  0  0  0  0  0
    3.6684   -2.4378   -0.6824 C   0  0  1  0  0  0  0  0  0  0  0  0
    2.6650   -3.5994   -0.7716 C   0  0  0  0  0  0  0  0  0  0  0  0
    3.5847   -6.0633    2.4139 H   0  0  0  0  0  0  0  0  0  0  0  0
    2.0806   -8.1001    0.9170 H   0  0  0  0  0  0  0  0  0  0  0  0
    3.3600   -8.2960    2.0897 H   0  0  0  0  0  0  0  0  0  0  0  0
    0.6919   -8.9255    2.5830 H   0  0  0  0  0  0  0  0  0  0  0  0
    1.8141   -8.4322    3.8699 H   0  0  0  0  0  0  0  0  0  0  0  0
    2.1142   -5.8904    4.1348 H   0  0  0  0  0  0  0  0  0  0  0  0
    1.1368   -4.9022    3.0566 H   0  0  0  0  0  0  0  0  0  0  0  0
    4.1136   -3.6708    1.8923 H   0  0  0  0  0  0  0  0  0  0  0  0
    4.9566   -4.9571    1.0034 H   0  0  0  0  0  0  0  0  0  0  0  0
    5.5000   -2.3425    0.5056 H   0  0  0  0  0  0  0  0  0  0  0  0
    6.7130   -4.0596   -0.6660 H   0  0  0  0  0  0  0  0  0  0  0  0
    5.2823   -4.6542   -1.4783 H   0  0  0  0  0  0  0  0  0  0  0  0
    6.5823   -1.9303   -1.9365 H   0  0  0  0  0  0  0  0  0  0  0  0
    6.6413   -3.3120   -3.0250 H   0  0  0  0  0  0  0  0  0  0  0  0
    4.4584   -0.7346   -1.7737 H   0  0  0  0  0  0  0  0  0  0  0  0
    3.0320   -1.4497   -2.5049 H   0  0  0  0  0  0  0  0  0  0  0  0
    3.2537   -1.7202    0.0279 H   0  0  0  0  0  0  0  0  0  0  0  0
    2.7462   -4.1157   -1.7328 H   0  0  0  0  0  0  0  0  0  0  0  0
    1.6419   -3.2169   -0.7119 H   0  0  0  0  0  0  0  0  0  0  0  0
  1  2  2  0
  2  3  1  0
  2  8  1  0
  3  7  1  0
  3  4  1  0
  3 17  1  1
  4  5  1  0
  4 18  1  0
  4 19  1  0
  5  6  1  0
  5 20  1  0
  5 21  1  0
  6  7  1  0
  7 22  1  0
  7 23  1  0
  8 16  1  0
  8  9  1  0
  9 10  1  0
  9 24  1  0
  9 25  1  0
 10 15  1  0
 10 11  1  0
 10 26  1  1
 11 12  1  0
 11 27  1  0
 11 28  1  0
 12 13  1  0
 12 29  1  0
 12 30  1  0
 13 14  1  0
 14 15  1  0
 14 31  1  0
 14 32  1  0
 15 16  1  0
 15 33  1  1
 16 34  1  0
 16 35  1  0
M  END
>  <i_m_ct_stereo_status>  (224) 
1

>  <s_m_source_file>  (224) 
/var/tmp/pbs.5076255.sched01/tmpwmgilt76/96rd2vfdyj.sdf

>  <i_m_source_file_index>  (224) 
1

>  <i_lp_mmshare_version>  (224) 
48012

>  <i_f3d_flags>  (224) 
0

>  <s_epik_input>  (224) 
W0NIMl0xT1tDSDJdW0NIMl1bQ0BIXTFDKD1PKU4oW0NIMl0yKVtDSDJdW0NAQEhdKFtDQEBIXTIzKVtDSDJdT1tDSDJdW0NIMl0z

>  <s_epik_cmdline>  (224) 
J2VwaWtfcHl0aG9uJywgJy1waHQnLCAnMi4wJywgJy1waCcsICc3LjAnLCAnLXRuJywgJzgnLCAnLW1hJywgJzIwMCcsICctaW1hZScsICc8aW5maWxlLm1hZT4nLCAnLW9tYWUnLCAnPG91dGZpbGUubWFlPic=

>  <r_lp_tautomer_probability>  (224) 
1

>  <r_epik_Ionization_Penalty>  (224) 
1.98578e-08

>  <r_epik_Ionization_Penalty_Charging>  (224) 
0

>  <r_epik_Ionization_Penalty_Neutral>  (224) 
1.98578e-08

>  <r_epik_State_Penalty>  (224) 
-0

>  <r_epik_Charging_Adjusted_Penalty>  (224) 
0

>  <i_epik_Tot_Q>  (224) 
0

>  <i_epik_Tot_abs_Q>  (224) 
0

>  <s_lp_Force_Field>  (224) 
OPLS3e

>  <r_lp_Energy>  (224) 
14.8456

>  <b_lp_Chiralities_Consistent>  (224) 
1

>  <s_lp_Variant>  (224) 
57:0-1

>  <s_i_glide_gridfile>  (224) 
pfpi4k_grid

>  <i_i_glide_lignum>  (224) 
1

>  <i_i_glide_rotatable_bonds>  (224) 
2

>  <r_i_docking_score>  (224) 
-3.54183

>  <r_i_glide_ligand_efficiency>  (224) 
-0.221364

>  <r_i_glide_ligand_efficiency_sa>  (224) 
-0.557803

>  <r_i_glide_ligand_efficiency_ln>  (224) 
-0.938832

>  <r_i_glide_gscore>  (224) 
-3.54183

>  <r_i_glide_lipo>  (224) 
-0.18867

>  <r_i_glide_hbond>  (224) 
-0.301283

>  <r_i_glide_metal>  (224) 
-0

>  <r_i_glide_rewards>  (224) 
-1.87306

>  <r_i_glide_evdw>  (224) 
-19.5296

>  <r_i_glide_ecoul>  (224) 
-5.33675

>  <r_i_glide_erotb>  (224) 
0.668656

>  <r_i_glide_esite>  (224) 
-0.0704747

>  <r_i_glide_emodel>  (224) 
-30.3359

>  <r_i_glide_energy>  (224) 
-24.8664

>  <r_i_glide_einternal>  (224) 
1.25717

>  <r_i_glide_intrahb_reward>  (224) 
-0

>  <i_i_glide_confnum>  (224) 
6

>  <i_i_glide_posenum>  (224) 
2

>  <r_i_glide_eff_state_penalty>  (224) 
0

>  <ligand_id>  (224) 
57

>  <original_smiles>  (224) 
O=C(C1CCOC1)N1CC2CCOCC2C1

>  <smiles>  (224) 
[H]C1([H])OC([H])([H])C([H])(C(=O)N2C([H])([H])C3([H])C([H])([H])OC([H])([H])C([H])([H])C3([H])C2([H])[H])C1([H])[H]

$$$$
57:0:1
     RDKit          3D

 35 37  0  0  1  0  0  0  0  0999 V2000
   -2.1859    0.9455    7.0464 O   0  0  0  0  0  0  0  0  0  0  0  0
   -1.7942    2.0623    6.7217 C   0  0  0  0  0  0  0  0  0  0  0  0
   -1.8783    3.2143    7.7346 C   0  0  2  0  0  0  0  0  0  0  0  0
   -0.9697    2.9734    8.9482 C   0  0  0  0  0  0  0  0  0  0  0  0
   -1.9300    2.9379   10.1391 C   0  0  0  0  0  0  0  0  0  0  0  0
   -3.1764    2.5835    9.5701 O   0  0  0  0  0  0  0  0  0  0  0  0
   -3.2787    3.3110    8.3589 C   0  0  0  0  0  0  0  0  0  0  0  0
   -1.2865    2.2869    5.4854 N   0  0  0  0  0  0  0  0  0  0  0  0
   -0.7913    3.5725    4.9939 C   0  0  0  0  0  0  0  0  0  0  0  0
   -0.1338    3.2674    3.6540 C   0  0  1  0  0  0  0  0  0  0  0  0
    1.3651    2.9836    3.8250 C   0  0  0  0  0  0  0  0  0  0  0  0
    1.9286    2.3040    2.5745 C   0  0  0  0  0  0  0  0  0  0  0  0
    1.2467    1.0700    2.3938 O   0  0  0  0  0  0  0  0  0  0  0  0
   -0.1279    1.2526    2.0757 C   0  0  0  0  0  0  0  0  0  0  0  0
   -0.8790    2.0273    3.1743 C   0  0  1  0  0  0  0  0  0  0  0  0
   -1.1851    1.2571    4.4637 C   0  0  0  0  0  0  0  0  0  0  0  0
   -1.6670    4.2026    7.3158 H   0  0  0  0  0  0  0  0  0  0  0  0
   -0.4263    2.0244    8.8877 H   0  0  0  0  0  0  0  0  0  0  0  0
   -0.2194    3.7568    9.0560 H   0  0  0  0  0  0  0  0  0  0  0  0
   -1.6251    2.2208   10.9012 H   0  0  0  0  0  0  0  0  0  0  0  0
   -2.0110    3.9271   10.5948 H   0  0  0  0  0  0  0  0  0  0  0  0
   -3.5345    4.3523    8.5644 H   0  0  0  0  0  0  0  0  0  0  0  0
   -4.0692    2.9001    7.7222 H   0  0  0  0  0  0  0  0  0  0  0  0
   -1.6525    4.2278    4.8717 H   0  0  0  0  0  0  0  0  0  0  0  0
   -0.0809    4.0145    5.6899 H   0  0  0  0  0  0  0  0  0  0  0  0
   -0.2667    4.1065    2.9727 H   0  0  0  0  0  0  0  0  0  0  0  0
    1.9047    3.9107    4.0127 H   0  0  0  0  0  0  0  0  0  0  0  0
    1.5409    2.3385    4.6855 H   0  0  0  0  0  0  0  0  0  0  0  0
    1.8205    2.9442    1.6958 H   0  0  0  0  0  0  0  0  0  0  0  0
    2.9943    2.1098    2.7020 H   0  0  0  0  0  0  0  0  0  0  0  0
   -0.1994    1.7782    1.1222 H   0  0  0  0  0  0  0  0  0  0  0  0
   -0.5846    0.2786    1.9273 H   0  0  0  0  0  0  0  0  0  0  0  0
   -1.8386    2.3510    2.7654 H   0  0  0  0  0  0  0  0  0  0  0  0
   -0.3821    0.5510    4.7100 H   0  0  0  0  0  0  0  0  0  0  0  0
   -2.1104    0.6745    4.3605 H   0  0  0  0  0  0  0  0  0  0  0  0
  1  2  2  0
  2  3  1  0
  2  8  1  0
  3  7  1  0
  3  4  1  0
  3 17  1  6
  4  5  1  0
  4 18  1  0
  4 19  1  0
  5  6  1  0
  5 20  1  0
  5 21  1  0
  6  7  1  0
  7 22  1  0
  7 23  1  0
  8 16  1  0
  8  9  1  0
  9 10  1  0
  9 24  1  0
  9 25  1  0
 10 15  1  0
 10 11  1  0
 10 26  1  6
 11 12  1  0
 11 27  1  0
 11 28  1  0
 12 13  1  0
 12 29  1  0
 12 30  1  0
 13 14  1  0
 14 15  1  0
 14 31  1  0
 14 32  1  0
 15 16  1  0
 15 33  1  6
 16 34  1  0
 16 35  1  0
M  END
>  <i_m_ct_stereo_status>  (225) 
1

>  <s_m_source_file>  (225) 
/var/tmp/pbs.5076255.sched01/tmpwmgilt76/96rd2vfdyj.sdf

>  <i_m_source_file_index>  (225) 
1

>  <i_lp_mmshare_version>  (225) 
48012

>  <i_f3d_flags>  (225) 
0

>  <s_epik_input>  (225) 
W0NIMl0xT1tDSDJdW0NIMl1bQ0BIXTFDKD1PKU4oW0NIMl0yKVtDSDJdW0NAQEhdKFtDQEBIXTIzKVtDSDJdT1tDSDJdW0NIMl0z

>  <s_epik_cmdline>  (225) 
J2VwaWtfcHl0aG9uJywgJy1waHQnLCAnMi4wJywgJy1waCcsICc3LjAnLCAnLXRuJywgJzgnLCAnLW1hJywgJzIwMCcsICctaW1hZScsICc8aW5maWxlLm1hZT4nLCAnLW9tYWUnLCAnPG91dGZpbGUubWFlPic=

>  <r_lp_tautomer_probability>  (225) 
1

>  <r_epik_Ionization_Penalty>  (225) 
1.98578e-08

>  <r_epik_Ionization_Penalty_Charging>  (225) 
0

>  <r_epik_Ionization_Penalty_Neutral>  (225) 
1.98578e-08

>  <r_epik_State_Penalty>  (225) 
-0

>  <r_epik_Charging_Adjusted_Penalty>  (225) 
0

>  <i_epik_Tot_Q>  (225) 
0

>  <i_epik_Tot_abs_Q>  (225) 
0

>  <s_lp_Force_Field>  (225) 
OPLS3e

>  <r_lp_Energy>  (225) 
14.8456

>  <b_lp_Chiralities_Consistent>  (225) 
1

>  <s_lp_Variant>  (225) 
57:0-1

>  <s_i_glide_gridfile>  (225) 
pfpi4k_grid

>  <i_i_glide_lignum>  (225) 
1

>  <i_i_glide_rotatable_bonds>  (225) 
2

>  <r_i_docking_score>  (225) 
-3.11535

>  <r_i_glide_ligand_efficiency>  (225) 
-0.194709

>  <r_i_glide_ligand_efficiency_sa>  (225) 
-0.490637

>  <r_i_glide_ligand_efficiency_ln>  (225) 
-0.825786

>  <r_i_glide_gscore>  (225) 
-3.11535

>  <r_i_glide_lipo>  (225) 
-0.0704601

>  <r_i_glide_hbond>  (225) 
-0.16

>  <r_i_glide_metal>  (225) 
-0

>  <r_i_glide_rewards>  (225) 
-1.87306

>  <r_i_glide_evdw>  (225) 
-20.8369

>  <r_i_glide_ecoul>  (225) 
-4.15886

>  <r_i_glide_erotb>  (225) 
0.668656

>  <r_i_glide_esite>  (225) 
-0.0148094

>  <r_i_glide_emodel>  (225) 
-30.0793

>  <r_i_glide_energy>  (225) 
-24.9957

>  <r_i_glide_einternal>  (225) 
0.683069

>  <r_i_glide_intrahb_reward>  (225) 
-0

>  <i_i_glide_confnum>  (225) 
6

>  <i_i_glide_posenum>  (225) 
3

>  <r_i_glide_eff_state_penalty>  (225) 
0

>  <ligand_id>  (225) 
57

>  <original_smiles>  (225) 
O=C(C1CCOC1)N1CC2CCOCC2C1

>  <smiles>  (225) 
[H]C1([H])OC([H])([H])C([H])(C(=O)N2C([H])([H])C3([H])C([H])([H])OC([H])([H])C([H])([H])C3([H])C2([H])[H])C1([H])[H]

$$$$
57:0:2
     RDKit          3D

 35 37  0  0  1  0  0  0  0  0999 V2000
    5.0732   -0.7353   -1.2964 O   0  0  0  0  0  0  0  0  0  0  0  0
    4.2696   -1.4823   -0.7357 C   0  0  0  0  0  0  0  0  0  0  0  0
    3.8104   -2.7698   -1.4555 C   0  0  2  0  0  0  0  0  0  0  0  0
    4.9712   -3.7154   -1.7239 C   0  0  0  0  0  0  0  0  0  0  0  0
    5.5664   -3.1341   -2.9982 C   0  0  0  0  0  0  0  0  0  0  0  0
    4.4840   -2.5458   -3.7176 O   0  0  0  0  0  0  0  0  0  0  0  0
    3.3320   -2.4645   -2.8772 C   0  0  0  0  0  0  0  0  0  0  0  0
    3.8056   -1.1953    0.4951 N   0  0  0  0  0  0  0  0  0  0  0  0
    4.1885    0.0242    1.2001 C   0  0  0  0  0  0  0  0  0  0  0  0
    3.2672    0.1011    2.4173 C   0  0  1  0  0  0  0  0  0  0  0  0
    1.9822    0.8921    2.1134 C   0  0  0  0  0  0  0  0  0  0  0  0
    0.9035    0.6072    3.1633 C   0  0  0  0  0  0  0  0  0  0  0  0
    0.6140   -0.7847    3.1576 O   0  0  0  0  0  0  0  0  0  0  0  0
    1.7062   -1.5920    3.5691 C   0  0  0  0  0  0  0  0  0  0  0  0
    2.9507   -1.3673    2.6917 C   0  0  1  0  0  0  0  0  0  0  0  0
    2.9026   -2.0117    1.3067 C   0  0  0  0  0  0  0  0  0  0  0  0
    3.0178   -3.2784   -0.9115 H   0  0  0  0  0  0  0  0  0  0  0  0
    5.6895   -3.7703   -0.9049 H   0  0  0  0  0  0  0  0  0  0  0  0
    4.6165   -4.7265   -1.9055 H   0  0  0  0  0  0  0  0  0  0  0  0
    6.2997   -2.3762   -2.7254 H   0  0  0  0  0  0  0  0  0  0  0  0
    6.0903   -3.8568   -3.6124 H   0  0  0  0  0  0  0  0  0  0  0  0
    2.6104   -3.2195   -3.1918 H   0  0  0  0  0  0  0  0  0  0  0  0
    2.8401   -1.4912   -2.9643 H   0  0  0  0  0  0  0  0  0  0  0  0
    5.2342   -0.0620    1.5050 H   0  0  0  0  0  0  0  0  0  0  0  0
    4.0919    0.9093    0.5656 H   0  0  0  0  0  0  0  0  0  0  0  0
    3.7741    0.5651    3.2672 H   0  0  0  0  0  0  0  0  0  0  0  0
    2.1931    1.9610    2.0736 H   0  0  0  0  0  0  0  0  0  0  0  0
    1.5908    0.6186    1.1329 H   0  0  0  0  0  0  0  0  0  0  0  0
    1.2347    0.9258    4.1528 H   0  0  0  0  0  0  0  0  0  0  0  0
   -0.0032    1.1685    2.9318 H   0  0  0  0  0  0  0  0  0  0  0  0
    1.9385   -1.3685    4.6116 H   0  0  0  0  0  0  0  0  0  0  0  0
    1.4026   -2.6357    3.5270 H   0  0  0  0  0  0  0  0  0  0  0  0
    3.8070   -1.8028    3.2061 H   0  0  0  0  0  0  0  0  0  0  0  0
    1.8939   -1.9663    0.8926 H   0  0  0  0  0  0  0  0  0  0  0  0
    3.2250   -3.0519    1.3507 H   0  0  0  0  0  0  0  0  0  0  0  0
  1  2  2  0
  2  3  1  0
  2  8  1  0
  3  7  1  0
  3  4  1  0
  3 17  1  1
  4  5  1  0
  4 18  1  0
  4 19  1  0
  5  6  1  0
  5 20  1  0
  5 21  1  0
  6  7  1  0
  7 22  1  0
  7 23  1  0
  8 16  1  0
  8  9  1  0
  9 10  1  0
  9 24  1  0
  9 25  1  0
 10 15  1  0
 10 11  1  0
 10 26  1  1
 11 12  1  0
 11 27  1  0
 11 28  1  0
 12 13  1  0
 12 29  1  0
 12 30  1  0
 13 14  1  0
 14 15  1  0
 14 31  1  0
 14 32  1  0
 15 16  1  0
 15 33  1  1
 16 34  1  0
 16 35  1  0
M  END
>  <i_m_ct_stereo_status>  (226) 
1

>  <s_m_source_file>  (226) 
/var/tmp/pbs.5076255.sched01/tmpwmgilt76/96rd2vfdyj.sdf

>  <i_m_source_file_index>  (226) 
1

>  <i_lp_mmshare_version>  (226) 
48012

>  <i_f3d_flags>  (226) 
0

>  <s_epik_input>  (226) 
W0NIMl0xT1tDSDJdW0NIMl1bQ0BIXTFDKD1PKU4oW0NIMl0yKVtDSDJdW0NAQEhdKFtDQEBIXTIzKVtDSDJdT1tDSDJdW0NIMl0z

>  <s_epik_cmdline>  (226) 
J2VwaWtfcHl0aG9uJywgJy1waHQnLCAnMi4wJywgJy1waCcsICc3LjAnLCAnLXRuJywgJzgnLCAnLW1hJywgJzIwMCcsICctaW1hZScsICc8aW5maWxlLm1hZT4nLCAnLW9tYWUnLCAnPG91dGZpbGUubWFlPic=

>  <r_lp_tautomer_probability>  (226) 
1

>  <r_epik_Ionization_Penalty>  (226) 
1.98578e-08

>  <r_epik_Ionization_Penalty_Charging>  (226) 
0

>  <r_epik_Ionization_Penalty_Neutral>  (226) 
1.98578e-08

>  <r_epik_State_Penalty>  (226) 
-0

>  <r_epik_Charging_Adjusted_Penalty>  (226) 
0

>  <i_epik_Tot_Q>  (226) 
0

>  <i_epik_Tot_abs_Q>  (226) 
0

>  <s_lp_Force_Field>  (226) 
OPLS3e

>  <r_lp_Energy>  (226) 
14.8456

>  <b_lp_Chiralities_Consistent>  (226) 
1

>  <s_lp_Variant>  (226) 
57:0-1

>  <s_i_glide_gridfile>  (226) 
pfpi4k_grid

>  <i_i_glide_lignum>  (226) 
1

>  <i_i_glide_rotatable_bonds>  (226) 
2

>  <r_i_docking_score>  (226) 
-2.99349

>  <r_i_glide_ligand_efficiency>  (226) 
-0.187093

>  <r_i_glide_ligand_efficiency_sa>  (226) 
-0.471445

>  <r_i_glide_ligand_efficiency_ln>  (226) 
-0.793485

>  <r_i_glide_gscore>  (226) 
-2.99349

>  <r_i_glide_lipo>  (226) 
-0.26418

>  <r_i_glide_hbond>  (226) 
0

>  <r_i_glide_metal>  (226) 
-0

>  <r_i_glide_rewards>  (226) 
-1.87306

>  <r_i_glide_evdw>  (226) 
-22.9698

>  <r_i_glide_ecoul>  (226) 
-1.9904

>  <r_i_glide_erotb>  (226) 
0.668656

>  <r_i_glide_esite>  (226) 
-0.0778552

>  <r_i_glide_emodel>  (226) 
-29.9213

>  <r_i_glide_energy>  (226) 
-24.9602

>  <r_i_glide_einternal>  (226) 
0.274615

>  <r_i_glide_intrahb_reward>  (226) 
-0

>  <i_i_glide_confnum>  (226) 
4

>  <i_i_glide_posenum>  (226) 
1

>  <r_i_glide_eff_state_penalty>  (226) 
0

>  <ligand_id>  (226) 
57

>  <original_smiles>  (226) 
O=C(C1CCOC1)N1CC2CCOCC2C1

>  <smiles>  (226) 
[H]C1([H])OC([H])([H])C([H])(C(=O)N2C([H])([H])C3([H])C([H])([H])OC([H])([H])C([H])([H])C3([H])C2([H])[H])C1([H])[H]

$$$$
58:0:0
     RDKit          3D

 80 86  0  0  1  0  0  0  0  0999 V2000
    2.0831   -9.8435    7.1955 C   0  0  0  0  0  0  0  0  0  0  0  0
    3.0110   -8.8949    6.6947 O   0  0  0  0  0  0  0  0  0  0  0  0
    2.5300   -7.7840    5.9314 C   0  0  1  0  0  0  0  0  0  0  0  0
    1.6139   -6.9040    6.7437 C   0  0  0  0  0  0  0  0  0  0  0  0
    0.9133   -5.9391    6.1327 C   0  0  0  0  0  0  0  0  0  0  0  0
    1.0351   -5.7299    4.6127 C   0  0  1  0  0  0  0  0  0  0  0  0
    2.4462   -5.3609    4.1107 C   0  0  1  0  0  0  0  0  0  0  0  0
    2.4101   -4.0311    3.5441 O   0  0  0  0  0  0  0  0  0  0  0  0
    2.2550   -2.9315    4.4283 C   0  0  0  0  0  0  0  0  0  0  0  0
    3.6155   -5.5299    5.0917 C   0  0  0  0  0  0  0  0  0  0  0  0
    3.8215   -6.9657    5.6549 C   0  0  0  0  0  0  0  0  0  0  0  0
    2.2844   -6.4011    2.9414 C   0  0  2  0  0  0  0  0  0  0  0  0
    1.5181   -6.0559    1.6760 C   0  0  0  0  0  0  0  0  0  0  0  0
    0.4113   -7.1006    1.5790 C   0  0  0  0  0  0  0  0  0  0  0  0
   -0.0102   -7.2824    2.9627 N   0  0  0  0  0  0  0  0  0  0  0  0
   -0.7974   -8.4733    3.1561 C   0  0  0  0  0  0  0  0  0  0  0  0
    1.1998   -7.0334    3.8213 C   0  0  2  0  0  0  0  0  0  0  0  0
    1.7009   -8.2348    4.6586 C   0  0  1  0  0  0  0  0  0  0  0  0
    2.3808   -9.1672    3.8443 O   0  0  0  0  0  0  0  0  0  0  0  0
    3.3926   -8.7273    3.0492 C   0  0  0  0  0  0  0  0  0  0  0  0
    4.3929   -9.6484    2.7186 C   0  0  0  0  0  0  0  0  0  0  0  0
    4.3231  -10.9314    3.1839 O   0  0  0  0  0  0  0  0  0  0  0  0
    5.4984   -9.2938    1.9406 C   0  0  0  0  0  0  0  0  0  0  0  0
    5.5837   -7.9724    1.4637 C   0  0  0  0  0  0  0  0  0  0  0  0
    4.5732   -7.0330    1.7584 C   0  0  0  0  0  0  0  0  0  0  0  0
    4.8636   -5.6647    1.2529 C   0  0  0  0  0  0  0  0  0  0  0  0
    5.3825   -4.7225    2.3253 C   0  0  0  0  0  0  0  0  0  0  0  0
    4.6479   -5.4307   -0.0766 C   0  0  0  0  0  0  0  0  0  0  0  0
    4.8394   -4.0809   -0.8064 C   0  0  2  0  0  0  0  0  0  0  0  0
    6.2061   -3.4398   -0.5235 C   0  0  0  0  0  0  0  0  0  0  0  0
    6.3781   -2.0994   -1.1940 C   0  0  0  0  0  0  0  0  0  0  0  0
    5.1887   -1.1901   -0.8284 C   0  0  0  0  0  0  0  0  0  0  0  0
    3.8546   -1.8445   -1.2163 C   0  0  0  0  0  0  0  0  0  0  0  0
    3.6435   -3.1759   -0.5820 N   0  0  0  0  0  0  0  0  0  0  0  0
    3.3672   -2.9535    0.8603 C   0  0  0  0  0  0  0  0  0  0  0  0
    2.4203   -3.7785   -1.1625 C   0  0  0  0  0  0  0  0  0  0  0  0
    3.4594   -7.3817    2.5636 C   0  0  0  0  0  0  0  0  0  0  0  0
    2.6206  -10.5363    7.8477 H   0  0  0  0  0  0  0  0  0  0  0  0
    1.6331  -10.4240    6.3918 H   0  0  0  0  0  0  0  0  0  0  0  0
    1.2916   -9.3866    7.7851 H   0  0  0  0  0  0  0  0  0  0  0  0
    1.5403   -7.0573    7.8071 H   0  0  0  0  0  0  0  0  0  0  0  0
    0.2473   -5.3052    6.6829 H   0  0  0  0  0  0  0  0  0  0  0  0
    0.2436   -5.0903    4.2310 H   0  0  0  0  0  0  0  0  0  0  0  0
    2.1525   -2.0192    3.8401 H   0  0  0  0  0  0  0  0  0  0  0  0
    3.1231   -2.7984    5.0752 H   0  0  0  0  0  0  0  0  0  0  0  0
    1.3582   -3.0332    5.0407 H   0  0  0  0  0  0  0  0  0  0  0  0
    4.5547   -5.2123    4.6652 H   0  0  0  0  0  0  0  0  0  0  0  0
    3.4896   -4.8549    5.9392 H   0  0  0  0  0  0  0  0  0  0  0  0
    4.3651   -6.8458    6.5910 H   0  0  0  0  0  0  0  0  0  0  0  0
    4.5151   -7.5249    5.0321 H   0  0  0  0  0  0  0  0  0  0  0  0
    1.0389   -5.0686    1.7608 H   0  0  0  0  0  0  0  0  0  0  0  0
    2.1174   -6.0747    0.7857 H   0  0  0  0  0  0  0  0  0  0  0  0
   -0.4213   -6.7965    0.9394 H   0  0  0  0  0  0  0  0  0  0  0  0
    0.8347   -8.0222    1.1749 H   0  0  0  0  0  0  0  0  0  0  0  0
   -1.1816   -8.5004    4.1775 H   0  0  0  0  0  0  0  0  0  0  0  0
   -0.2136   -9.3788    2.9579 H   0  0  0  0  0  0  0  0  0  0  0  0
   -1.6533   -8.4554    2.4745 H   0  0  0  0  0  0  0  0  0  0  0  0
    0.8470   -8.7748    5.0509 H   0  0  0  0  0  0  0  0  0  0  0  0
    4.6055  -11.5690    2.5543 H   0  0  0  0  0  0  0  0  0  0  0  0
    6.2852   -9.9875    1.7169 H   0  0  0  0  0  0  0  0  0  0  0  0
    6.4498   -7.6814    0.8738 H   0  0  0  0  0  0  0  0  0  0  0  0
    5.8787   -5.2874    3.1107 H   0  0  0  0  0  0  0  0  0  0  0  0
    4.5731   -4.1475    2.7561 H   0  0  0  0  0  0  0  0  0  0  0  0
    6.1549   -4.0400    2.0026 H   0  0  0  0  0  0  0  0  0  0  0  0
    4.3180   -6.2476   -0.7098 H   0  0  0  0  0  0  0  0  0  0  0  0
    4.8264   -4.3430   -1.8885 H   0  0  0  0  0  0  0  0  0  0  0  0
    6.3213   -3.1364    0.4925 H   0  0  0  0  0  0  0  0  0  0  0  0
    7.0113   -4.1274   -0.7591 H   0  0  0  0  0  0  0  0  0  0  0  0
    7.2934   -1.6567   -0.7941 H   0  0  0  0  0  0  0  0  0  0  0  0
    6.4763   -2.2104   -2.2896 H   0  0  0  0  0  0  0  0  0  0  0  0
    5.1965   -0.9151    0.2325 H   0  0  0  0  0  0  0  0  0  0  0  0
    5.2796   -0.2684   -1.3736 H   0  0  0  0  0  0  0  0  0  0  0  0
    3.0226   -1.1886   -0.9448 H   0  0  0  0  0  0  0  0  0  0  0  0
    3.8180   -1.9627   -2.3027 H   0  0  0  0  0  0  0  0  0  0  0  0
    2.5552   -2.2642    1.0593 H   0  0  0  0  0  0  0  0  0  0  0  0
    4.2678   -2.5974    1.3682 H   0  0  0  0  0  0  0  0  0  0  0  0
    3.0608   -3.9027    1.2928 H   0  0  0  0  0  0  0  0  0  0  0  0
    1.5504   -3.1365   -0.9871 H   0  0  0  0  0  0  0  0  0  0  0  0
    2.2044   -4.7489   -0.7285 H   0  0  0  0  0  0  0  0  0  0  0  0
    2.5386   -3.9176   -2.2450 H   0  0  0  0  0  0  0  0  0  0  0  0
  1  2  1  0
  1 38  1  0
  1 39  1  0
  1 40  1  0
  3  2  1  1
  3 11  1  0
  3 18  1  0
  3  4  1  0
  4  5  2  0
  4 41  1  0
  5  6  1  0
  5 42  1  0
  6 17  1  0
  6  7  1  0
  6 43  1  6
  7  8  1  6
  7 10  1  0
  7 12  1  0
  8  9  1  0
  9 44  1  0
  9 45  1  0
  9 46  1  0
 10 11  1  0
 10 47  1  0
 10 48  1  0
 11 49  1  0
 11 50  1  0
 12 17  1  0
 12 37  1  0
 12 13  1  6
 13 14  1  0
 13 51  1  0
 13 52  1  0
 14 15  1  0
 14 53  1  0
 14 54  1  0
 15 16  1  0
 17 15  1  6
 16 55  1  0
 16 56  1  0
 16 57  1  0
 17 18  1  0
 18 19  1  0
 18 58  1  1
 19 20  1  0
 20 37  2  0
 20 21  1  0
 21 22  1  0
 21 23  2  0
 22 59  1  0
 23 24  1  0
 23 60  1  0
 24 25  2  0
 24 61  1  0
 25 26  1  0
 25 37  1  0
 26 27  1  0
 26 28  2  3
 27 62  1  0
 27 63  1  0
 27 64  1  0
 28 29  1  0
 28 65  1  0
 29 34  1  0
 29 30  1  0
 29 66  1  6
 30 31  1  0
 30 67  1  0
 30 68  1  0
 31 32  1  0
 31 69  1  0
 31 70  1  0
 32 33  1  0
 32 71  1  0
 32 72  1  0
 33 34  1  0
 33 73  1  0
 33 74  1  0
 34 35  1  0
 34 36  1  0
 35 75  1  0
 35 76  1  0
 35 77  1  0
 36 78  1  0
 36 79  1  0
 36 80  1  0
M  CHG  1  34   1
M  END
>  <i_m_ct_stereo_status>  (227) 
1

>  <s_m_source_file>  (227) 
/var/tmp/pbs.5076255.sched01/tmpwmgilt76/96rd2vfdyj.sdf

>  <i_m_source_file_index>  (227) 
2

>  <i_lp_mmshare_version>  (227) 
48012

>  <i_f3d_flags>  (227) 
0

>  <s_epik_input>  (227) 
W0NIMl0xW0NIMl1OKFtDSDNdKVtDQEBdMihbQ0BAXTEzNClbQ0BASF01W0NAQF0zKE9bQ0gzXSlbQ0gyXVtDSDJdW0NAQF0oT1tDSDNdKShbQ0hdPVtDSF01KVtDQEBIXTJPYzZjNGMoW2NIXVtjSF1jNltPSF0pL0MoW0NIM10pPVtDSF1cW0NAQEhdKFtOK103KFtDSDNdKVtDSDNdKVtDSDJdW0NIMl1bQ0gyXVtDSDJdNw==

>  <s_epik_cmdline>  (227) 
J2VwaWtfcHl0aG9uJywgJy1waHQnLCAnMi4wJywgJy1waCcsICc3LjAnLCAnLXRuJywgJzgnLCAnLW1hJywgJzIwMCcsICctaW1hZScsICc8aW5maWxlLm1hZT4nLCAnLW9tYWUnLCAnPG91dGZpbGUubWFlPic=

>  <r_epik_Ionization_Penalty>  (227) 
0.247576

>  <r_epik_Ionization_Penalty_Charging>  (227) 
0

>  <r_epik_Ionization_Penalty_Neutral>  (227) 
0.247576

>  <r_epik_State_Penalty>  (227) 
0.167436

>  <r_epik_Charging_Adjusted_Penalty>  (227) 
0.167436

>  <i_epik_Tot_Q>  (227) 
1

>  <i_epik_Tot_abs_Q>  (227) 
1

>  <s_lp_Force_Field>  (227) 
OPLS3e

>  <r_lp_Energy>  (227) 
94.0723

>  <b_lp_Chiralities_Consistent>  (227) 
1

>  <s_lp_Variant>  (227) 
58:0-1

>  <s_i_glide_gridfile>  (227) 
pfpi4k_grid

>  <i_i_glide_lignum>  (227) 
2

>  <i_i_glide_rotatable_bonds>  (227) 
5

>  <r_i_docking_score>  (227) 
-2.15407

>  <r_i_glide_ligand_efficiency>  (227) 
-0.0582181

>  <r_i_glide_ligand_efficiency_sa>  (227) 
-0.193996

>  <r_i_glide_ligand_efficiency_ln>  (227) 
-0.467167

>  <r_i_glide_gscore>  (227) 
-2.15407

>  <r_i_glide_lipo>  (227) 
-0.324183

>  <r_i_glide_hbond>  (227) 
0

>  <r_i_glide_metal>  (227) 
-0

>  <r_i_glide_rewards>  (227) 
0

>  <r_i_glide_evdw>  (227) 
-26.136

>  <r_i_glide_ecoul>  (227) 
-4.79876

>  <r_i_glide_erotb>  (227) 
0.158827

>  <r_i_glide_esite>  (227) 
0

>  <r_i_glide_emodel>  (227) 
-26.1068

>  <r_i_glide_energy>  (227) 
-30.9348

>  <r_i_glide_einternal>  (227) 
10.7044

>  <r_i_glide_intrahb_reward>  (227) 
-0

>  <i_i_glide_confnum>  (227) 
5

>  <i_i_glide_posenum>  (227) 
37

>  <r_i_glide_eff_state_penalty>  (227) 
0

>  <ligand_id>  (227) 
58

>  <original_smiles>  (227) 
COC12C=CC3C(OC)(CC1)C14CCN(C)C31C2Oc1c(O)ccc(C(C)=CC2CCCC[N+]2(C)C)c14

>  <smiles>  (227) 
[H]Oc1c([H])c([H])c(C(=C([H])C2([H])C([H])([H])C([H])([H])C([H])([H])C([H])([H])[N+]2(C([H])([H])[H])C([H])([H])[H])C([H])([H])[H])c2c1OC1([H])C3(OC([H])([H])[H])C([H])=C([H])C4([H])C(OC([H])([H])[H])(C([H])([H])C3([H])[H])C23C([H])([H])C([H])([H])N(C([H])([H])[H])C143

$$$$
58:0:1
     RDKit          3D

 80 86  0  0  1  0  0  0  0  0999 V2000
    8.5132   -4.9059    0.7368 C   0  0  0  0  0  0  0  0  0  0  0  0
    7.6350   -4.2224    1.6810 O   0  0  0  0  0  0  0  0  0  0  0  0
    6.2448   -4.0741    1.3381 C   0  0  1  0  0  0  0  0  0  0  0  0
    6.0171   -3.7092   -0.1178 C   0  0  0  0  0  0  0  0  0  0  0  0
    4.7929   -3.2954   -0.5101 C   0  0  0  0  0  0  0  0  0  0  0  0
    3.6443   -3.1773    0.4883 C   0  0  1  0  0  0  0  0  0  0  0  0
    3.2403   -4.5001    1.1982 C   0  0  1  0  0  0  0  0  0  0  0  0
    1.9168   -4.9369    0.8765 O   0  0  0  0  0  0  0  0  0  0  0  0
    1.6827   -5.2498   -0.4897 C   0  0  0  0  0  0  0  0  0  0  0  0
    4.1997   -5.7035    1.0435 C   0  0  0  0  0  0  0  0  0  0  0  0
    5.6273   -5.4791    1.5901 C   0  0  0  0  0  0  0  0  0  0  0  0
    3.2013   -3.7039    2.5539 C   0  0  2  0  0  0  0  0  0  0  0  0
    1.9759   -2.8467    2.9060 C   0  0  0  0  0  0  0  0  0  0  0  0
    2.5303   -1.4559    3.1712 C   0  0  0  0  0  0  0  0  0  0  0  0
    3.5695   -1.3075    2.1602 N   0  0  0  0  0  0  0  0  0  0  0  0
    4.4563   -0.1840    2.3994 C   0  0  0  0  0  0  0  0  0  0  0  0
    4.1069   -2.6618    1.8698 C   0  0  2  0  0  0  0  0  0  0  0  0
    5.6161   -2.8762    2.1685 C   0  0  1  0  0  0  0  0  0  0  0  0
    5.8000   -2.9514    3.5778 O   0  0  0  0  0  0  0  0  0  0  0  0
    5.0738   -3.8849    4.2757 C   0  0  0  0  0  0  0  0  0  0  0  0
    5.6171   -4.3893    5.4820 C   0  0  0  0  0  0  0  0  0  0  0  0
    6.8173   -3.9567    5.9437 O   0  0  0  0  0  0  0  0  0  0  0  0
    4.9792   -5.3705    6.2217 C   0  0  0  0  0  0  0  0  0  0  0  0
    3.7349   -5.8344    5.7867 C   0  0  0  0  0  0  0  0  0  0  0  0
    3.1119   -5.3073    4.6388 C   0  0  0  0  0  0  0  0  0  0  0  0
    1.7578   -5.8020    4.3654 C   0  0  0  0  0  0  0  0  0  0  0  0
    0.6511   -5.1818    5.2147 C   0  0  0  0  0  0  0  0  0  0  0  0
    1.6550   -6.7615    3.4167 C   0  0  0  0  0  0  0  0  0  0  0  0
    0.4526   -7.5402    2.9011 C   0  0  2  0  0  0  0  0  0  0  0  0
   -0.8364   -6.9732    3.5107 C   0  0  0  0  0  0  0  0  0  0  0  0
   -2.1006   -7.6623    3.0716 C   0  0  0  0  0  0  0  0  0  0  0  0
   -1.9388   -9.1159    3.3897 C   0  0  0  0  0  0  0  0  0  0  0  0
   -0.6625   -9.6941    2.7488 C   0  0  0  0  0  0  0  0  0  0  0  0
    0.6102   -9.0157    3.1600 N   0  0  0  0  0  0  0  0  0  0  0  0
    0.9209   -9.3144    4.5915 C   0  0  0  0  0  0  0  0  0  0  0  0
    1.7120   -9.5873    2.3162 C   0  0  0  0  0  0  0  0  0  0  0  0
    3.7943   -4.3452    3.8443 C   0  0  0  0  0  0  0  0  0  0  0  0
    9.4655   -5.0779    1.2235 H   0  0  0  0  0  0  0  0  0  0  0  0
    8.7175   -4.3263   -0.1339 H   0  0  0  0  0  0  0  0  0  0  0  0
    8.1458   -5.8538    0.4354 H   0  0  0  0  0  0  0  0  0  0  0  0
    6.7997   -3.7582   -0.8542 H   0  0  0  0  0  0  0  0  0  0  0  0
    4.6079   -3.0097   -1.5463 H   0  0  0  0  0  0  0  0  0  0  0  0
    2.7981   -2.5995    0.1006 H   0  0  0  0  0  0  0  0  0  0  0  0
    0.6203   -5.3640   -0.7014 H   0  0  0  0  0  0  0  0  0  0  0  0
    2.1184   -6.2232   -0.6838 H   0  0  0  0  0  0  0  0  0  0  0  0
    2.0707   -4.5108   -1.2007 H   0  0  0  0  0  0  0  0  0  0  0  0
    3.8061   -6.6009    1.5143 H   0  0  0  0  0  0  0  0  0  0  0  0
    4.2869   -5.9613   -0.0211 H   0  0  0  0  0  0  0  0  0  0  0  0
    6.1908   -6.2654    1.0909 H   0  0  0  0  0  0  0  0  0  0  0  0
    5.6899   -5.7419    2.6449 H   0  0  0  0  0  0  0  0  0  0  0  0
    1.2821   -2.7592    2.0770 H   0  0  0  0  0  0  0  0  0  0  0  0
    1.3987   -3.2020    3.7509 H   0  0  0  0  0  0  0  0  0  0  0  0
    1.7656   -0.6732    3.1013 H   0  0  0  0  0  0  0  0  0  0  0  0
    2.9688   -1.4215    4.1708 H   0  0  0  0  0  0  0  0  0  0  0  0
    5.1107   -0.0392    1.5347 H   0  0  0  0  0  0  0  0  0  0  0  0
    5.0539   -0.3298    3.3056 H   0  0  0  0  0  0  0  0  0  0  0  0
    3.8525    0.7219    2.5173 H   0  0  0  0  0  0  0  0  0  0  0  0
    6.1911   -2.0020    1.8763 H   0  0  0  0  0  0  0  0  0  0  0  0
    7.2198   -3.3752    5.3199 H   0  0  0  0  0  0  0  0  0  0  0  0
    5.4503   -5.7617    7.1166 H   0  0  0  0  0  0  0  0  0  0  0  0
    3.2266   -6.5585    6.3964 H   0  0  0  0  0  0  0  0  0  0  0  0
    1.0458   -4.2843    5.7196 H   0  0  0  0  0  0  0  0  0  0  0  0
    0.4764   -5.8944    6.0324 H   0  0  0  0  0  0  0  0  0  0  0  0
   -0.2133   -5.0354    4.6320 H   0  0  0  0  0  0  0  0  0  0  0  0
    2.5736   -7.0582    2.9507 H   0  0  0  0  0  0  0  0  0  0  0  0
    0.4038   -7.3838    1.8018 H   0  0  0  0  0  0  0  0  0  0  0  0
   -0.8082   -6.9508    4.6118 H   0  0  0  0  0  0  0  0  0  0  0  0
   -0.8813   -5.9345    3.2301 H   0  0  0  0  0  0  0  0  0  0  0  0
   -2.9471   -7.2856    3.6219 H   0  0  0  0  0  0  0  0  0  0  0  0
   -2.3323   -7.5105    2.0236 H   0  0  0  0  0  0  0  0  0  0  0  0
   -1.8804   -9.0554    4.4862 H   0  0  0  0  0  0  0  0  0  0  0  0
   -2.7816   -9.7031    3.0052 H   0  0  0  0  0  0  0  0  0  0  0  0
   -0.5682  -10.7388    3.0310 H   0  0  0  0  0  0  0  0  0  0  0  0
   -0.8058   -9.6633    1.6683 H   0  0  0  0  0  0  0  0  0  0  0  0
    0.9377  -10.3885    4.7792 H   0  0  0  0  0  0  0  0  0  0  0  0
    0.2125   -8.8835    5.2979 H   0  0  0  0  0  0  0  0  0  0  0  0
    1.9017   -8.9393    4.8689 H   0  0  0  0  0  0  0  0  0  0  0  0
    1.7753  -10.6760    2.4202 H   0  0  0  0  0  0  0  0  0  0  0  0
    2.6996   -9.1905    2.5731 H   0  0  0  0  0  0  0  0  0  0  0  0
    1.5510   -9.3578    1.2776 H   0  0  0  0  0  0  0  0  0  0  0  0
  1  2  1  0
  1 38  1  0
  1 39  1  0
  1 40  1  0
  3  2  1  6
  3 11  1  0
  3 18  1  0
  3  4  1  0
  4  5  2  0
  4 41  1  0
  5  6  1  0
  5 42  1  0
  6 17  1  0
  6  7  1  0
  6 43  1  6
  7  8  1  6
  7 10  1  0
  7 12  1  0
  8  9  1  0
  9 44  1  0
  9 45  1  0
  9 46  1  0
 10 11  1  0
 10 47  1  0
 10 48  1  0
 11 49  1  0
 11 50  1  0
 12 17  1  0
 12 37  1  0
 12 13  1  1
 13 14  1  0
 13 51  1  0
 13 52  1  0
 14 15  1  0
 14 53  1  0
 14 54  1  0
 15 16  1  0
 17 15  1  1
 16 55  1  0
 16 56  1  0
 16 57  1  0
 17 18  1  0
 18 19  1  0
 18 58  1  6
 19 20  1  0
 20 37  2  0
 20 21  1  0
 21 22  1  0
 21 23  2  0
 22 59  1  0
 23 24  1  0
 23 60  1  0
 24 25  2  0
 24 61  1  0
 25 26  1  0
 25 37  1  0
 26 27  1  0
 26 28  2  3
 27 62  1  0
 27 63  1  0
 27 64  1  0
 28 29  1  0
 28 65  1  0
 29 34  1  0
 29 30  1  0
 29 66  1  6
 30 31  1  0
 30 67  1  0
 30 68  1  0
 31 32  1  0
 31 69  1  0
 31 70  1  0
 32 33  1  0
 32 71  1  0
 32 72  1  0
 33 34  1  0
 33 73  1  0
 33 74  1  0
 34 35  1  0
 34 36  1  0
 35 75  1  0
 35 76  1  0
 35 77  1  0
 36 78  1  0
 36 79  1  0
 36 80  1  0
M  CHG  1  34   1
M  END
>  <i_m_ct_stereo_status>  (228) 
1

>  <s_m_source_file>  (228) 
/var/tmp/pbs.5076255.sched01/tmpwmgilt76/96rd2vfdyj.sdf

>  <i_m_source_file_index>  (228) 
2

>  <i_lp_mmshare_version>  (228) 
48012

>  <i_f3d_flags>  (228) 
0

>  <s_epik_input>  (228) 
W0NIMl0xW0NIMl1OKFtDSDNdKVtDQEBdMihbQ0BAXTEzNClbQ0BASF01W0NAQF0zKE9bQ0gzXSlbQ0gyXVtDSDJdW0NAQF0oT1tDSDNdKShbQ0hdPVtDSF01KVtDQEBIXTJPYzZjNGMoW2NIXVtjSF1jNltPSF0pL0MoW0NIM10pPVtDSF1cW0NAQEhdKFtOK103KFtDSDNdKVtDSDNdKVtDSDJdW0NIMl1bQ0gyXVtDSDJdNw==

>  <s_epik_cmdline>  (228) 
J2VwaWtfcHl0aG9uJywgJy1waHQnLCAnMi4wJywgJy1waCcsICc3LjAnLCAnLXRuJywgJzgnLCAnLW1hJywgJzIwMCcsICctaW1hZScsICc8aW5maWxlLm1hZT4nLCAnLW9tYWUnLCAnPG91dGZpbGUubWFlPic=

>  <r_epik_Ionization_Penalty>  (228) 
0.247576

>  <r_epik_Ionization_Penalty_Charging>  (228) 
0

>  <r_epik_Ionization_Penalty_Neutral>  (228) 
0.247576

>  <r_epik_State_Penalty>  (228) 
0.167436

>  <r_epik_Charging_Adjusted_Penalty>  (228) 
0.167436

>  <i_epik_Tot_Q>  (228) 
1

>  <i_epik_Tot_abs_Q>  (228) 
1

>  <s_lp_Force_Field>  (228) 
OPLS3e

>  <r_lp_Energy>  (228) 
94.0723

>  <b_lp_Chiralities_Consistent>  (228) 
1

>  <s_lp_Variant>  (228) 
58:0-1

>  <s_i_glide_gridfile>  (228) 
pfpi4k_grid

>  <i_i_glide_lignum>  (228) 
2

>  <i_i_glide_rotatable_bonds>  (228) 
5

>  <r_i_docking_score>  (228) 
-1.18774

>  <r_i_glide_ligand_efficiency>  (228) 
-0.0321012

>  <r_i_glide_ligand_efficiency_sa>  (228) 
-0.106968

>  <r_i_glide_ligand_efficiency_ln>  (228) 
-0.257594

>  <r_i_glide_gscore>  (228) 
-1.18774

>  <r_i_glide_lipo>  (228) 
-0.53434

>  <r_i_glide_hbond>  (228) 
-0.0598567

>  <r_i_glide_metal>  (228) 
-0

>  <r_i_glide_rewards>  (228) 
0

>  <r_i_glide_evdw>  (228) 
-7.91274

>  <r_i_glide_ecoul>  (228) 
-2.80322

>  <r_i_glide_erotb>  (228) 
0.158827

>  <r_i_glide_esite>  (228) 
-0.0212465

>  <r_i_glide_emodel>  (228) 
-1.2144

>  <r_i_glide_energy>  (228) 
-10.716

>  <r_i_glide_einternal>  (228) 
15.753

>  <r_i_glide_intrahb_reward>  (228) 
-0

>  <i_i_glide_confnum>  (228) 
6

>  <i_i_glide_posenum>  (228) 
4

>  <r_i_glide_eff_state_penalty>  (228) 
0

>  <ligand_id>  (228) 
58

>  <original_smiles>  (228) 
COC12C=CC3C(OC)(CC1)C14CCN(C)C31C2Oc1c(O)ccc(C(C)=CC2CCCC[N+]2(C)C)c14

>  <smiles>  (228) 
[H]Oc1c([H])c([H])c(C(=C([H])C2([H])C([H])([H])C([H])([H])C([H])([H])C([H])([H])[N+]2(C([H])([H])[H])C([H])([H])[H])C([H])([H])[H])c2c1OC1([H])C3(OC([H])([H])[H])C([H])=C([H])C4([H])C(OC([H])([H])[H])(C([H])([H])C3([H])[H])C23C([H])([H])C([H])([H])N(C([H])([H])[H])C143

$$$$
58:0:2
     RDKit          3D

 80 86  0  0  1  0  0  0  0  0999 V2000
    3.1168   -2.0904   10.4521 C   0  0  0  0  0  0  0  0  0  0  0  0
    2.3791   -3.2148    9.9543 O   0  0  0  0  0  0  0  0  0  0  0  0
    2.2465   -3.3635    8.5343 C   0  0  1  0  0  0  0  0  0  0  0  0
    1.9095   -2.0448    7.8552 C   0  0  0  0  0  0  0  0  0  0  0  0
    1.4774   -2.0265    6.6040 C   0  0  0  0  0  0  0  0  0  0  0  0
    1.2966   -3.3299    5.8153 C   0  0  1  0  0  0  0  0  0  0  0  0
    2.5661   -4.1947    5.6097 C   0  0  1  0  0  0  0  0  0  0  0  0
    2.9244   -4.2722    4.2186 O   0  0  0  0  0  0  0  0  0  0  0  0
    3.3429   -3.0705    3.5771 C   0  0  0  0  0  0  0  0  0  0  0  0
    3.8152   -3.8340    6.4497 C   0  0  0  0  0  0  0  0  0  0  0  0
    3.6271   -3.8488    7.9914 C   0  0  0  0  0  0  0  0  0  0  0  0
    1.7434   -5.4554    5.9970 C   0  0  2  0  0  0  0  0  0  0  0  0
    0.8356   -6.1304    4.9414 C   0  0  0  0  0  0  0  0  0  0  0  0
   -0.5245   -6.1494    5.6093 C   0  0  0  0  0  0  0  0  0  0  0  0
   -0.6107   -4.8666    6.2796 N   0  0  0  0  0  0  0  0  0  0  0  0
   -1.7151   -4.7893    7.2106 C   0  0  0  0  0  0  0  0  0  0  0  0
    0.7754   -4.4934    6.6845 C   0  0  2  0  0  0  0  0  0  0  0  0
    1.0221   -4.3188    8.2094 C   0  0  1  0  0  0  0  0  0  0  0  0
    1.0643   -5.5828    8.8557 O   0  0  0  0  0  0  0  0  0  0  0  0
    1.9373   -6.5182    8.3521 C   0  0  0  0  0  0  0  0  0  0  0  0
    2.4297   -7.4673    9.2716 C   0  0  0  0  0  0  0  0  0  0  0  0
    2.0342   -7.4361   10.5723 O   0  0  0  0  0  0  0  0  0  0  0  0
    3.3630   -8.4301    8.8751 C   0  0  0  0  0  0  0  0  0  0  0  0
    3.7937   -8.4411    7.5376 C   0  0  0  0  0  0  0  0  0  0  0  0
    3.3012   -7.5294    6.5819 C   0  0  0  0  0  0  0  0  0  0  0  0
    3.8020   -7.6692    5.2230 C   0  0  0  0  0  0  0  0  0  0  0  0
    2.9121   -8.4594    4.2612 C   0  0  0  0  0  0  0  0  0  0  0  0
    5.0283   -7.1515    4.9468 C   0  0  0  0  0  0  0  0  0  0  0  0
    5.8204   -7.1938    3.6398 C   0  0  2  0  0  0  0  0  0  0  0  0
    5.0483   -7.9130    2.5213 C   0  0  0  0  0  0  0  0  0  0  0  0
    5.7576   -8.0278    1.2087 C   0  0  0  0  0  0  0  0  0  0  0  0
    7.1291   -8.6567    1.4299 C   0  0  0  0  0  0  0  0  0  0  0  0
    7.9072   -7.8781    2.5188 C   0  0  0  0  0  0  0  0  0  0  0  0
    7.2043   -7.7713    3.8310 N   0  0  0  0  0  0  0  0  0  0  0  0
    7.1320   -9.0962    4.4993 C   0  0  0  0  0  0  0  0  0  0  0  0
    7.9908   -6.8647    4.7017 C   0  0  0  0  0  0  0  0  0  0  0  0
    2.3528   -6.5350    6.9820 C   0  0  0  0  0  0  0  0  0  0  0  0
    3.3152   -2.2013   11.5152 H   0  0  0  0  0  0  0  0  0  0  0  0
    2.5360   -1.1772   10.3466 H   0  0  0  0  0  0  0  0  0  0  0  0
    4.0773   -1.9294    9.9648 H   0  0  0  0  0  0  0  0  0  0  0  0
    2.0301   -1.1122    8.3810 H   0  0  0  0  0  0  0  0  0  0  0  0
    1.2407   -1.0903    6.1187 H   0  0  0  0  0  0  0  0  0  0  0  0
    0.7040   -3.1693    4.9144 H   0  0  0  0  0  0  0  0  0  0  0  0
    3.4261   -3.2456    2.5051 H   0  0  0  0  0  0  0  0  0  0  0  0
    4.3240   -2.7587    3.9286 H   0  0  0  0  0  0  0  0  0  0  0  0
    2.6404   -2.2499    3.7187 H   0  0  0  0  0  0  0  0  0  0  0  0
    4.6503   -4.4900    6.1918 H   0  0  0  0  0  0  0  0  0  0  0  0
    4.1513   -2.8238    6.1838 H   0  0  0  0  0  0  0  0  0  0  0  0
    4.4152   -3.2065    8.3769 H   0  0  0  0  0  0  0  0  0  0  0  0
    3.8782   -4.8282    8.3981 H   0  0  0  0  0  0  0  0  0  0  0  0
    0.7850   -5.5341    4.0250 H   0  0  0  0  0  0  0  0  0  0  0  0
    1.0428   -7.0929    4.6739 H   0  0  0  0  0  0  0  0  0  0  0  0
   -1.3400   -6.3178    4.8974 H   0  0  0  0  0  0  0  0  0  0  0  0
   -0.5582   -6.9710    6.3386 H   0  0  0  0  0  0  0  0  0  0  0  0
   -1.8149   -3.7593    7.5602 H   0  0  0  0  0  0  0  0  0  0  0  0
   -1.5662   -5.4689    8.0559 H   0  0  0  0  0  0  0  0  0  0  0  0
   -2.6417   -5.0640    6.6923 H   0  0  0  0  0  0  0  0  0  0  0  0
    0.1585   -3.8331    8.6576 H   0  0  0  0  0  0  0  0  0  0  0  0
    2.4351   -8.0978   11.1093 H   0  0  0  0  0  0  0  0  0  0  0  0
    3.7555   -9.1425    9.5795 H   0  0  0  0  0  0  0  0  0  0  0  0
    4.5097   -9.2017    7.2477 H   0  0  0  0  0  0  0  0  0  0  0  0
    1.9478   -8.6578    4.6565 H   0  0  0  0  0  0  0  0  0  0  0  0
    3.3268   -9.4480    4.1165 H   0  0  0  0  0  0  0  0  0  0  0  0
    2.8162   -7.9193    3.3413 H   0  0  0  0  0  0  0  0  0  0  0  0
    5.5427   -6.6304    5.7693 H   0  0  0  0  0  0  0  0  0  0  0  0
    5.9328   -6.1487    3.3126 H   0  0  0  0  0  0  0  0  0  0  0  0
    4.7881   -8.9326    2.8220 H   0  0  0  0  0  0  0  0  0  0  0  0
    4.1511   -7.3499    2.2982 H   0  0  0  0  0  0  0  0  0  0  0  0
    5.1606   -8.6426    0.5303 H   0  0  0  0  0  0  0  0  0  0  0  0
    5.8473   -7.0337    0.7682 H   0  0  0  0  0  0  0  0  0  0  0  0
    7.0170   -9.7115    1.7182 H   0  0  0  0  0  0  0  0  0  0  0  0
    7.6864   -8.6572    0.4857 H   0  0  0  0  0  0  0  0  0  0  0  0
    8.8885   -8.3475    2.6608 H   0  0  0  0  0  0  0  0  0  0  0  0
    8.1081   -6.8765    2.1286 H   0  0  0  0  0  0  0  0  0  0  0  0
    8.1322   -9.5359    4.5659 H   0  0  0  0  0  0  0  0  0  0  0  0
    6.4884   -9.7948    3.9633 H   0  0  0  0  0  0  0  0  0  0  0  0
    6.7468   -9.0019    5.5163 H   0  0  0  0  0  0  0  0  0  0  0  0
    9.0144   -7.2451    4.8069 H   0  0  0  0  0  0  0  0  0  0  0  0
    7.5622   -6.7969    5.7030 H   0  0  0  0  0  0  0  0  0  0  0  0
    8.0303   -5.8598    4.2708 H   0  0  0  0  0  0  0  0  0  0  0  0
  1  2  1  0
  1 38  1  0
  1 39  1  0
  1 40  1  0
  3  2  1  1
  3 11  1  0
  3 18  1  0
  3  4  1  0
  4  5  2  0
  4 41  1  0
  5  6  1  0
  5 42  1  0
  6 17  1  0
  6  7  1  0
  6 43  1  6
  7  8  1  6
  7 10  1  0
  7 12  1  0
  8  9  1  0
  9 44  1  0
  9 45  1  0
  9 46  1  0
 10 11  1  0
 10 47  1  0
 10 48  1  0
 11 49  1  0
 11 50  1  0
 12 17  1  0
 12 37  1  0
 12 13  1  6
 13 14  1  0
 13 51  1  0
 13 52  1  0
 14 15  1  0
 14 53  1  0
 14 54  1  0
 15 16  1  0
 17 15  1  1
 16 55  1  0
 16 56  1  0
 16 57  1  0
 17 18  1  0
 18 19  1  0
 18 58  1  1
 19 20  1  0
 20 37  2  0
 20 21  1  0
 21 22  1  0
 21 23  2  0
 22 59  1  0
 23 24  1  0
 23 60  1  0
 24 25  2  0
 24 61  1  0
 25 26  1  0
 25 37  1  0
 26 27  1  0
 26 28  2  3
 27 62  1  0
 27 63  1  0
 27 64  1  0
 28 29  1  0
 28 65  1  0
 29 34  1  0
 29 30  1  0
 29 66  1  6
 30 31  1  0
 30 67  1  0
 30 68  1  0
 31 32  1  0
 31 69  1  0
 31 70  1  0
 32 33  1  0
 32 71  1  0
 32 72  1  0
 33 34  1  0
 33 73  1  0
 33 74  1  0
 34 35  1  0
 34 36  1  0
 35 75  1  0
 35 76  1  0
 35 77  1  0
 36 78  1  0
 36 79  1  0
 36 80  1  0
M  CHG  1  34   1
M  END
>  <i_m_ct_stereo_status>  (229) 
1

>  <s_m_source_file>  (229) 
/var/tmp/pbs.5076255.sched01/tmpwmgilt76/96rd2vfdyj.sdf

>  <i_m_source_file_index>  (229) 
2

>  <i_lp_mmshare_version>  (229) 
48012

>  <i_f3d_flags>  (229) 
0

>  <s_epik_input>  (229) 
W0NIMl0xW0NIMl1OKFtDSDNdKVtDQEBdMihbQ0BAXTEzNClbQ0BASF01W0NAQF0zKE9bQ0gzXSlbQ0gyXVtDSDJdW0NAQF0oT1tDSDNdKShbQ0hdPVtDSF01KVtDQEBIXTJPYzZjNGMoW2NIXVtjSF1jNltPSF0pL0MoW0NIM10pPVtDSF1cW0NAQEhdKFtOK103KFtDSDNdKVtDSDNdKVtDSDJdW0NIMl1bQ0gyXVtDSDJdNw==

>  <s_epik_cmdline>  (229) 
J2VwaWtfcHl0aG9uJywgJy1waHQnLCAnMi4wJywgJy1waCcsICc3LjAnLCAnLXRuJywgJzgnLCAnLW1hJywgJzIwMCcsICctaW1hZScsICc8aW5maWxlLm1hZT4nLCAnLW9tYWUnLCAnPG91dGZpbGUubWFlPic=

>  <r_epik_Ionization_Penalty>  (229) 
0.247576

>  <r_epik_Ionization_Penalty_Charging>  (229) 
0

>  <r_epik_Ionization_Penalty_Neutral>  (229) 
0.247576

>  <r_epik_State_Penalty>  (229) 
0.167436

>  <r_epik_Charging_Adjusted_Penalty>  (229) 
0.167436

>  <i_epik_Tot_Q>  (229) 
1

>  <i_epik_Tot_abs_Q>  (229) 
1

>  <s_lp_Force_Field>  (229) 
OPLS3e

>  <r_lp_Energy>  (229) 
94.0723

>  <b_lp_Chiralities_Consistent>  (229) 
1

>  <s_lp_Variant>  (229) 
58:0-1

>  <s_i_glide_gridfile>  (229) 
pfpi4k_grid

>  <i_i_glide_lignum>  (229) 
2

>  <i_i_glide_rotatable_bonds>  (229) 
5

>  <r_i_docking_score>  (229) 
-0.98952

>  <r_i_glide_ligand_efficiency>  (229) 
-0.0267438

>  <r_i_glide_ligand_efficiency_sa>  (229) 
-0.0891162

>  <r_i_glide_ligand_efficiency_ln>  (229) 
-0.214604

>  <r_i_glide_gscore>  (229) 
-0.98952

>  <r_i_glide_lipo>  (229) 
-0.290386

>  <r_i_glide_hbond>  (229) 
0

>  <r_i_glide_metal>  (229) 
-0

>  <r_i_glide_rewards>  (229) 
0

>  <r_i_glide_evdw>  (229) 
-14.6271

>  <r_i_glide_ecoul>  (229) 
-1.59395

>  <r_i_glide_erotb>  (229) 
0.158827

>  <r_i_glide_esite>  (229) 
0

>  <r_i_glide_emodel>  (229) 
-6.6428

>  <r_i_glide_energy>  (229) 
-16.221

>  <r_i_glide_einternal>  (229) 
14.9581

>  <r_i_glide_intrahb_reward>  (229) 
-0

>  <i_i_glide_confnum>  (229) 
6

>  <i_i_glide_posenum>  (229) 
2

>  <r_i_glide_eff_state_penalty>  (229) 
0

>  <ligand_id>  (229) 
58

>  <original_smiles>  (229) 
COC12C=CC3C(OC)(CC1)C14CCN(C)C31C2Oc1c(O)ccc(C(C)=CC2CCCC[N+]2(C)C)c14

>  <smiles>  (229) 
[H]Oc1c([H])c([H])c(C(=C([H])C2([H])C([H])([H])C([H])([H])C([H])([H])C([H])([H])[N+]2(C([H])([H])[H])C([H])([H])[H])C([H])([H])[H])c2c1OC1([H])C3(OC([H])([H])[H])C([H])=C([H])C4([H])C(OC([H])([H])[H])(C([H])([H])C3([H])[H])C23C([H])([H])C([H])([H])N(C([H])([H])[H])C143

$$$$
59:0:0
     RDKit          3D

 35 37  0  0  1  0  0  0  0  0999 V2000
    2.1727   -4.5110    1.7685 O   0  0  0  0  0  0  0  0  0  0  0  0
    3.3405   -4.2147    1.5217 N   0  0  0  0  0  0  0  0  0  0  0  0
    3.7159   -3.0570    1.3800 O   0  0  0  0  0  0  0  0  0  0  0  0
    4.3584   -5.2614    1.3950 C   0  0  0  0  0  0  0  0  0  0  0  0
    5.7475   -5.0692    1.1050 C   0  0  0  0  0  0  0  0  0  0  0  0
    6.4461   -6.2113    1.0480 N   0  0  0  0  0  0  0  0  0  0  0  0
    5.5572   -7.2221    1.2771 N   0  0  0  0  0  0  0  0  0  0  0  0
    5.8670   -8.5229    1.2975 N   0  0  0  0  0  0  0  0  0  0  0  0
    4.7528   -9.3067    1.4258 C   0  0  0  0  0  0  0  0  0  0  0  0
    3.4933   -8.9127    1.5228 N   0  0  0  0  0  0  0  0  0  0  0  0
    3.2152   -7.5832    1.6294 C   0  0  0  0  0  0  0  0  0  0  0  0
    1.9555   -7.1626    1.9705 O   0  0  0  0  0  0  0  0  0  0  0  0
    0.9128   -8.1324    2.2243 C   0  0  0  0  0  0  0  0  0  0  0  0
    1.2212   -9.1208    3.3685 C   0  0  0  0  0  0  0  0  0  0  0  0
    0.3807  -10.4041    3.2528 C   0  0  0  0  0  0  0  0  0  0  0  0
    0.7850  -11.3655    4.3828 C   0  0  0  0  0  0  0  0  0  0  0  0
    0.6360  -10.6776    5.6794 N   0  0  0  0  0  0  0  0  0  0  0  0
    1.4921   -9.4891    5.8155 C   0  0  0  0  0  0  0  0  0  0  0  0
    1.1253   -8.4557    4.7373 C   0  0  0  0  0  0  0  0  0  0  0  0
    4.3025   -6.6730    1.4427 C   0  0  0  0  0  0  0  0  0  0  0  0
    6.2586   -4.1278    0.9330 H   0  0  0  0  0  0  0  0  0  0  0  0
    4.9554  -10.3673    1.5226 H   0  0  0  0  0  0  0  0  0  0  0  0
   -0.0089   -7.6056    2.4520 H   0  0  0  0  0  0  0  0  0  0  0  0
    0.6835   -8.6575    1.3041 H   0  0  0  0  0  0  0  0  0  0  0  0
    2.2242   -9.5187    3.3756 H   0  0  0  0  0  0  0  0  0  0  0  0
   -0.6823  -10.1755    3.2815 H   0  0  0  0  0  0  0  0  0  0  0  0
    0.5871  -10.8845    2.2955 H   0  0  0  0  0  0  0  0  0  0  0  0
    0.1637  -12.2670    4.3677 H   0  0  0  0  0  0  0  0  0  0  0  0
    1.8237  -11.6959    4.2863 H   0  0  0  0  0  0  0  0  0  0  0  0
   -0.3501  -10.3986    5.7392 H   0  0  0  0  0  0  0  0  0  0  0  0
    1.3848   -9.0412    6.8062 H   0  0  0  0  0  0  0  0  0  0  0  0
    2.5372   -9.7991    5.7234 H   0  0  0  0  0  0  0  0  0  0  0  0
    1.8369   -7.6214    4.7642 H   0  0  0  0  0  0  0  0  0  0  0  0
    0.1306   -8.0468    4.8955 H   0  0  0  0  0  0  0  0  0  0  0  0
    0.8458  -11.3239    6.4299 H   0  0  0  0  0  0  0  0  0  0  0  0
  1  2  2  0
  2  3  1  0
  2  4  1  0
  4 20  2  0
  4  5  1  0
  5  6  2  0
  5 21  1  0
  6  7  1  0
  7 20  1  0
  7  8  1  0
  8  9  2  0
  9 10  1  0
  9 22  1  0
 10 11  2  0
 11 12  1  0
 11 20  1  0
 12 13  1  0
 13 14  1  0
 13 23  1  0
 13 24  1  0
 14 19  1  0
 14 15  1  0
 14 25  1  0
 15 16  1  0
 15 26  1  0
 15 27  1  0
 16 17  1  0
 16 28  1  0
 16 29  1  0
 17 18  1  0
 17 30  1  0
 17 35  1  0
 18 19  1  0
 18 31  1  0
 18 32  1  0
 19 33  1  0
 19 34  1  0
M  CHG  3   2   1   3  -1  17   1
M  END
>  <i_m_ct_stereo_status>  (230) 
1

>  <s_m_source_file>  (230) 
/var/tmp/pbs.5076255.sched01/tmpwmgilt76/96rd2vfdyj.sdf

>  <i_m_source_file_index>  (230) 
4

>  <i_lp_mmshare_version>  (230) 
48012

>  <i_f3d_flags>  (230) 
0

>  <s_epik_input>  (230) 
Tz1bTitdKFtPLV0pYyhbY0hdbjEpYyhuMTIpYyhuW2NIXW4yKU9bQ0gyXVtDSF0zW0NIMl1bQ0gyXVtOSF1bQ0gyXVtDSDJdMw==

>  <s_epik_cmdline>  (230) 
J2VwaWtfcHl0aG9uJywgJy1waHQnLCAnMi4wJywgJy1waCcsICc3LjAnLCAnLXRuJywgJzgnLCAnLW1hJywgJzIwMCcsICctaW1hZScsICc8aW5maWxlLm1hZT4nLCAnLW9tYWUnLCAnPG91dGZpbGUubWFlPic=

>  <r_epik_Ionization_Penalty>  (230) 
0.000413896

>  <r_epik_Ionization_Penalty_Charging>  (230) 
0.00041389

>  <r_epik_Ionization_Penalty_Neutral>  (230) 
5.65846e-09

>  <r_epik_State_Penalty>  (230) 
0.000254251

>  <r_epik_Charging_Adjusted_Penalty>  (230) 
0.000668141

>  <i_epik_Tot_Q>  (230) 
1

>  <i_epik_Tot_abs_Q>  (230) 
3

>  <s_lp_Force_Field>  (230) 
OPLS3e

>  <r_lp_Energy>  (230) 
24.7382

>  <b_lp_Chiralities_Consistent>  (230) 
1

>  <s_lp_Variant>  (230) 
59:0-1

>  <s_i_glide_gridfile>  (230) 
pfpi4k_grid

>  <i_i_glide_lignum>  (230) 
4

>  <i_i_glide_rotatable_bonds>  (230) 
4

>  <r_i_docking_score>  (230) 
-3.7645

>  <r_i_glide_ligand_efficiency>  (230) 
-0.188225

>  <r_i_glide_ligand_efficiency_sa>  (230) 
-0.510922

>  <r_i_glide_ligand_efficiency_ln>  (230) 
-0.942131

>  <r_i_glide_gscore>  (230) 
-3.7645

>  <r_i_glide_lipo>  (230) 
-0.222728

>  <r_i_glide_hbond>  (230) 
-0.355808

>  <r_i_glide_metal>  (230) 
-0

>  <r_i_glide_rewards>  (230) 
-1.6336

>  <r_i_glide_evdw>  (230) 
-18.2336

>  <r_i_glide_ecoul>  (230) 
-7.7161

>  <r_i_glide_erotb>  (230) 
0.693906

>  <r_i_glide_esite>  (230) 
-0.177172

>  <r_i_glide_emodel>  (230) 
-34.3633

>  <r_i_glide_energy>  (230) 
-25.9497

>  <r_i_glide_einternal>  (230) 
1.30019

>  <r_i_glide_intrahb_reward>  (230) 
-0

>  <i_i_glide_confnum>  (230) 
1

>  <i_i_glide_posenum>  (230) 
13

>  <r_i_glide_eff_state_penalty>  (230) 
0

>  <ligand_id>  (230) 
59

>  <original_smiles>  (230) 
O=[N+]([O-])c1cnn2ncnc(OCC3CCNCC3)c12

>  <smiles>  (230) 
[H]c1nc(OC([H])([H])C2([H])C([H])([H])C([H])([H])[N+]([H])([H])C([H])([H])C2([H])[H])c2c([N+](=O)[O-])c([H])nn2n1

$$$$
59:0:1
     RDKit          3D

 35 37  0  0  1  0  0  0  0  0999 V2000
    2.1970   -4.8335    0.0992 O   0  0  0  0  0  0  0  0  0  0  0  0
    2.7634   -5.7286    0.7124 N   0  0  0  0  0  0  0  0  0  0  0  0
    2.1661   -6.6281    1.2863 O   0  0  0  0  0  0  0  0  0  0  0  0
    4.2342   -5.6427    0.7513 C   0  0  0  0  0  0  0  0  0  0  0  0
    5.0284   -4.5424    0.2985 C   0  0  0  0  0  0  0  0  0  0  0  0
    6.3474   -4.7340    0.4721 N   0  0  0  0  0  0  0  0  0  0  0  0
    6.5043   -5.9788    1.0253 N   0  0  0  0  0  0  0  0  0  0  0  0
    7.6631   -6.5478    1.3303 N   0  0  0  0  0  0  0  0  0  0  0  0
    7.5084   -7.7831    1.8676 C   0  0  0  0  0  0  0  0  0  0  0  0
    6.3482   -8.4536    2.1056 N   0  0  0  0  0  0  0  0  0  0  0  0
    5.1852   -7.8274    1.7707 C   0  0  0  0  0  0  0  0  0  0  0  0
    3.9958   -8.4889    2.0049 O   0  0  0  0  0  0  0  0  0  0  0  0
    4.0203   -9.7416    2.6949 C   0  0  0  0  0  0  0  0  0  0  0  0
    2.5779  -10.1238    3.0615 C   0  0  0  0  0  0  0  0  0  0  0  0
    1.9619   -9.0818    4.0213 C   0  0  0  0  0  0  0  0  0  0  0  0
    0.5624   -9.4958    4.4900 C   0  0  0  0  0  0  0  0  0  0  0  0
    0.6128  -10.8287    5.1180 N   0  0  0  0  0  0  0  0  0  0  0  0
    1.0838  -11.8604    4.1747 C   0  0  0  0  0  0  0  0  0  0  0  0
    2.5058  -11.5297    3.6941 C   0  0  0  0  0  0  0  0  0  0  0  0
    5.2496   -6.5257    1.2001 C   0  0  0  0  0  0  0  0  0  0  0  0
    4.6847   -3.6138   -0.1358 H   0  0  0  0  0  0  0  0  0  0  0  0
    8.4278   -8.2804    2.1387 H   0  0  0  0  0  0  0  0  0  0  0  0
    4.4682  -10.5171    2.0731 H   0  0  0  0  0  0  0  0  0  0  0  0
    4.6152   -9.6932    3.6097 H   0  0  0  0  0  0  0  0  0  0  0  0
    1.9884  -10.1408    2.1424 H   0  0  0  0  0  0  0  0  0  0  0  0
    2.6075   -8.9639    4.8918 H   0  0  0  0  0  0  0  0  0  0  0  0
    1.9115   -8.1058    3.5389 H   0  0  0  0  0  0  0  0  0  0  0  0
    0.1573   -8.7752    5.2005 H   0  0  0  0  0  0  0  0  0  0  0  0
   -0.1297   -9.5279    3.6450 H   0  0  0  0  0  0  0  0  0  0  0  0
    1.2196  -10.8389    5.9333 H   0  0  0  0  0  0  0  0  0  0  0  0
    1.0429  -12.8195    4.6869 H   0  0  0  0  0  0  0  0  0  0  0  0
    0.4014  -11.9185    3.3257 H   0  0  0  0  0  0  0  0  0  0  0  0
    2.8393  -12.2800    2.9746 H   0  0  0  0  0  0  0  0  0  0  0  0
    3.1873  -11.5896    4.5436 H   0  0  0  0  0  0  0  0  0  0  0  0
   -0.3306  -11.0557    5.4093 H   0  0  0  0  0  0  0  0  0  0  0  0
  1  2  2  0
  2  3  1  0
  2  4  1  0
  4 20  2  0
  4  5  1  0
  5  6  2  0
  5 21  1  0
  6  7  1  0
  7 20  1  0
  7  8  1  0
  8  9  2  0
  9 10  1  0
  9 22  1  0
 10 11  2  0
 11 12  1  0
 11 20  1  0
 12 13  1  0
 13 14  1  0
 13 23  1  0
 13 24  1  0
 14 19  1  0
 14 15  1  0
 14 25  1  0
 15 16  1  0
 15 26  1  0
 15 27  1  0
 16 17  1  0
 16 28  1  0
 16 29  1  0
 17 18  1  0
 17 30  1  0
 17 35  1  0
 18 19  1  0
 18 31  1  0
 18 32  1  0
 19 33  1  0
 19 34  1  0
M  CHG  3   2   1   3  -1  17   1
M  END
>  <i_m_ct_stereo_status>  (231) 
1

>  <s_m_source_file>  (231) 
/var/tmp/pbs.5076255.sched01/tmpwmgilt76/96rd2vfdyj.sdf

>  <i_m_source_file_index>  (231) 
4

>  <i_lp_mmshare_version>  (231) 
48012

>  <i_f3d_flags>  (231) 
0

>  <s_epik_input>  (231) 
Tz1bTitdKFtPLV0pYyhbY0hdbjEpYyhuMTIpYyhuW2NIXW4yKU9bQ0gyXVtDSF0zW0NIMl1bQ0gyXVtOSF1bQ0gyXVtDSDJdMw==

>  <s_epik_cmdline>  (231) 
J2VwaWtfcHl0aG9uJywgJy1waHQnLCAnMi4wJywgJy1waCcsICc3LjAnLCAnLXRuJywgJzgnLCAnLW1hJywgJzIwMCcsICctaW1hZScsICc8aW5maWxlLm1hZT4nLCAnLW9tYWUnLCAnPG91dGZpbGUubWFlPic=

>  <r_epik_Ionization_Penalty>  (231) 
0.000413896

>  <r_epik_Ionization_Penalty_Charging>  (231) 
0.00041389

>  <r_epik_Ionization_Penalty_Neutral>  (231) 
5.65846e-09

>  <r_epik_State_Penalty>  (231) 
0.000254251

>  <r_epik_Charging_Adjusted_Penalty>  (231) 
0.000668141

>  <i_epik_Tot_Q>  (231) 
1

>  <i_epik_Tot_abs_Q>  (231) 
3

>  <s_lp_Force_Field>  (231) 
OPLS3e

>  <r_lp_Energy>  (231) 
24.7382

>  <b_lp_Chiralities_Consistent>  (231) 
1

>  <s_lp_Variant>  (231) 
59:0-1

>  <s_i_glide_gridfile>  (231) 
pfpi4k_grid

>  <i_i_glide_lignum>  (231) 
4

>  <i_i_glide_rotatable_bonds>  (231) 
4

>  <r_i_docking_score>  (231) 
-3.7349

>  <r_i_glide_ligand_efficiency>  (231) 
-0.186745

>  <r_i_glide_ligand_efficiency_sa>  (231) 
-0.506904

>  <r_i_glide_ligand_efficiency_ln>  (231) 
-0.934723

>  <r_i_glide_gscore>  (231) 
-3.7349

>  <r_i_glide_lipo>  (231) 
-0.281675

>  <r_i_glide_hbond>  (231) 
-0.245921

>  <r_i_glide_metal>  (231) 
-0

>  <r_i_glide_rewards>  (231) 
-1.61003

>  <r_i_glide_evdw>  (231) 
-20.9386

>  <r_i_glide_ecoul>  (231) 
-6.92273

>  <r_i_glide_erotb>  (231) 
0.693906

>  <r_i_glide_esite>  (231) 
-0.205847

>  <r_i_glide_emodel>  (231) 
-38.0263

>  <r_i_glide_energy>  (231) 
-27.8613

>  <r_i_glide_einternal>  (231) 
0.807248

>  <r_i_glide_intrahb_reward>  (231) 
-0

>  <i_i_glide_confnum>  (231) 
6

>  <i_i_glide_posenum>  (231) 
12

>  <r_i_glide_eff_state_penalty>  (231) 
0

>  <ligand_id>  (231) 
59

>  <original_smiles>  (231) 
O=[N+]([O-])c1cnn2ncnc(OCC3CCNCC3)c12

>  <smiles>  (231) 
[H]c1nc(OC([H])([H])C2([H])C([H])([H])C([H])([H])[N+]([H])([H])C([H])([H])C2([H])[H])c2c([N+](=O)[O-])c([H])nn2n1

$$$$
59:0:2
     RDKit          3D

 35 37  0  0  1  0  0  0  0  0999 V2000
   -1.8109   -1.2988    5.6773 O   0  0  0  0  0  0  0  0  0  0  0  0
   -0.9858   -2.1987    5.6842 N   0  0  0  0  0  0  0  0  0  0  0  0
   -1.0204   -3.1460    6.4618 O   0  0  0  0  0  0  0  0  0  0  0  0
    0.1039   -2.0937    4.7018 C   0  0  0  0  0  0  0  0  0  0  0  0
    0.5691   -0.8995    4.0718 C   0  0  0  0  0  0  0  0  0  0  0  0
    1.5650   -1.1169    3.2001 N   0  0  0  0  0  0  0  0  0  0  0  0
    1.8105   -2.4629    3.2041 N   0  0  0  0  0  0  0  0  0  0  0  0
    2.7141   -3.0798    2.4591 N   0  0  0  0  0  0  0  0  0  0  0  0
    2.7737   -4.4130    2.7000 C   0  0  0  0  0  0  0  0  0  0  0  0
    2.0171   -5.1315    3.5670 N   0  0  0  0  0  0  0  0  0  0  0  0
    1.0735   -4.4628    4.2777 C   0  0  0  0  0  0  0  0  0  0  0  0
    0.2277   -5.1866    5.0983 O   0  0  0  0  0  0  0  0  0  0  0  0
    0.5053   -6.5682    5.3394 C   0  0  0  0  0  0  0  0  0  0  0  0
    0.2526   -7.4832    4.1137 C   0  0  0  0  0  0  0  0  0  0  0  0
   -1.2492   -7.6400    3.8312 C   0  0  0  0  0  0  0  0  0  0  0  0
   -1.4619   -8.5633    2.6214 C   0  0  0  0  0  0  0  0  0  0  0  0
   -0.8046   -9.8560    2.8717 N   0  0  0  0  0  0  0  0  0  0  0  0
    0.6548   -9.7401    3.0579 C   0  0  0  0  0  0  0  0  0  0  0  0
    0.9393   -8.8510    4.2802 C   0  0  0  0  0  0  0  0  0  0  0  0
    0.9597   -3.0541    4.1136 C   0  0  0  0  0  0  0  0  0  0  0  0
    0.2185    0.1061    4.2366 H   0  0  0  0  0  0  0  0  0  0  0  0
    3.4683   -4.9874    2.0988 H   0  0  0  0  0  0  0  0  0  0  0  0
    1.5211   -6.6755    5.7184 H   0  0  0  0  0  0  0  0  0  0  0  0
   -0.1234   -6.9103    6.1651 H   0  0  0  0  0  0  0  0  0  0  0  0
    0.6811   -7.0670    3.2013 H   0  0  0  0  0  0  0  0  0  0  0  0
   -1.7681   -8.0408    4.7028 H   0  0  0  0  0  0  0  0  0  0  0  0
   -1.6825   -6.6621    3.6268 H   0  0  0  0  0  0  0  0  0  0  0  0
   -2.5249   -8.7119    2.4347 H   0  0  0  0  0  0  0  0  0  0  0  0
   -1.0391   -8.1199    1.7138 H   0  0  0  0  0  0  0  0  0  0  0  0
   -1.2047  -10.2577    3.7191 H   0  0  0  0  0  0  0  0  0  0  0  0
    1.1022  -10.7254    3.1808 H   0  0  0  0  0  0  0  0  0  0  0  0
    1.0964   -9.3088    2.1545 H   0  0  0  0  0  0  0  0  0  0  0  0
    2.0184   -8.7120    4.3771 H   0  0  0  0  0  0  0  0  0  0  0  0
    0.6050   -9.3511    5.1904 H   0  0  0  0  0  0  0  0  0  0  0  0
   -0.9799  -10.4807    2.0929 H   0  0  0  0  0  0  0  0  0  0  0  0
  1  2  2  0
  2  3  1  0
  2  4  1  0
  4 20  2  0
  4  5  1  0
  5  6  2  0
  5 21  1  0
  6  7  1  0
  7 20  1  0
  7  8  1  0
  8  9  2  0
  9 10  1  0
  9 22  1  0
 10 11  2  0
 11 12  1  0
 11 20  1  0
 12 13  1  0
 13 14  1  0
 13 23  1  0
 13 24  1  0
 14 19  1  0
 14 15  1  0
 14 25  1  0
 15 16  1  0
 15 26  1  0
 15 27  1  0
 16 17  1  0
 16 28  1  0
 16 29  1  0
 17 18  1  0
 17 30  1  0
 17 35  1  0
 18 19  1  0
 18 31  1  0
 18 32  1  0
 19 33  1  0
 19 34  1  0
M  CHG  3   2   1   3  -1  17   1
M  END
>  <i_m_ct_stereo_status>  (232) 
1

>  <s_m_source_file>  (232) 
/var/tmp/pbs.5076255.sched01/tmpwmgilt76/96rd2vfdyj.sdf

>  <i_m_source_file_index>  (232) 
4

>  <i_lp_mmshare_version>  (232) 
48012

>  <i_f3d_flags>  (232) 
0

>  <s_epik_input>  (232) 
Tz1bTitdKFtPLV0pYyhbY0hdbjEpYyhuMTIpYyhuW2NIXW4yKU9bQ0gyXVtDSF0zW0NIMl1bQ0gyXVtOSF1bQ0gyXVtDSDJdMw==

>  <s_epik_cmdline>  (232) 
J2VwaWtfcHl0aG9uJywgJy1waHQnLCAnMi4wJywgJy1waCcsICc3LjAnLCAnLXRuJywgJzgnLCAnLW1hJywgJzIwMCcsICctaW1hZScsICc8aW5maWxlLm1hZT4nLCAnLW9tYWUnLCAnPG91dGZpbGUubWFlPic=

>  <r_epik_Ionization_Penalty>  (232) 
0.000413896

>  <r_epik_Ionization_Penalty_Charging>  (232) 
0.00041389

>  <r_epik_Ionization_Penalty_Neutral>  (232) 
5.65846e-09

>  <r_epik_State_Penalty>  (232) 
0.000254251

>  <r_epik_Charging_Adjusted_Penalty>  (232) 
0.000668141

>  <i_epik_Tot_Q>  (232) 
1

>  <i_epik_Tot_abs_Q>  (232) 
3

>  <s_lp_Force_Field>  (232) 
OPLS3e

>  <r_lp_Energy>  (232) 
24.7382

>  <b_lp_Chiralities_Consistent>  (232) 
1

>  <s_lp_Variant>  (232) 
59:0-1

>  <s_i_glide_gridfile>  (232) 
pfpi4k_grid

>  <i_i_glide_lignum>  (232) 
4

>  <i_i_glide_rotatable_bonds>  (232) 
4

>  <r_i_docking_score>  (232) 
-3.14236

>  <r_i_glide_ligand_efficiency>  (232) 
-0.157118

>  <r_i_glide_ligand_efficiency_sa>  (232) 
-0.426484

>  <r_i_glide_ligand_efficiency_ln>  (232) 
-0.78643

>  <r_i_glide_gscore>  (232) 
-3.14236

>  <r_i_glide_lipo>  (232) 
-0.0799618

>  <r_i_glide_hbond>  (232) 
-0.2

>  <r_i_glide_metal>  (232) 
-0

>  <r_i_glide_rewards>  (232) 
-1.52211

>  <r_i_glide_evdw>  (232) 
-19.6823

>  <r_i_glide_ecoul>  (232) 
-5.83055

>  <r_i_glide_erotb>  (232) 
0.693906

>  <r_i_glide_esite>  (232) 
-0.175497

>  <r_i_glide_emodel>  (232) 
-33.3284

>  <r_i_glide_energy>  (232) 
-25.5129

>  <r_i_glide_einternal>  (232) 
1.22447

>  <r_i_glide_intrahb_reward>  (232) 
-0

>  <i_i_glide_confnum>  (232) 
6

>  <i_i_glide_posenum>  (232) 
3

>  <r_i_glide_eff_state_penalty>  (232) 
0

>  <ligand_id>  (232) 
59

>  <original_smiles>  (232) 
O=[N+]([O-])c1cnn2ncnc(OCC3CCNCC3)c12

>  <smiles>  (232) 
[H]c1nc(OC([H])([H])C2([H])C([H])([H])C([H])([H])[N+]([H])([H])C([H])([H])C2([H])[H])c2c([N+](=O)[O-])c([H])nn2n1

$$$$
60:0:0
     RDKit          3D

 45 49  0  0  1  0  0  0  0  0999 V2000
    3.3009   -1.9517   -2.5985 C   0  0  0  0  0  0  0  0  0  0  0  0
    4.3299   -2.7496   -1.7559 C   0  0  0  0  0  0  0  0  0  0  0  0
    5.0319   -3.5727   -2.8773 C   0  0  0  0  0  0  0  0  0  0  0  0
    5.2715   -1.8454   -0.8809 C   0  0  2  0  0  0  0  0  0  0  0  0
    6.6154   -2.5918   -0.7187 C   0  0  0  0  0  0  0  0  0  0  0  0
    6.3631   -3.9549   -0.0279 C   0  0  1  0  0  0  0  0  0  0  0  0
    7.2999   -4.0904    1.0266 O   0  0  0  0  0  0  0  0  0  0  0  0
    4.8858   -4.1684    0.4255 C   0  0  1  0  0  0  0  0  0  0  0  0
    4.7411   -5.3082    1.6098 C   0  0  0  0  0  0  0  0  0  0  0  0
    3.9668   -4.8452    3.0125 C   0  0  0  0  0  0  0  0  0  0  0  0
    2.9679   -3.5508    2.8897 C   0  0  0  0  0  0  0  0  0  0  0  0
    2.9782   -3.5207    1.4205 N   0  0  1  0  0  0  0  0  0  0  0  0
    2.3261   -4.7040    1.0842 O   0  0  0  0  0  0  0  0  0  0  0  0
    2.6833   -2.7185    0.2626 C   0  0  1  0  0  0  0  0  0  0  0  0
    3.1982   -1.3158    0.5337 C   0  0  0  0  0  0  0  0  0  0  0  0
    4.6558   -1.6504    0.5766 C   0  0  2  0  0  0  0  0  0  0  0  0
    5.3831   -0.5843    1.4152 C   0  0  0  0  0  0  0  0  0  0  0  0
    6.6011   -1.0553    1.9478 O   0  0  0  0  0  0  0  0  0  0  0  0
    4.5121   -3.0744    1.2534 C   0  0  2  0  0  0  0  0  0  0  0  0
    3.7082   -3.6512   -0.6429 C   0  0  1  0  0  0  0  0  0  0  0  0
    3.8041   -1.2279   -3.2415 H   0  0  0  0  0  0  0  0  0  0  0  0
    2.5848   -1.3880   -2.0283 H   0  0  0  0  0  0  0  0  0  0  0  0
    2.7087   -2.6041   -3.2459 H   0  0  0  0  0  0  0  0  0  0  0  0
    5.6646   -4.3660   -2.5140 H   0  0  0  0  0  0  0  0  0  0  0  0
    5.6460   -2.9302   -3.5113 H   0  0  0  0  0  0  0  0  0  0  0  0
    4.3162   -4.0777   -3.5277 H   0  0  0  0  0  0  0  0  0  0  0  0
    5.4266   -0.8864   -1.3781 H   0  0  0  0  0  0  0  0  0  0  0  0
    7.1217   -2.7464   -1.6706 H   0  0  0  0  0  0  0  0  0  0  0  0
    7.3277   -1.9928   -0.1614 H   0  0  0  0  0  0  0  0  0  0  0  0
    6.5851   -4.7446   -0.7204 H   0  0  0  0  0  0  0  0  0  0  0  0
    7.1110   -3.4342    1.6795 H   0  0  0  0  0  0  0  0  0  0  0  0
    4.2055   -6.1555    1.1768 H   0  0  0  0  0  0  0  0  0  0  0  0
    5.7040   -5.7530    1.8668 H   0  0  0  0  0  0  0  0  0  0  0  0
    3.4126   -5.7015    3.4042 H   0  0  0  0  0  0  0  0  0  0  0  0
    4.7290   -4.6221    3.7646 H   0  0  0  0  0  0  0  0  0  0  0  0
    1.9544   -3.7408    3.2428 H   0  0  0  0  0  0  0  0  0  0  0  0
    3.3436   -2.6108    3.3007 H   0  0  0  0  0  0  0  0  0  0  0  0
    1.6319   -2.7925    0.0226 H   0  0  0  0  0  0  0  0  0  0  0  0
    2.9797   -0.5744   -0.2236 H   0  0  0  0  0  0  0  0  0  0  0  0
    2.7885   -0.9355    1.4723 H   0  0  0  0  0  0  0  0  0  0  0  0
    5.5697    0.3013    0.7982 H   0  0  0  0  0  0  0  0  0  0  0  0
    4.7730   -0.2486    2.2556 H   0  0  0  0  0  0  0  0  0  0  0  0
    7.1724   -0.3091    2.0819 H   0  0  0  0  0  0  0  0  0  0  0  0
    5.1002   -3.0174    2.1696 H   0  0  0  0  0  0  0  0  0  0  0  0
    3.1900   -4.4861   -1.1086 H   0  0  0  0  0  0  0  0  0  0  0  0
  1  2  1  0
  1 21  1  0
  1 22  1  0
  1 23  1  0
  2 20  1  0
  2  3  1  0
  2  4  1  0
  3 24  1  0
  3 25  1  0
  3 26  1  0
  4 16  1  0
  4  5  1  0
  4 27  1  6
  5  6  1  0
  5 28  1  0
  5 29  1  0
  6  7  1  0
  6  8  1  0
  6 30  1  6
  7 31  1  0
  8 19  1  0
  8 20  1  0
  8  9  1  1
  9 10  1  0
  9 32  1  0
  9 33  1  0
 10 11  1  0
 10 34  1  0
 10 35  1  0
 11 12  1  0
 11 36  1  0
 11 37  1  0
 12 19  1  0
 12 13  1  6
 12 14  1  0
 14 15  1  0
 14 20  1  0
 14 38  1  6
 15 16  1  0
 15 39  1  0
 15 40  1  0
 16 17  1  1
 16 19  1  0
 17 18  1  0
 17 41  1  0
 17 42  1  0
 18 43  1  0
 19 44  1  1
 20 45  1  6
M  CHG  2  12   1  13  -1
M  END
>  <i_m_ct_stereo_status>  (233) 
1

>  <s_m_source_file>  (233) 
/var/tmp/pbs.5076255.sched01/tmpwmgilt76/96rd2vfdyj.sdf

>  <i_m_source_file_index>  (233) 
5

>  <i_lp_mmshare_version>  (233) 
48012

>  <i_f3d_flags>  (233) 
0

>  <s_epik_input>  (233) 
W09IXVtDQEBIXTFbQ0gyXVtDQEhdKFtDQF0yKFtDSDJdMylbQ0gyXVtPSF0pQyhbQ0gzXSkoW0NIM10pW0NAQEhdNFtDQEhdM1tOK10oW08tXSkoW0NASF0yW0NAXTE0NSlbQ0gyXVtDSDJdW0NIMl01

>  <s_epik_cmdline>  (233) 
J2VwaWtfcHl0aG9uJywgJy1waHQnLCAnMi4wJywgJy1waCcsICc3LjAnLCAnLXRuJywgJzgnLCAnLW1hJywgJzIwMCcsICctaW1hZScsICc8aW5maWxlLm1hZT4nLCAnLW9tYWUnLCAnPG91dGZpbGUubWFlPic=

>  <r_epik_Ionization_Penalty>  (233) 
0.0607989

>  <r_epik_Ionization_Penalty_Charging>  (233) 
0.0607986

>  <r_epik_Ionization_Penalty_Neutral>  (233) 
3.11307e-07

>  <r_epik_State_Penalty>  (233) 
0.0527323

>  <r_epik_Charging_Adjusted_Penalty>  (233) 
0.113531

>  <i_epik_Tot_Q>  (233) 
0

>  <i_epik_Tot_abs_Q>  (233) 
2

>  <s_lp_Force_Field>  (233) 
OPLS3e

>  <r_lp_Energy>  (233) 
220.761

>  <b_lp_Chiralities_Consistent>  (233) 
1

>  <s_lp_Variant>  (233) 
60:0-1

>  <s_i_glide_gridfile>  (233) 
pfpi4k_grid

>  <i_i_glide_lignum>  (233) 
5

>  <i_i_glide_rotatable_bonds>  (233) 
3

>  <r_i_docking_score>  (233) 
-3.53517

>  <r_i_glide_ligand_efficiency>  (233) 
-0.176759

>  <r_i_glide_ligand_efficiency_sa>  (233) 
-0.479796

>  <r_i_glide_ligand_efficiency_ln>  (233) 
-0.884737

>  <r_i_glide_gscore>  (233) 
-3.53517

>  <r_i_glide_lipo>  (233) 
-0.434813

>  <r_i_glide_hbond>  (233) 
-0.00276525

>  <r_i_glide_metal>  (233) 
-0

>  <r_i_glide_rewards>  (233) 
-2.00426

>  <r_i_glide_evdw>  (233) 
-12.6629

>  <r_i_glide_ecoul>  (233) 
-4.59244

>  <r_i_glide_erotb>  (233) 
0.231159

>  <r_i_glide_esite>  (233) 
-0.0024754

>  <r_i_glide_emodel>  (233) 
-24.8027

>  <r_i_glide_energy>  (233) 
-17.2554

>  <r_i_glide_einternal>  (233) 
3.01768

>  <r_i_glide_intrahb_reward>  (233) 
-0.5

>  <i_i_glide_confnum>  (233) 
6

>  <i_i_glide_posenum>  (233) 
26

>  <r_i_glide_eff_state_penalty>  (233) 
0

>  <ligand_id>  (233) 
60

>  <original_smiles>  (233) 
CC1(C)C2CC(O)C34CCC[N+]5([O-])C(CC2(CO)C35)C14

>  <smiles>  (233) 
[H]OC([H])([H])C12C([H])([H])C3([H])C4([H])C(C([H])([H])[H])(C([H])([H])[H])C1([H])C([H])([H])C([H])(O[H])C41C([H])([H])C([H])([H])C([H])([H])[N+]3([O-])C21[H]

$$$$
60:0:1
     RDKit          3D

 45 49  0  0  1  0  0  0  0  0999 V2000
    4.1682   -1.3291   -1.8294 C   0  0  0  0  0  0  0  0  0  0  0  0
    4.9133   -2.4816   -1.0959 C   0  0  0  0  0  0  0  0  0  0  0  0
    5.9498   -2.9184   -2.1801 C   0  0  0  0  0  0  0  0  0  0  0  0
    5.5284   -2.0473    0.2803 C   0  0  2  0  0  0  0  0  0  0  0  0
    6.7567   -2.9437    0.5658 C   0  0  0  0  0  0  0  0  0  0  0  0
    6.3523   -4.4405    0.5528 C   0  0  1  0  0  0  0  0  0  0  0  0
    6.9239   -5.0413    1.7007 O   0  0  0  0  0  0  0  0  0  0  0  0
    4.8036   -4.6350    0.4538 C   0  0  1  0  0  0  0  0  0  0  0  0
    4.3224   -6.0974    1.0369 C   0  0  0  0  0  0  0  0  0  0  0  0
    3.1596   -6.0922    2.2275 C   0  0  0  0  0  0  0  0  0  0  0  0
    2.2249   -4.7500    2.3217 C   0  0  0  0  0  0  0  0  0  0  0  0
    2.6777   -4.1889    1.0390 N   0  0  1  0  0  0  0  0  0  0  0  0
    2.1653   -5.0985    0.1272 O   0  0  0  0  0  0  0  0  0  0  0  0
    2.7228   -3.0056    0.2130 C   0  0  1  0  0  0  0  0  0  0  0  0
    3.0968   -1.8355    1.1194 C   0  0  0  0  0  0  0  0  0  0  0  0
    4.4869   -2.3004    1.4567 C   0  0  2  0  0  0  0  0  0  0  0  0
    4.9225   -1.7059    2.8163 C   0  0  0  0  0  0  0  0  0  0  0  0
    5.1208   -0.3098    2.7181 O   0  0  0  0  0  0  0  0  0  0  0  0
    4.1847   -3.8622    1.4854 C   0  0  2  0  0  0  0  0  0  0  0  0
    3.9981   -3.6530   -0.6316 C   0  0  1  0  0  0  0  0  0  0  0  0
    4.8262   -0.4700   -1.9677 H   0  0  0  0  0  0  0  0  0  0  0  0
    3.2652   -0.9640   -1.3567 H   0  0  0  0  0  0  0  0  0  0  0  0
    3.8405   -1.6377   -2.8237 H   0  0  0  0  0  0  0  0  0  0  0  0
    6.4511   -3.8586   -1.9868 H   0  0  0  0  0  0  0  0  0  0  0  0
    6.7256   -2.1642   -2.3133 H   0  0  0  0  0  0  0  0  0  0  0  0
    5.4797   -3.0629   -3.1546 H   0  0  0  0  0  0  0  0  0  0  0  0
    5.8357   -1.0024    0.2455 H   0  0  0  0  0  0  0  0  0  0  0  0
    7.5626   -2.7675   -0.1456 H   0  0  0  0  0  0  0  0  0  0  0  0
    7.1820   -2.6637    1.5230 H   0  0  0  0  0  0  0  0  0  0  0  0
    6.8136   -4.9603   -0.2810 H   0  0  0  0  0  0  0  0  0  0  0  0
    6.5176   -4.6805    2.4730 H   0  0  0  0  0  0  0  0  0  0  0  0
    3.9582   -6.6718    0.1816 H   0  0  0  0  0  0  0  0  0  0  0  0
    5.1641   -6.7033    1.3725 H   0  0  0  0  0  0  0  0  0  0  0  0
    2.5243   -6.9691    2.0874 H   0  0  0  0  0  0  0  0  0  0  0  0
    3.6493   -6.2434    3.1908 H   0  0  0  0  0  0  0  0  0  0  0  0
    1.1591   -4.9635    2.2729 H   0  0  0  0  0  0  0  0  0  0  0  0
    2.4392   -4.0660    3.1448 H   0  0  0  0  0  0  0  0  0  0  0  0
    1.7994   -2.8979   -0.3426 H   0  0  0  0  0  0  0  0  0  0  0  0
    3.0799   -0.8465    0.6693 H   0  0  0  0  0  0  0  0  0  0  0  0
    2.4326   -1.7926    1.9845 H   0  0  0  0  0  0  0  0  0  0  0  0
    4.1680   -1.8993    3.5780 H   0  0  0  0  0  0  0  0  0  0  0  0
    5.8383   -2.1665    3.1778 H   0  0  0  0  0  0  0  0  0  0  0  0
    4.2919    0.1061    2.5241 H   0  0  0  0  0  0  0  0  0  0  0  0
    4.4751   -4.1821    2.4907 H   0  0  0  0  0  0  0  0  0  0  0  0
    3.6674   -4.2173   -1.5083 H   0  0  0  0  0  0  0  0  0  0  0  0
  1  2  1  0
  1 21  1  0
  1 22  1  0
  1 23  1  0
  2 20  1  0
  2  3  1  0
  2  4  1  0
  3 24  1  0
  3 25  1  0
  3 26  1  0
  4 16  1  0
  4  5  1  0
  4 27  1  6
  5  6  1  0
  5 28  1  0
  5 29  1  0
  6  7  1  0
  6  8  1  0
  6 30  1  6
  7 31  1  0
  8 19  1  0
  8 20  1  0
  8  9  1  1
  9 10  1  0
  9 32  1  0
  9 33  1  0
 10 11  1  0
 10 34  1  0
 10 35  1  0
 11 12  1  0
 11 36  1  0
 11 37  1  0
 12 19  1  0
 12 13  1  6
 12 14  1  0
 14 15  1  0
 14 20  1  0
 14 38  1  6
 15 16  1  0
 15 39  1  0
 15 40  1  0
 16 17  1  1
 16 19  1  0
 17 18  1  0
 17 41  1  0
 17 42  1  0
 18 43  1  0
 19 44  1  1
 20 45  1  6
M  CHG  2  12   1  13  -1
M  END
>  <i_m_ct_stereo_status>  (234) 
1

>  <s_m_source_file>  (234) 
/var/tmp/pbs.5076255.sched01/tmpwmgilt76/96rd2vfdyj.sdf

>  <i_m_source_file_index>  (234) 
5

>  <i_lp_mmshare_version>  (234) 
48012

>  <i_f3d_flags>  (234) 
0

>  <s_epik_input>  (234) 
W09IXVtDQEBIXTFbQ0gyXVtDQEhdKFtDQF0yKFtDSDJdMylbQ0gyXVtPSF0pQyhbQ0gzXSkoW0NIM10pW0NAQEhdNFtDQEhdM1tOK10oW08tXSkoW0NASF0yW0NAXTE0NSlbQ0gyXVtDSDJdW0NIMl01

>  <s_epik_cmdline>  (234) 
J2VwaWtfcHl0aG9uJywgJy1waHQnLCAnMi4wJywgJy1waCcsICc3LjAnLCAnLXRuJywgJzgnLCAnLW1hJywgJzIwMCcsICctaW1hZScsICc8aW5maWxlLm1hZT4nLCAnLW9tYWUnLCAnPG91dGZpbGUubWFlPic=

>  <r_epik_Ionization_Penalty>  (234) 
0.0607989

>  <r_epik_Ionization_Penalty_Charging>  (234) 
0.0607986

>  <r_epik_Ionization_Penalty_Neutral>  (234) 
3.11307e-07

>  <r_epik_State_Penalty>  (234) 
0.0527323

>  <r_epik_Charging_Adjusted_Penalty>  (234) 
0.113531

>  <i_epik_Tot_Q>  (234) 
0

>  <i_epik_Tot_abs_Q>  (234) 
2

>  <s_lp_Force_Field>  (234) 
OPLS3e

>  <r_lp_Energy>  (234) 
220.761

>  <b_lp_Chiralities_Consistent>  (234) 
1

>  <s_lp_Variant>  (234) 
60:0-1

>  <s_i_glide_gridfile>  (234) 
pfpi4k_grid

>  <i_i_glide_lignum>  (234) 
5

>  <i_i_glide_rotatable_bonds>  (234) 
3

>  <r_i_docking_score>  (234) 
-3.04334

>  <r_i_glide_ligand_efficiency>  (234) 
-0.152167

>  <r_i_glide_ligand_efficiency_sa>  (234) 
-0.413044

>  <r_i_glide_ligand_efficiency_ln>  (234) 
-0.761647

>  <r_i_glide_gscore>  (234) 
-3.04334

>  <r_i_glide_lipo>  (234) 
-0.596056

>  <r_i_glide_hbond>  (234) 
-0.0405735

>  <r_i_glide_metal>  (234) 
-0

>  <r_i_glide_rewards>  (234) 
-1.50426

>  <r_i_glide_evdw>  (234) 
-16.4138

>  <r_i_glide_ecoul>  (234) 
-1.95287

>  <r_i_glide_erotb>  (234) 
0.231159

>  <r_i_glide_esite>  (234) 
-0.0199793

>  <r_i_glide_emodel>  (234) 
-21.9646

>  <r_i_glide_energy>  (234) 
-18.3667

>  <r_i_glide_einternal>  (234) 
0.0146998

>  <r_i_glide_intrahb_reward>  (234) 
-0

>  <i_i_glide_confnum>  (234) 
1

>  <i_i_glide_posenum>  (234) 
9

>  <r_i_glide_eff_state_penalty>  (234) 
0

>  <ligand_id>  (234) 
60

>  <original_smiles>  (234) 
CC1(C)C2CC(O)C34CCC[N+]5([O-])C(CC2(CO)C35)C14

>  <smiles>  (234) 
[H]OC([H])([H])C12C([H])([H])C3([H])C4([H])C(C([H])([H])[H])(C([H])([H])[H])C1([H])C([H])([H])C([H])(O[H])C41C([H])([H])C([H])([H])C([H])([H])[N+]3([O-])C21[H]

$$$$
60:0:2
     RDKit          3D

 45 49  0  0  1  0  0  0  0  0999 V2000
    3.3868   -1.8346   -2.4925 C   0  0  0  0  0  0  0  0  0  0  0  0
    4.4559   -2.6205   -1.6857 C   0  0  0  0  0  0  0  0  0  0  0  0
    5.1320   -3.4432   -2.8297 C   0  0  0  0  0  0  0  0  0  0  0  0
    5.4190   -1.7196   -0.8386 C   0  0  2  0  0  0  0  0  0  0  0  0
    6.7704   -2.4584   -0.7019 C   0  0  0  0  0  0  0  0  0  0  0  0
    6.5458   -3.8368   -0.0332 C   0  0  1  0  0  0  0  0  0  0  0  0
    7.5171   -3.9529    0.9904 O   0  0  0  0  0  0  0  0  0  0  0  0
    5.0878   -4.0469    0.4636 C   0  0  1  0  0  0  0  0  0  0  0  0
    4.9998   -5.1820    1.6517 C   0  0  0  0  0  0  0  0  0  0  0  0
    4.2698   -4.7183    3.0764 C   0  0  0  0  0  0  0  0  0  0  0  0
    3.2598   -3.4273    2.9845 C   0  0  0  0  0  0  0  0  0  0  0  0
    3.2319   -3.4174    1.5198 N   0  0  1  0  0  0  0  0  0  0  0  0
    2.5793   -4.5999    1.2071 O   0  0  0  0  0  0  0  0  0  0  0  0
    2.8732   -2.6067    0.3886 C   0  0  1  0  0  0  0  0  0  0  0  0
    3.3713   -1.1998    0.6188 C   0  0  0  0  0  0  0  0  0  0  0  0
    4.8434   -1.5285    0.6340 C   0  0  2  0  0  0  0  0  0  0  0  0
    5.6319   -0.4643    1.4227 C   0  0  0  0  0  0  0  0  0  0  0  0
    5.1174   -0.2548    2.7232 O   0  0  0  0  0  0  0  0  0  0  0  0
    4.7552   -2.9557    1.3011 C   0  0  2  0  0  0  0  0  0  0  0  0
    3.8705   -3.5267   -0.5605 C   0  0  1  0  0  0  0  0  0  0  0  0
    3.8625   -1.1026   -3.1461 H   0  0  0  0  0  0  0  0  0  0  0  0
    2.6452   -1.2938   -1.9205 H   0  0  0  0  0  0  0  0  0  0  0  0
    2.7943   -2.4962   -3.1325 H   0  0  0  0  0  0  0  0  0  0  0  0
    5.7905   -4.2319   -2.4975 H   0  0  0  0  0  0  0  0  0  0  0  0
    5.7132   -2.7967   -3.4900 H   0  0  0  0  0  0  0  0  0  0  0  0
    4.3968   -3.9562   -3.4560 H   0  0  0  0  0  0  0  0  0  0  0  0
    5.5575   -0.7633   -1.3382 H   0  0  0  0  0  0  0  0  0  0  0  0
    7.2721   -2.5914   -1.6614 H   0  0  0  0  0  0  0  0  0  0  0  0
    7.4665   -1.8639   -0.1165 H   0  0  0  0  0  0  0  0  0  0  0  0
    6.7420   -4.6556   -0.7191 H   0  0  0  0  0  0  0  0  0  0  0  0
    7.4172   -4.8014    1.3899 H   0  0  0  0  0  0  0  0  0  0  0  0
    4.4525   -6.0324    1.2387 H   0  0  0  0  0  0  0  0  0  0  0  0
    5.9650   -5.6374    1.8822 H   0  0  0  0  0  0  0  0  0  0  0  0
    3.7367   -5.5769    3.4850 H   0  0  0  0  0  0  0  0  0  0  0  0
    5.0547   -4.4934    3.8044 H   0  0  0  0  0  0  0  0  0  0  0  0
    2.2603   -3.6304    3.3694 H   0  0  0  0  0  0  0  0  0  0  0  0
    3.6499   -2.4926    3.3842 H   0  0  0  0  0  0  0  0  0  0  0  0
    1.8118   -2.6875    0.1821 H   0  0  0  0  0  0  0  0  0  0  0  0
    3.1172   -0.4529   -0.1283 H   0  0  0  0  0  0  0  0  0  0  0  0
    2.9569   -0.8371    1.5567 H   0  0  0  0  0  0  0  0  0  0  0  0
    6.6773   -0.7369    1.5578 H   0  0  0  0  0  0  0  0  0  0  0  0
    5.5992    0.4845    0.8690 H   0  0  0  0  0  0  0  0  0  0  0  0
    4.2347    0.0706    2.6465 H   0  0  0  0  0  0  0  0  0  0  0  0
    5.3803   -2.8895    2.1901 H   0  0  0  0  0  0  0  0  0  0  0  0
    3.3509   -4.3648   -1.0158 H   0  0  0  0  0  0  0  0  0  0  0  0
  1  2  1  0
  1 21  1  0
  1 22  1  0
  1 23  1  0
  2 20  1  0
  2  3  1  0
  2  4  1  0
  3 24  1  0
  3 25  1  0
  3 26  1  0
  4 16  1  0
  4  5  1  0
  4 27  1  6
  5  6  1  0
  5 28  1  0
  5 29  1  0
  6  7  1  0
  6  8  1  0
  6 30  1  6
  7 31  1  0
  8 19  1  0
  8 20  1  0
  8  9  1  1
  9 10  1  0
  9 32  1  0
  9 33  1  0
 10 11  1  0
 10 34  1  0
 10 35  1  0
 11 12  1  0
 11 36  1  0
 11 37  1  0
 12 19  1  0
 12 13  1  6
 12 14  1  0
 14 15  1  0
 14 20  1  0
 14 38  1  6
 15 16  1  0
 15 39  1  0
 15 40  1  0
 16 17  1  1
 16 19  1  0
 17 18  1  0
 17 41  1  0
 17 42  1  0
 18 43  1  0
 19 44  1  1
 20 45  1  6
M  CHG  2  12   1  13  -1
M  END
>  <i_m_ct_stereo_status>  (235) 
1

>  <s_m_source_file>  (235) 
/var/tmp/pbs.5076255.sched01/tmpwmgilt76/96rd2vfdyj.sdf

>  <i_m_source_file_index>  (235) 
5

>  <i_lp_mmshare_version>  (235) 
48012

>  <i_f3d_flags>  (235) 
0

>  <s_epik_input>  (235) 
W09IXVtDQEBIXTFbQ0gyXVtDQEhdKFtDQF0yKFtDSDJdMylbQ0gyXVtPSF0pQyhbQ0gzXSkoW0NIM10pW0NAQEhdNFtDQEhdM1tOK10oW08tXSkoW0NASF0yW0NAXTE0NSlbQ0gyXVtDSDJdW0NIMl01

>  <s_epik_cmdline>  (235) 
J2VwaWtfcHl0aG9uJywgJy1waHQnLCAnMi4wJywgJy1waCcsICc3LjAnLCAnLXRuJywgJzgnLCAnLW1hJywgJzIwMCcsICctaW1hZScsICc8aW5maWxlLm1hZT4nLCAnLW9tYWUnLCAnPG91dGZpbGUubWFlPic=

>  <r_epik_Ionization_Penalty>  (235) 
0.0607989

>  <r_epik_Ionization_Penalty_Charging>  (235) 
0.0607986

>  <r_epik_Ionization_Penalty_Neutral>  (235) 
3.11307e-07

>  <r_epik_State_Penalty>  (235) 
0.0527323

>  <r_epik_Charging_Adjusted_Penalty>  (235) 
0.113531

>  <i_epik_Tot_Q>  (235) 
0

>  <i_epik_Tot_abs_Q>  (235) 
2

>  <s_lp_Force_Field>  (235) 
OPLS3e

>  <r_lp_Energy>  (235) 
220.761

>  <b_lp_Chiralities_Consistent>  (235) 
1

>  <s_lp_Variant>  (235) 
60:0-1

>  <s_i_glide_gridfile>  (235) 
pfpi4k_grid

>  <i_i_glide_lignum>  (235) 
5

>  <i_i_glide_rotatable_bonds>  (235) 
3

>  <r_i_docking_score>  (235) 
-2.98984

>  <r_i_glide_ligand_efficiency>  (235) 
-0.149492

>  <r_i_glide_ligand_efficiency_sa>  (235) 
-0.405784

>  <r_i_glide_ligand_efficiency_ln>  (235) 
-0.748259

>  <r_i_glide_gscore>  (235) 
-2.98984

>  <r_i_glide_lipo>  (235) 
-0.529529

>  <r_i_glide_hbond>  (235) 
-0.0431949

>  <r_i_glide_metal>  (235) 
-0

>  <r_i_glide_rewards>  (235) 
-1.50426

>  <r_i_glide_evdw>  (235) 
-16.716

>  <r_i_glide_ecoul>  (235) 
-2.05476

>  <r_i_glide_erotb>  (235) 
0.231159

>  <r_i_glide_esite>  (235) 
0

>  <r_i_glide_emodel>  (235) 
-21.414

>  <r_i_glide_energy>  (235) 
-18.7707

>  <r_i_glide_einternal>  (235) 
1.65456

>  <r_i_glide_intrahb_reward>  (235) 
-0

>  <i_i_glide_confnum>  (235) 
5

>  <i_i_glide_posenum>  (235) 
11

>  <r_i_glide_eff_state_penalty>  (235) 
0

>  <ligand_id>  (235) 
60

>  <original_smiles>  (235) 
CC1(C)C2CC(O)C34CCC[N+]5([O-])C(CC2(CO)C35)C14

>  <smiles>  (235) 
[H]OC([H])([H])C12C([H])([H])C3([H])C4([H])C(C([H])([H])[H])(C([H])([H])[H])C1([H])C([H])([H])C([H])(O[H])C41C([H])([H])C([H])([H])C([H])([H])[N+]3([O-])C21[H]

$$$$
60:1:0
     RDKit          3D

 45 49  0  0  1  0  0  0  0  0999 V2000
    6.9648   -3.7494   -0.2099 C   0  0  0  0  0  0  0  0  0  0  0  0
    5.9291   -2.6769    0.2645 C   0  0  0  0  0  0  0  0  0  0  0  0
    6.8755   -1.4856    0.6091 C   0  0  0  0  0  0  0  0  0  0  0  0
    4.7917   -2.3562   -0.8078 C   0  0  2  0  0  0  0  0  0  0  0  0
    4.3135   -0.9186   -0.5901 C   0  0  0  0  0  0  0  0  0  0  0  0
    3.8657   -0.7652    0.8745 C   0  0  1  0  0  0  0  0  0  0  0  0
    2.6160   -0.1093    0.8895 O   0  0  0  0  0  0  0  0  0  0  0  0
    3.8127   -2.1436    1.6100 C   0  0  1  0  0  0  0  0  0  0  0  0
    3.4164   -1.9015    3.0769 C   0  0  0  0  0  0  0  0  0  0  0  0
    3.3532   -3.2135    3.8406 C   0  0  0  0  0  0  0  0  0  0  0  0
    2.5406   -4.2270    3.0538 C   0  0  0  0  0  0  0  0  0  0  0  0
    2.8749   -4.3204    1.5656 N   0  0  2  0  0  0  0  0  0  0  0  0
    2.0120   -5.2515    1.0752 O   0  0  0  0  0  0  0  0  0  0  0  0
    4.3367   -4.5352    1.1945 C   0  0  1  0  0  0  0  0  0  0  0  0
    4.1330   -4.6866   -0.3394 C   0  0  0  0  0  0  0  0  0  0  0  0
    3.5289   -3.3050   -0.6012 C   0  0  2  0  0  0  0  0  0  0  0  0
    2.5500   -3.2705   -1.7996 C   0  0  0  0  0  0  0  0  0  0  0  0
    1.3753   -4.0029   -1.5316 O   0  0  0  0  0  0  0  0  0  0  0  0
    2.8249   -3.0059    0.8080 C   0  0  2  0  0  0  0  0  0  0  0  0
    5.0564   -3.1234    1.4864 C   0  0  1  0  0  0  0  0  0  0  0  0
    6.9685   -3.8324   -1.2965 H   0  0  0  0  0  0  0  0  0  0  0  0
    6.7856   -4.7392    0.2057 H   0  0  0  0  0  0  0  0  0  0  0  0
    7.9965   -3.5253    0.0631 H   0  0  0  0  0  0  0  0  0  0  0  0
    6.4304   -0.6527    1.1327 H   0  0  0  0  0  0  0  0  0  0  0  0
    7.3362   -1.0978   -0.2948 H   0  0  0  0  0  0  0  0  0  0  0  0
    7.6837   -1.7938    1.2677 H   0  0  0  0  0  0  0  0  0  0  0  0
    5.1868   -2.4477   -1.8193 H   0  0  0  0  0  0  0  0  0  0  0  0
    5.1203   -0.2338   -0.8183 H   0  0  0  0  0  0  0  0  0  0  0  0
    3.5157   -0.6614   -1.2848 H   0  0  0  0  0  0  0  0  0  0  0  0
    4.5110   -0.0787    1.4173 H   0  0  0  0  0  0  0  0  0  0  0  0
    2.0025   -0.5266    0.2810 H   0  0  0  0  0  0  0  0  0  0  0  0
    4.1277   -1.2328    3.5666 H   0  0  0  0  0  0  0  0  0  0  0  0
    2.4450   -1.4089    3.1270 H   0  0  0  0  0  0  0  0  0  0  0  0
    4.3472   -3.6027    4.0645 H   0  0  0  0  0  0  0  0  0  0  0  0
    2.8727   -3.0469    4.8027 H   0  0  0  0  0  0  0  0  0  0  0  0
    2.6564   -5.2315    3.4621 H   0  0  0  0  0  0  0  0  0  0  0  0
    1.4815   -3.9678    3.0893 H   0  0  0  0  0  0  0  0  0  0  0  0
    4.7299   -5.4135    1.7071 H   0  0  0  0  0  0  0  0  0  0  0  0
    4.9942   -4.9059   -0.9593 H   0  0  0  0  0  0  0  0  0  0  0  0
    3.4676   -5.5002   -0.6065 H   0  0  0  0  0  0  0  0  0  0  0  0
    2.2318   -2.2585   -2.0344 H   0  0  0  0  0  0  0  0  0  0  0  0
    3.0293   -3.6686   -2.6939 H   0  0  0  0  0  0  0  0  0  0  0  0
    0.9731   -4.2382   -2.3582 H   0  0  0  0  0  0  0  0  0  0  0  0
    1.8107   -2.6286    0.7735 H   0  0  0  0  0  0  0  0  0  0  0  0
    5.6718   -3.1519    2.3847 H   0  0  0  0  0  0  0  0  0  0  0  0
  1  2  1  0
  1 21  1  0
  1 22  1  0
  1 23  1  0
  2 20  1  0
  2  3  1  0
  2  4  1  0
  3 24  1  0
  3 25  1  0
  3 26  1  0
  4 16  1  0
  4  5  1  0
  4 27  1  6
  5  6  1  0
  5 28  1  0
  5 29  1  0
  6  7  1  0
  6  8  1  0
  6 30  1  1
  7 31  1  0
  8 19  1  0
  8 20  1  0
  8  9  1  1
  9 10  1  0
  9 32  1  0
  9 33  1  0
 10 11  1  0
 10 34  1  0
 10 35  1  0
 11 12  1  0
 11 36  1  0
 11 37  1  0
 12 19  1  0
 12 13  1  6
 12 14  1  0
 14 15  1  0
 14 20  1  0
 14 38  1  1
 15 16  1  0
 15 39  1  0
 15 40  1  0
 16 17  1  6
 16 19  1  0
 17 18  1  0
 17 41  1  0
 17 42  1  0
 18 43  1  0
 19 44  1  6
 20 45  1  1
M  CHG  2  12   1  13  -1
M  END
>  <i_m_ct_stereo_status>  (236) 
1

>  <s_m_source_file>  (236) 
/var/tmp/pbs.5076255.sched01/tmpwmgilt76/96rd2vfdyj.sdf

>  <i_m_source_file_index>  (236) 
6

>  <i_lp_mmshare_version>  (236) 
48012

>  <i_f3d_flags>  (236) 
0

>  <s_epik_input>  (236) 
W09IXVtDQEBIXTFbQ0gyXVtDQEhdKFtDQF0yKFtDSDJdMylbQ0gyXVtPSF0pQyhbQ0gzXSkoW0NIM10pW0NAQEhdNFtDQEhdM1tOK10oW08tXSkoW0NASF0yW0NAXTE0NSlbQ0gyXVtDSDJdW0NIMl01

>  <s_epik_cmdline>  (236) 
J2VwaWtfcHl0aG9uJywgJy1waHQnLCAnMi4wJywgJy1waCcsICc3LjAnLCAnLXRuJywgJzgnLCAnLW1hJywgJzIwMCcsICctaW1hZScsICc8aW5maWxlLm1hZT4nLCAnLW9tYWUnLCAnPG91dGZpbGUubWFlPic=

>  <r_epik_Ionization_Penalty>  (236) 
0.0607989

>  <r_epik_Ionization_Penalty_Charging>  (236) 
0.0607986

>  <r_epik_Ionization_Penalty_Neutral>  (236) 
3.11307e-07

>  <r_epik_State_Penalty>  (236) 
0.0527323

>  <r_epik_Charging_Adjusted_Penalty>  (236) 
0.113531

>  <i_epik_Tot_Q>  (236) 
0

>  <i_epik_Tot_abs_Q>  (236) 
2

>  <s_lp_Force_Field>  (236) 
OPLS3e

>  <r_lp_Energy>  (236) 
103.088

>  <b_lp_Chiralities_Consistent>  (236) 
1

>  <s_lp_Variant>  (236) 
60:0-2

>  <s_i_glide_gridfile>  (236) 
pfpi4k_grid

>  <i_i_glide_lignum>  (236) 
6

>  <i_i_glide_rotatable_bonds>  (236) 
3

>  <r_i_docking_score>  (236) 
-4.02797

>  <r_i_glide_ligand_efficiency>  (236) 
-0.201398

>  <r_i_glide_ligand_efficiency_sa>  (236) 
-0.54668

>  <r_i_glide_ligand_efficiency_ln>  (236) 
-1.00807

>  <r_i_glide_gscore>  (236) 
-4.02797

>  <r_i_glide_lipo>  (236) 
-0.387329

>  <r_i_glide_hbond>  (236) 
-0.200005

>  <r_i_glide_metal>  (236) 
-0

>  <r_i_glide_rewards>  (236) 
-1.50426

>  <r_i_glide_evdw>  (236) 
-12.2762

>  <r_i_glide_ecoul>  (236) 
-10.3113

>  <r_i_glide_erotb>  (236) 
0.231159

>  <r_i_glide_esite>  (236) 
-0.00702955

>  <r_i_glide_emodel>  (236) 
-28.209

>  <r_i_glide_energy>  (236) 
-22.5875

>  <r_i_glide_einternal>  (236) 
1.48167

>  <r_i_glide_intrahb_reward>  (236) 
-0

>  <i_i_glide_confnum>  (236) 
2

>  <i_i_glide_posenum>  (236) 
36

>  <r_i_glide_eff_state_penalty>  (236) 
0

>  <ligand_id>  (236) 
60

>  <original_smiles>  (236) 
CC1(C)C2CC(O)C34CCC[N+]5([O-])C(CC2(CO)C35)C14

>  <smiles>  (236) 
[H]OC([H])([H])C12C([H])([H])C3([H])C4([H])C(C([H])([H])[H])(C([H])([H])[H])C1([H])C([H])([H])C([H])(O[H])C41C([H])([H])C([H])([H])C([H])([H])[N+]3([O-])C21[H]

$$$$
60:1:1
     RDKit          3D

 45 49  0  0  1  0  0  0  0  0999 V2000
    7.0328   -5.2491    0.6815 C   0  0  0  0  0  0  0  0  0  0  0  0
    5.5770   -4.6835    0.8052 C   0  0  0  0  0  0  0  0  0  0  0  0
    4.8197   -5.9164    1.3869 C   0  0  0  0  0  0  0  0  0  0  0  0
    5.4734   -3.3516    1.6840 C   0  0  2  0  0  0  0  0  0  0  0  0
    4.0688   -3.3150    2.3119 C   0  0  0  0  0  0  0  0  0  0  0  0
    3.0293   -3.3559    1.1756 C   0  0  1  0  0  0  0  0  0  0  0  0
    2.1829   -2.2446    1.3939 O   0  0  0  0  0  0  0  0  0  0  0  0
    3.6944   -3.2833   -0.2377 C   0  0  1  0  0  0  0  0  0  0  0  0
    2.6042   -3.4556   -1.3150 C   0  0  0  0  0  0  0  0  0  0  0  0
    3.1885   -3.3717   -2.7149 C   0  0  0  0  0  0  0  0  0  0  0  0
    4.0812   -2.1506   -2.8171 C   0  0  0  0  0  0  0  0  0  0  0  0
    5.0514   -1.9692   -1.6454 N   0  0  2  0  0  0  0  0  0  0  0  0
    5.7213   -0.8311   -1.9150 O   0  0  0  0  0  0  0  0  0  0  0  0
    5.9439   -3.1431   -1.2780 C   0  0  1  0  0  0  0  0  0  0  0  0
    6.7948   -2.4135   -0.1907 C   0  0  0  0  0  0  0  0  0  0  0  0
    5.6438   -2.0564    0.7582 C   0  0  2  0  0  0  0  0  0  0  0  0
    5.9408   -0.7474    1.5194 C   0  0  0  0  0  0  0  0  0  0  0  0
    4.8262   -0.2528    2.2230 O   0  0  0  0  0  0  0  0  0  0  0  0
    4.4218   -1.9259   -0.2776 C   0  0  2  0  0  0  0  0  0  0  0  0
    4.9638   -4.1925   -0.5490 C   0  0  1  0  0  0  0  0  0  0  0  0
    7.6703   -4.8857    1.4874 H   0  0  0  0  0  0  0  0  0  0  0  0
    7.5209   -5.0017   -0.2598 H   0  0  0  0  0  0  0  0  0  0  0  0
    7.0920   -6.3376    0.7338 H   0  0  0  0  0  0  0  0  0  0  0  0
    3.7392   -5.8389    1.4096 H   0  0  0  0  0  0  0  0  0  0  0  0
    5.1550   -6.1236    2.4054 H   0  0  0  0  0  0  0  0  0  0  0  0
    5.0036   -6.8158    0.7938 H   0  0  0  0  0  0  0  0  0  0  0  0
    6.2137   -3.3597    2.4818 H   0  0  0  0  0  0  0  0  0  0  0  0
    3.9208   -4.1407    3.0096 H   0  0  0  0  0  0  0  0  0  0  0  0
    3.9477   -2.4326    2.9350 H   0  0  0  0  0  0  0  0  0  0  0  0
    2.4062   -4.2432    1.2432 H   0  0  0  0  0  0  0  0  0  0  0  0
    1.8601   -1.8969    0.5656 H   0  0  0  0  0  0  0  0  0  0  0  0
    2.0772   -4.4007   -1.1795 H   0  0  0  0  0  0  0  0  0  0  0  0
    1.8558   -2.6706   -1.2182 H   0  0  0  0  0  0  0  0  0  0  0  0
    3.7709   -4.2486   -2.9933 H   0  0  0  0  0  0  0  0  0  0  0  0
    2.3784   -3.2881   -3.4389 H   0  0  0  0  0  0  0  0  0  0  0  0
    4.6892   -2.1853   -3.7225 H   0  0  0  0  0  0  0  0  0  0  0  0
    3.4844   -1.2371   -2.8432 H   0  0  0  0  0  0  0  0  0  0  0  0
    6.4858   -3.4862   -2.1585 H   0  0  0  0  0  0  0  0  0  0  0  0
    7.5977   -2.9585    0.2884 H   0  0  0  0  0  0  0  0  0  0  0  0
    7.3390   -1.5425   -0.5418 H   0  0  0  0  0  0  0  0  0  0  0  0
    6.7642   -0.8855    2.2179 H   0  0  0  0  0  0  0  0  0  0  0  0
    6.2246    0.0367    0.8180 H   0  0  0  0  0  0  0  0  0  0  0  0
    4.4337   -0.9440    2.7333 H   0  0  0  0  0  0  0  0  0  0  0  0
    3.7998   -1.0327   -0.2037 H   0  0  0  0  0  0  0  0  0  0  0  0
    4.7303   -5.0488   -1.1875 H   0  0  0  0  0  0  0  0  0  0  0  0
  1  2  1  0
  1 21  1  0
  1 22  1  0
  1 23  1  0
  2 20  1  0
  2  3  1  0
  2  4  1  0
  3 24  1  0
  3 25  1  0
  3 26  1  0
  4 16  1  0
  4  5  1  0
  4 27  1  1
  5  6  1  0
  5 28  1  0
  5 29  1  0
  6  7  1  0
  6  8  1  0
  6 30  1  6
  7 31  1  0
  8 19  1  0
  8 20  1  0
  8  9  1  6
  9 10  1  0
  9 32  1  0
  9 33  1  0
 10 11  1  0
 10 34  1  0
 10 35  1  0
 11 12  1  0
 11 36  1  0
 11 37  1  0
 12 19  1  0
 12 13  1  6
 12 14  1  0
 14 15  1  0
 14 20  1  0
 14 38  1  6
 15 16  1  0
 15 39  1  0
 15 40  1  0
 16 17  1  1
 16 19  1  0
 17 18  1  0
 17 41  1  0
 17 42  1  0
 18 43  1  0
 19 44  1  1
 20 45  1  6
M  CHG  2  12   1  13  -1
M  END
>  <i_m_ct_stereo_status>  (237) 
1

>  <s_m_source_file>  (237) 
/var/tmp/pbs.5076255.sched01/tmpwmgilt76/96rd2vfdyj.sdf

>  <i_m_source_file_index>  (237) 
6

>  <i_lp_mmshare_version>  (237) 
48012

>  <i_f3d_flags>  (237) 
0

>  <s_epik_input>  (237) 
W09IXVtDQEBIXTFbQ0gyXVtDQEhdKFtDQF0yKFtDSDJdMylbQ0gyXVtPSF0pQyhbQ0gzXSkoW0NIM10pW0NAQEhdNFtDQEhdM1tOK10oW08tXSkoW0NASF0yW0NAXTE0NSlbQ0gyXVtDSDJdW0NIMl01

>  <s_epik_cmdline>  (237) 
J2VwaWtfcHl0aG9uJywgJy1waHQnLCAnMi4wJywgJy1waCcsICc3LjAnLCAnLXRuJywgJzgnLCAnLW1hJywgJzIwMCcsICctaW1hZScsICc8aW5maWxlLm1hZT4nLCAnLW9tYWUnLCAnPG91dGZpbGUubWFlPic=

>  <r_epik_Ionization_Penalty>  (237) 
0.0607989

>  <r_epik_Ionization_Penalty_Charging>  (237) 
0.0607986

>  <r_epik_Ionization_Penalty_Neutral>  (237) 
3.11307e-07

>  <r_epik_State_Penalty>  (237) 
0.0527323

>  <r_epik_Charging_Adjusted_Penalty>  (237) 
0.113531

>  <i_epik_Tot_Q>  (237) 
0

>  <i_epik_Tot_abs_Q>  (237) 
2

>  <s_lp_Force_Field>  (237) 
OPLS3e

>  <r_lp_Energy>  (237) 
103.088

>  <b_lp_Chiralities_Consistent>  (237) 
1

>  <s_lp_Variant>  (237) 
60:0-2

>  <s_i_glide_gridfile>  (237) 
pfpi4k_grid

>  <i_i_glide_lignum>  (237) 
6

>  <i_i_glide_rotatable_bonds>  (237) 
3

>  <r_i_docking_score>  (237) 
-3.48368

>  <r_i_glide_ligand_efficiency>  (237) 
-0.174184

>  <r_i_glide_ligand_efficiency_sa>  (237) 
-0.472808

>  <r_i_glide_ligand_efficiency_ln>  (237) 
-0.871851

>  <r_i_glide_gscore>  (237) 
-3.48368

>  <r_i_glide_lipo>  (237) 
-0.744431

>  <r_i_glide_hbond>  (237) 
-0.0359366

>  <r_i_glide_metal>  (237) 
-0

>  <r_i_glide_rewards>  (237) 
-1.50426

>  <r_i_glide_evdw>  (237) 
-12.4318

>  <r_i_glide_ecoul>  (237) 
-4.72036

>  <r_i_glide_erotb>  (237) 
0.161811

>  <r_i_glide_esite>  (237) 
-0.0312197

>  <r_i_glide_emodel>  (237) 
-21.1869

>  <r_i_glide_energy>  (237) 
-17.1521

>  <r_i_glide_einternal>  (237) 
2.71694

>  <r_i_glide_intrahb_reward>  (237) 
-0

>  <i_i_glide_confnum>  (237) 
3

>  <i_i_glide_posenum>  (237) 
23

>  <r_i_glide_eff_state_penalty>  (237) 
0

>  <ligand_id>  (237) 
60

>  <original_smiles>  (237) 
CC1(C)C2CC(O)C34CCC[N+]5([O-])C(CC2(CO)C35)C14

>  <smiles>  (237) 
[H]OC([H])([H])C12C([H])([H])C3([H])C4([H])C(C([H])([H])[H])(C([H])([H])[H])C1([H])C([H])([H])C([H])(O[H])C41C([H])([H])C([H])([H])C([H])([H])[N+]3([O-])C21[H]

$$$$
60:1:2
     RDKit          3D

 45 49  0  0  1  0  0  0  0  0999 V2000
    3.6454   -1.4908    3.1644 C   0  0  0  0  0  0  0  0  0  0  0  0
    4.5635   -1.7639    1.9231 C   0  0  0  0  0  0  0  0  0  0  0  0
    5.5998   -0.6082    2.0685 C   0  0  0  0  0  0  0  0  0  0  0  0
    5.1772   -3.2367    1.8701 C   0  0  2  0  0  0  0  0  0  0  0  0
    6.5028   -3.1823    1.0939 C   0  0  0  0  0  0  0  0  0  0  0  0
    6.2452   -2.5402   -0.2805 C   0  0  1  0  0  0  0  0  0  0  0  0
    6.8893   -3.3080   -1.2699 O   0  0  0  0  0  0  0  0  0  0  0  0
    4.7163   -2.3942   -0.5668 C   0  0  1  0  0  0  0  0  0  0  0  0
    4.5481   -1.7075   -1.9376 C   0  0  0  0  0  0  0  0  0  0  0  0
    3.0812   -1.5252   -2.2793 C   0  0  0  0  0  0  0  0  0  0  0  0
    2.3291   -2.8284   -2.0386 C   0  0  0  0  0  0  0  0  0  0  0  0
    2.6266   -3.5219   -0.7010 N   0  0  2  0  0  0  0  0  0  0  0  0
    1.8319   -4.6305   -0.6839 O   0  0  0  0  0  0  0  0  0  0  0  0
    2.5401   -2.7101    0.5847 C   0  0  1  0  0  0  0  0  0  0  0  0
    2.8148   -3.8774    1.5833 C   0  0  0  0  0  0  0  0  0  0  0  0
    4.2128   -4.2353    1.0757 C   0  0  2  0  0  0  0  0  0  0  0  0
    4.5898   -5.7223    1.2808 C   0  0  0  0  0  0  0  0  0  0  0  0
    3.8022   -6.5933    0.5006 O   0  0  0  0  0  0  0  0  0  0  0  0
    4.1032   -3.8123   -0.4713 C   0  0  2  0  0  0  0  0  0  0  0  0
    3.8058   -1.7197    0.5510 C   0  0  1  0  0  0  0  0  0  0  0  0
    3.8560   -2.1925    3.9717 H   0  0  0  0  0  0  0  0  0  0  0  0
    2.5817   -1.5364    2.9375 H   0  0  0  0  0  0  0  0  0  0  0  0
    3.7743   -0.5031    3.6080 H   0  0  0  0  0  0  0  0  0  0  0  0
    6.2467   -0.4363    1.2213 H   0  0  0  0  0  0  0  0  0  0  0  0
    6.2350   -0.7590    2.9434 H   0  0  0  0  0  0  0  0  0  0  0  0
    5.0910    0.3465    2.1957 H   0  0  0  0  0  0  0  0  0  0  0  0
    5.3624   -3.6009    2.8833 H   0  0  0  0  0  0  0  0  0  0  0  0
    7.2413   -2.6015    1.6370 H   0  0  0  0  0  0  0  0  0  0  0  0
    6.9389   -4.1761    1.0088 H   0  0  0  0  0  0  0  0  0  0  0  0
    6.7379   -1.5757   -0.3531 H   0  0  0  0  0  0  0  0  0  0  0  0
    6.4525   -4.1431   -1.3211 H   0  0  0  0  0  0  0  0  0  0  0  0
    5.0436   -0.7337   -1.9452 H   0  0  0  0  0  0  0  0  0  0  0  0
    5.0214   -2.3053   -2.7172 H   0  0  0  0  0  0  0  0  0  0  0  0
    2.6429   -0.7078   -1.7097 H   0  0  0  0  0  0  0  0  0  0  0  0
    2.9795   -1.2383   -3.3240 H   0  0  0  0  0  0  0  0  0  0  0  0
    1.2527   -2.6812   -2.0862 H   0  0  0  0  0  0  0  0  0  0  0  0
    2.5863   -3.5617   -2.8051 H   0  0  0  0  0  0  0  0  0  0  0  0
    1.5608   -2.2552    0.7102 H   0  0  0  0  0  0  0  0  0  0  0  0
    2.7743   -3.6570    2.6421 H   0  0  0  0  0  0  0  0  0  0  0  0
    2.1135   -4.7100    1.5263 H   0  0  0  0  0  0  0  0  0  0  0  0
    5.6272   -5.9049    1.0120 H   0  0  0  0  0  0  0  0  0  0  0  0
    4.4781   -5.9911    2.3321 H   0  0  0  0  0  0  0  0  0  0  0  0
    3.7119   -6.2391   -0.3795 H   0  0  0  0  0  0  0  0  0  0  0  0
    4.4602   -4.5325   -1.2105 H   0  0  0  0  0  0  0  0  0  0  0  0
    3.5180   -0.6947    0.3113 H   0  0  0  0  0  0  0  0  0  0  0  0
  1  2  1  0
  1 21  1  0
  1 22  1  0
  1 23  1  0
  2 20  1  0
  2  3  1  0
  2  4  1  0
  3 24  1  0
  3 25  1  0
  3 26  1  0
  4 16  1  0
  4  5  1  0
  4 27  1  1
  5  6  1  0
  5 28  1  0
  5 29  1  0
  6  7  1  0
  6  8  1  0
  6 30  1  1
  7 31  1  0
  8 19  1  0
  8 20  1  0
  8  9  1  6
  9 10  1  0
  9 32  1  0
  9 33  1  0
 10 11  1  0
 10 34  1  0
 10 35  1  0
 11 12  1  0
 11 36  1  0
 11 37  1  0
 12 19  1  0
 12 13  1  1
 12 14  1  0
 14 15  1  0
 14 20  1  0
 14 38  1  1
 15 16  1  0
 15 39  1  0
 15 40  1  0
 16 17  1  6
 16 19  1  0
 17 18  1  0
 17 41  1  0
 17 42  1  0
 18 43  1  0
 19 44  1  6
 20 45  1  6
M  CHG  2  12   1  13  -1
M  END
>  <i_m_ct_stereo_status>  (238) 
1

>  <s_m_source_file>  (238) 
/var/tmp/pbs.5076255.sched01/tmpwmgilt76/96rd2vfdyj.sdf

>  <i_m_source_file_index>  (238) 
6

>  <i_lp_mmshare_version>  (238) 
48012

>  <i_f3d_flags>  (238) 
0

>  <s_epik_input>  (238) 
W09IXVtDQEBIXTFbQ0gyXVtDQEhdKFtDQF0yKFtDSDJdMylbQ0gyXVtPSF0pQyhbQ0gzXSkoW0NIM10pW0NAQEhdNFtDQEhdM1tOK10oW08tXSkoW0NASF0yW0NAXTE0NSlbQ0gyXVtDSDJdW0NIMl01

>  <s_epik_cmdline>  (238) 
J2VwaWtfcHl0aG9uJywgJy1waHQnLCAnMi4wJywgJy1waCcsICc3LjAnLCAnLXRuJywgJzgnLCAnLW1hJywgJzIwMCcsICctaW1hZScsICc8aW5maWxlLm1hZT4nLCAnLW9tYWUnLCAnPG91dGZpbGUubWFlPic=

>  <r_epik_Ionization_Penalty>  (238) 
0.0607989

>  <r_epik_Ionization_Penalty_Charging>  (238) 
0.0607986

>  <r_epik_Ionization_Penalty_Neutral>  (238) 
3.11307e-07

>  <r_epik_State_Penalty>  (238) 
0.0527323

>  <r_epik_Charging_Adjusted_Penalty>  (238) 
0.113531

>  <i_epik_Tot_Q>  (238) 
0

>  <i_epik_Tot_abs_Q>  (238) 
2

>  <s_lp_Force_Field>  (238) 
OPLS3e

>  <r_lp_Energy>  (238) 
103.088

>  <b_lp_Chiralities_Consistent>  (238) 
1

>  <s_lp_Variant>  (238) 
60:0-2

>  <s_i_glide_gridfile>  (238) 
pfpi4k_grid

>  <i_i_glide_lignum>  (238) 
6

>  <i_i_glide_rotatable_bonds>  (238) 
3

>  <r_i_docking_score>  (238) 
-2.83005

>  <r_i_glide_ligand_efficiency>  (238) 
-0.141503

>  <r_i_glide_ligand_efficiency_sa>  (238) 
-0.384097

>  <r_i_glide_ligand_efficiency_ln>  (238) 
-0.708269

>  <r_i_glide_gscore>  (238) 
-2.83005

>  <r_i_glide_lipo>  (238) 
-0.309312

>  <r_i_glide_hbond>  (238) 
-0.00637765

>  <r_i_glide_metal>  (238) 
-0

>  <r_i_glide_rewards>  (238) 
-1.50426

>  <r_i_glide_evdw>  (238) 
-14.7475

>  <r_i_glide_ecoul>  (238) 
-3.19882

>  <r_i_glide_erotb>  (238) 
0.231159

>  <r_i_glide_esite>  (238) 
-0.0240588

>  <r_i_glide_emodel>  (238) 
-21.8987

>  <r_i_glide_energy>  (238) 
-17.9463

>  <r_i_glide_einternal>  (238) 
0.869523

>  <r_i_glide_intrahb_reward>  (238) 
-0

>  <i_i_glide_confnum>  (238) 
2

>  <i_i_glide_posenum>  (238) 
4

>  <r_i_glide_eff_state_penalty>  (238) 
0

>  <ligand_id>  (238) 
60

>  <original_smiles>  (238) 
CC1(C)C2CC(O)C34CCC[N+]5([O-])C(CC2(CO)C35)C14

>  <smiles>  (238) 
[H]OC([H])([H])C12C([H])([H])C3([H])C4([H])C(C([H])([H])[H])(C([H])([H])[H])C1([H])C([H])([H])C([H])(O[H])C41C([H])([H])C([H])([H])C([H])([H])[N+]3([O-])C21[H]

$$$$
60:2:0
     RDKit          3D

 46 50  0  0  1  0  0  0  0  0999 V2000
    4.5272   -1.3740   -2.1617 C   0  0  0  0  0  0  0  0  0  0  0  0
    5.2653   -2.4569   -1.3063 C   0  0  0  0  0  0  0  0  0  0  0  0
    6.4803   -2.8156   -2.2165 C   0  0  0  0  0  0  0  0  0  0  0  0
    5.6365   -1.9581    0.1446 C   0  0  2  0  0  0  0  0  0  0  0  0
    6.8437   -2.7602    0.6472 C   0  0  0  0  0  0  0  0  0  0  0  0
    6.5189   -4.2630    0.5621 C   0  0  1  0  0  0  0  0  0  0  0  0
    6.8684   -4.8652    1.7930 O   0  0  0  0  0  0  0  0  0  0  0  0
    5.0178   -4.5153    0.2206 C   0  0  1  0  0  0  0  0  0  0  0  0
    4.7293   -6.0377    0.1978 C   0  0  0  0  0  0  0  0  0  0  0  0
    3.8567   -6.4506    1.3807 C   0  0  0  0  0  0  0  0  0  0  0  0
    2.7762   -5.3948    1.7539 C   0  0  0  0  0  0  0  0  0  0  0  0
    2.6594   -4.1160    0.9275 N   0  0  1  0  0  0  0  0  0  0  0  0
    2.0616   -4.9756   -0.1126 O   0  0  0  0  0  0  0  0  0  0  0  0
    3.0408   -3.2467   -0.2442 C   0  0  1  0  0  0  0  0  0  0  0  0
    3.1531   -1.8954    0.4675 C   0  0  0  0  0  0  0  0  0  0  0  0
    4.4328   -2.2366    1.1520 C   0  0  2  0  0  0  0  0  0  0  0  0
    4.5766   -1.5438    2.5237 C   0  0  0  0  0  0  0  0  0  0  0  0
    4.6995   -0.1480    2.3698 O   0  0  0  0  0  0  0  0  0  0  0  0
    4.1393   -3.7935    1.2516 C   0  0  2  0  0  0  0  0  0  0  0  0
    4.3925   -3.7127   -0.9616 C   0  0  1  0  0  0  0  0  0  0  0  0
    4.7300   -0.3695   -1.7909 H   0  0  0  0  0  0  0  0  0  0  0  0
    3.4468   -1.4961   -2.2009 H   0  0  0  0  0  0  0  0  0  0  0  0
    4.8322   -1.3608   -3.2085 H   0  0  0  0  0  0  0  0  0  0  0  0
    7.0737   -3.6618   -1.9011 H   0  0  0  0  0  0  0  0  0  0  0  0
    7.1737   -1.9804   -2.2996 H   0  0  0  0  0  0  0  0  0  0  0  0
    6.1672   -3.0723   -3.2310 H   0  0  0  0  0  0  0  0  0  0  0  0
    5.8913   -0.9000    0.1217 H   0  0  0  0  0  0  0  0  0  0  0  0
    7.7428   -2.5290    0.0794 H   0  0  0  0  0  0  0  0  0  0  0  0
    7.0520   -2.4553    1.6662 H   0  0  0  0  0  0  0  0  0  0  0  0
    7.1562   -4.7516   -0.1711 H   0  0  0  0  0  0  0  0  0  0  0  0
    7.8027   -4.7944    1.9133 H   0  0  0  0  0  0  0  0  0  0  0  0
    4.2305   -6.3302   -0.7258 H   0  0  0  0  0  0  0  0  0  0  0  0
    5.6483   -6.6276    0.2150 H   0  0  0  0  0  0  0  0  0  0  0  0
    3.3927   -7.4213    1.1933 H   0  0  0  0  0  0  0  0  0  0  0  0
    4.4888   -6.6054    2.2560 H   0  0  0  0  0  0  0  0  0  0  0  0
    1.8231   -5.9135    1.8135 H   0  0  0  0  0  0  0  0  0  0  0  0
    2.8662   -5.1457    2.8089 H   0  0  0  0  0  0  0  0  0  0  0  0
    2.2656   -3.0393   -0.9913 H   0  0  0  0  0  0  0  0  0  0  0  0
    3.1984   -0.9863   -0.1311 H   0  0  0  0  0  0  0  0  0  0  0  0
    2.3298   -1.7362    1.1687 H   0  0  0  0  0  0  0  0  0  0  0  0
    3.7185   -1.7528    3.1637 H   0  0  0  0  0  0  0  0  0  0  0  0
    5.4553   -1.9002    3.0602 H   0  0  0  0  0  0  0  0  0  0  0  0
    3.8921    0.2063    2.0279 H   0  0  0  0  0  0  0  0  0  0  0  0
    4.4891   -4.0367    2.2599 H   0  0  0  0  0  0  0  0  0  0  0  0
    4.2184   -4.3143   -1.8474 H   0  0  0  0  0  0  0  0  0  0  0  0
    2.7298   -4.9743   -0.7931 H   0  0  0  0  0  0  0  0  0  0  0  0
  1  2  1  0
  1 21  1  0
  1 22  1  0
  1 23  1  0
  2 20  1  0
  2  3  1  0
  2  4  1  0
  3 24  1  0
  3 25  1  0
  3 26  1  0
  4 16  1  0
  4  5  1  0
  4 27  1  6
  5  6  1  0
  5 28  1  0
  5 29  1  0
  6  7  1  0
  6  8  1  0
  6 30  1  6
  7 31  1  0
  8 19  1  0
  8 20  1  0
  8  9  1  6
  9 10  1  0
  9 32  1  0
  9 33  1  0
 10 11  1  0
 10 34  1  0
 10 35  1  0
 11 12  1  0
 11 36  1  0
 11 37  1  0
 12 19  1  0
 12 13  1  6
 12 14  1  0
 13 46  1  0
 14 15  1  0
 14 20  1  0
 14 38  1  6
 15 16  1  0
 15 39  1  0
 15 40  1  0
 16 17  1  1
 16 19  1  0
 17 18  1  0
 17 41  1  0
 17 42  1  0
 18 43  1  0
 19 44  1  1
 20 45  1  6
M  CHG  1  12   1
M  END
>  <i_m_ct_stereo_status>  (239) 
1

>  <s_m_source_file>  (239) 
/var/tmp/pbs.5076255.sched01/tmpwmgilt76/96rd2vfdyj.sdf

>  <i_m_source_file_index>  (239) 
7

>  <i_lp_mmshare_version>  (239) 
48012

>  <i_f3d_flags>  (239) 
0

>  <s_epik_input>  (239) 
W09IXVtDQEBIXTFbQ0gyXVtDQEhdKFtDQF0yKFtDSDJdMylbQ0gyXVtPSF0pQyhbQ0gzXSkoW0NIM10pW0NAQEhdNFtDQEhdM1tOK10oW08tXSkoW0NASF0yW0NAXTE0NSlbQ0gyXVtDSDJdW0NIMl01

>  <s_epik_cmdline>  (239) 
J2VwaWtfcHl0aG9uJywgJy1waHQnLCAnMi4wJywgJy1waCcsICc3LjAnLCAnLXRuJywgJzgnLCAnLW1hJywgJzIwMCcsICctaW1hZScsICc8aW5maWxlLm1hZT4nLCAnLW9tYWUnLCAnPG91dGZpbGUubWFlPic=

>  <r_epik_Ionization_Penalty>  (239) 
1.37909

>  <r_epik_Ionization_Penalty_Charging>  (239) 
0

>  <r_epik_Ionization_Penalty_Neutral>  (239) 
1.37909

>  <r_epik_State_Penalty>  (239) 
1.45945

>  <r_epik_Charging_Adjusted_Penalty>  (239) 
1.45945

>  <i_epik_Tot_Q>  (239) 
1

>  <i_epik_Tot_abs_Q>  (239) 
1

>  <s_epik_Chemistry_Notes>  (239) 
This compound has a N-S or N-O group and may undergo hydrolysis at high or low pH.

>  <s_lp_Force_Field>  (239) 
OPLS3e

>  <r_lp_Energy>  (239) 
211.741

>  <b_lp_Chiralities_Consistent>  (239) 
1

>  <s_lp_Variant>  (239) 
60:0-3

>  <s_i_glide_gridfile>  (239) 
pfpi4k_grid

>  <i_i_glide_lignum>  (239) 
7

>  <i_i_glide_rotatable_bonds>  (239) 
4

>  <r_i_docking_score>  (239) 
-3.7929

>  <r_i_glide_ligand_efficiency>  (239) 
-0.189645

>  <r_i_glide_ligand_efficiency_sa>  (239) 
-0.514776

>  <r_i_glide_ligand_efficiency_ln>  (239) 
-0.949239

>  <r_i_glide_gscore>  (239) 
-3.7929

>  <r_i_glide_lipo>  (239) 
-0.501982

>  <r_i_glide_hbond>  (239) 
-0.202009

>  <r_i_glide_metal>  (239) 
-0

>  <r_i_glide_rewards>  (239) 
-1.49739

>  <r_i_glide_evdw>  (239) 
-15.6209

>  <r_i_glide_ecoul>  (239) 
-6.78635

>  <r_i_glide_erotb>  (239) 
0.229718

>  <r_i_glide_esite>  (239) 
-0.0222399

>  <r_i_glide_emodel>  (239) 
-23.6837

>  <r_i_glide_energy>  (239) 
-22.4073

>  <r_i_glide_einternal>  (239) 
7.47524

>  <r_i_glide_intrahb_reward>  (239) 
-0

>  <i_i_glide_confnum>  (239) 
3

>  <i_i_glide_posenum>  (239) 
22

>  <r_i_glide_eff_state_penalty>  (239) 
0

>  <ligand_id>  (239) 
60

>  <original_smiles>  (239) 
CC1(C)C2CC(O)C34CCC[N+]5([O-])C(CC2(CO)C35)C14

>  <smiles>  (239) 
[H]OC([H])([H])C12C([H])([H])C3([H])C4([H])C(C([H])([H])[H])(C([H])([H])[H])C1([H])C([H])([H])C([H])(O[H])C41C([H])([H])C([H])([H])C([H])([H])[N+]3(O[H])C21[H]

$$$$
60:2:1
     RDKit          3D

 46 50  0  0  1  0  0  0  0  0999 V2000
    4.6966   -1.4435   -2.5082 C   0  0  0  0  0  0  0  0  0  0  0  0
    5.4193   -2.4738   -1.5819 C   0  0  0  0  0  0  0  0  0  0  0  0
    6.5556   -3.0085   -2.5015 C   0  0  0  0  0  0  0  0  0  0  0  0
    5.8964   -1.8466   -0.2104 C   0  0  2  0  0  0  0  0  0  0  0  0
    7.0840   -2.6662    0.3183 C   0  0  0  0  0  0  0  0  0  0  0  0
    6.6718   -4.1483    0.4112 C   0  0  1  0  0  0  0  0  0  0  0  0
    7.0461   -4.6410    1.6785 O   0  0  0  0  0  0  0  0  0  0  0  0
    5.1443   -4.3431    0.1745 C   0  0  1  0  0  0  0  0  0  0  0  0
    4.7694   -5.8440    0.3224 C   0  0  0  0  0  0  0  0  0  0  0  0
    3.9384   -6.0689    1.5970 C   0  0  0  0  0  0  0  0  0  0  0  0
    2.9379   -4.9051    1.9006 C   0  0  0  0  0  0  0  0  0  0  0  0
    2.8666   -3.7141    0.9509 N   0  0  1  0  0  0  0  0  0  0  0  0
    2.2109   -4.6582    0.0373 O   0  0  0  0  0  0  0  0  0  0  0  0
    3.2210   -2.9908   -0.3408 C   0  0  1  0  0  0  0  0  0  0  0  0
    3.4522   -1.5808    0.2210 C   0  0  0  0  0  0  0  0  0  0  0  0
    4.7428   -1.9418    0.8843 C   0  0  2  0  0  0  0  0  0  0  0  0
    5.0185   -1.0993    2.1509 C   0  0  0  0  0  0  0  0  0  0  0  0
    3.9578   -1.2239    3.0799 O   0  0  0  0  0  0  0  0  0  0  0  0
    4.3791   -3.4585    1.1690 C   0  0  2  0  0  0  0  0  0  0  0  0
    4.5008   -3.6270   -1.0593 C   0  0  1  0  0  0  0  0  0  0  0  0
    4.9780   -0.4201   -2.2610 H   0  0  0  0  0  0  0  0  0  0  0  0
    3.6103   -1.4990   -2.4837 H   0  0  0  0  0  0  0  0  0  0  0  0
    4.9425   -1.5624   -3.5613 H   0  0  0  0  0  0  0  0  0  0  0  0
    7.1006   -3.8536   -2.1204 H   0  0  0  0  0  0  0  0  0  0  0  0
    7.3067   -2.2582   -2.6929 H   0  0  0  0  0  0  0  0  0  0  0  0
    6.1675   -3.3542   -3.4634 H   0  0  0  0  0  0  0  0  0  0  0  0
    6.1975   -0.8095   -0.3418 H   0  0  0  0  0  0  0  0  0  0  0  0
    7.9549   -2.5618   -0.3256 H   0  0  0  0  0  0  0  0  0  0  0  0
    7.4036   -2.2821    1.2835 H   0  0  0  0  0  0  0  0  0  0  0  0
    7.2375   -4.7480   -0.2942 H   0  0  0  0  0  0  0  0  0  0  0  0
    6.9005   -5.5721    1.7014 H   0  0  0  0  0  0  0  0  0  0  0  0
    4.2084   -6.1944   -0.5458 H   0  0  0  0  0  0  0  0  0  0  0  0
    5.6537   -6.4858    0.3561 H   0  0  0  0  0  0  0  0  0  0  0  0
    3.4045   -7.0199    1.5337 H   0  0  0  0  0  0  0  0  0  0  0  0
    4.6082   -6.1675    2.4546 H   0  0  0  0  0  0  0  0  0  0  0  0
    1.9494   -5.3545    2.0633 H   0  0  0  0  0  0  0  0  0  0  0  0
    3.1086   -4.5500    2.9226 H   0  0  0  0  0  0  0  0  0  0  0  0
    2.4029   -2.8262   -1.0571 H   0  0  0  0  0  0  0  0  0  0  0  0
    3.5229   -0.7545   -0.4816 H   0  0  0  0  0  0  0  0  0  0  0  0
    2.6404   -1.3087    0.9039 H   0  0  0  0  0  0  0  0  0  0  0  0
    5.9260   -1.4313    2.6530 H   0  0  0  0  0  0  0  0  0  0  0  0
    5.1606   -0.0484    1.8869 H   0  0  0  0  0  0  0  0  0  0  0  0
    3.1910   -0.8108    2.7108 H   0  0  0  0  0  0  0  0  0  0  0  0
    4.7669   -3.6191    2.1816 H   0  0  0  0  0  0  0  0  0  0  0  0
    4.2251   -4.3056   -1.8653 H   0  0  0  0  0  0  0  0  0  0  0  0
    2.8636   -4.7686   -0.6398 H   0  0  0  0  0  0  0  0  0  0  0  0
  1  2  1  0
  1 21  1  0
  1 22  1  0
  1 23  1  0
  2 20  1  0
  2  3  1  0
  2  4  1  0
  3 24  1  0
  3 25  1  0
  3 26  1  0
  4 16  1  0
  4  5  1  0
  4 27  1  6
  5  6  1  0
  5 28  1  0
  5 29  1  0
  6  7  1  0
  6  8  1  0
  6 30  1  6
  7 31  1  0
  8 19  1  0
  8 20  1  0
  8  9  1  1
  9 10  1  0
  9 32  1  0
  9 33  1  0
 10 11  1  0
 10 34  1  0
 10 35  1  0
 11 12  1  0
 11 36  1  0
 11 37  1  0
 12 19  1  0
 12 13  1  6
 12 14  1  0
 13 46  1  0
 14 15  1  0
 14 20  1  0
 14 38  1  6
 15 16  1  0
 15 39  1  0
 15 40  1  0
 16 17  1  1
 16 19  1  0
 17 18  1  0
 17 41  1  0
 17 42  1  0
 18 43  1  0
 19 44  1  1
 20 45  1  6
M  CHG  1  12   1
M  END
>  <i_m_ct_stereo_status>  (240) 
1

>  <s_m_source_file>  (240) 
/var/tmp/pbs.5076255.sched01/tmpwmgilt76/96rd2vfdyj.sdf

>  <i_m_source_file_index>  (240) 
7

>  <i_lp_mmshare_version>  (240) 
48012

>  <i_f3d_flags>  (240) 
0

>  <s_epik_input>  (240) 
W09IXVtDQEBIXTFbQ0gyXVtDQEhdKFtDQF0yKFtDSDJdMylbQ0gyXVtPSF0pQyhbQ0gzXSkoW0NIM10pW0NAQEhdNFtDQEhdM1tOK10oW08tXSkoW0NASF0yW0NAXTE0NSlbQ0gyXVtDSDJdW0NIMl01

>  <s_epik_cmdline>  (240) 
J2VwaWtfcHl0aG9uJywgJy1waHQnLCAnMi4wJywgJy1waCcsICc3LjAnLCAnLXRuJywgJzgnLCAnLW1hJywgJzIwMCcsICctaW1hZScsICc8aW5maWxlLm1hZT4nLCAnLW9tYWUnLCAnPG91dGZpbGUubWFlPic=

>  <r_epik_Ionization_Penalty>  (240) 
1.37909

>  <r_epik_Ionization_Penalty_Charging>  (240) 
0

>  <r_epik_Ionization_Penalty_Neutral>  (240) 
1.37909

>  <r_epik_State_Penalty>  (240) 
1.45945

>  <r_epik_Charging_Adjusted_Penalty>  (240) 
1.45945

>  <i_epik_Tot_Q>  (240) 
1

>  <i_epik_Tot_abs_Q>  (240) 
1

>  <s_epik_Chemistry_Notes>  (240) 
This compound has a N-S or N-O group and may undergo hydrolysis at high or low pH.

>  <s_lp_Force_Field>  (240) 
OPLS3e

>  <r_lp_Energy>  (240) 
211.741

>  <b_lp_Chiralities_Consistent>  (240) 
1

>  <s_lp_Variant>  (240) 
60:0-3

>  <s_i_glide_gridfile>  (240) 
pfpi4k_grid

>  <i_i_glide_lignum>  (240) 
7

>  <i_i_glide_rotatable_bonds>  (240) 
4

>  <r_i_docking_score>  (240) 
-3.52514

>  <r_i_glide_ligand_efficiency>  (240) 
-0.176257

>  <r_i_glide_ligand_efficiency_sa>  (240) 
-0.478435

>  <r_i_glide_ligand_efficiency_ln>  (240) 
-0.882226

>  <r_i_glide_gscore>  (240) 
-3.52514

>  <r_i_glide_lipo>  (240) 
-0.59486

>  <r_i_glide_hbond>  (240) 
-0.0358357

>  <r_i_glide_metal>  (240) 
-0

>  <r_i_glide_rewards>  (240) 
-1.49739

>  <r_i_glide_evdw>  (240) 
-16.594

>  <r_i_glide_ecoul>  (240) 
-5.22895

>  <r_i_glide_erotb>  (240) 
0.229718

>  <r_i_glide_esite>  (240) 
-0.0127279

>  <r_i_glide_emodel>  (240) 
-22.3241

>  <r_i_glide_energy>  (240) 
-21.8229

>  <r_i_glide_einternal>  (240) 
8.29421

>  <r_i_glide_intrahb_reward>  (240) 
-0

>  <i_i_glide_confnum>  (240) 
6

>  <i_i_glide_posenum>  (240) 
33

>  <r_i_glide_eff_state_penalty>  (240) 
0

>  <ligand_id>  (240) 
60

>  <original_smiles>  (240) 
CC1(C)C2CC(O)C34CCC[N+]5([O-])C(CC2(CO)C35)C14

>  <smiles>  (240) 
[H]OC([H])([H])C12C([H])([H])C3([H])C4([H])C(C([H])([H])[H])(C([H])([H])[H])C1([H])C([H])([H])C([H])(O[H])C41C([H])([H])C([H])([H])C([H])([H])[N+]3(O[H])C21[H]

$$$$
60:2:2
     RDKit          3D

 46 50  0  0  1  0  0  0  0  0999 V2000
    3.1032   -3.0742   -2.4121 C   0  0  0  0  0  0  0  0  0  0  0  0
    4.5630   -3.2526   -1.8742 C   0  0  0  0  0  0  0  0  0  0  0  0
    5.3406   -3.5747   -3.1837 C   0  0  0  0  0  0  0  0  0  0  0  0
    5.0887   -1.9992   -1.0709 C   0  0  2  0  0  0  0  0  0  0  0  0
    6.6209   -1.9888   -1.1451 C   0  0  0  0  0  0  0  0  0  0  0  0
    7.1860   -3.3168   -0.6376 C   0  0  1  0  0  0  0  0  0  0  0  0
    8.2346   -3.0248    0.2658 O   0  0  0  0  0  0  0  0  0  0  0  0
    6.0680   -4.1927    0.0038 C   0  0  1  0  0  0  0  0  0  0  0  0
    6.6755   -5.5155    0.5355 C   0  0  0  0  0  0  0  0  0  0  0  0
    6.6663   -5.5386    2.0664 C   0  0  0  0  0  0  0  0  0  0  0  0
    5.4017   -4.8704    2.6936 C   0  0  0  0  0  0  0  0  0  0  0  0
    4.3222   -4.3073    1.7804 N   0  0  1  0  0  0  0  0  0  0  0  0
    3.9777   -5.7073    1.5068 O   0  0  0  0  0  0  0  0  0  0  0  0
    3.7074   -4.0860    0.4117 C   0  0  1  0  0  0  0  0  0  0  0  0
    3.2987   -2.6133    0.5489 C   0  0  0  0  0  0  0  0  0  0  0  0
    4.7012   -2.1109    0.4724 C   0  0  2  0  0  0  0  0  0  0  0  0
    4.9211   -0.7965    1.2592 C   0  0  0  0  0  0  0  0  0  0  0  0
    4.5768   -0.9596    2.6216 O   0  0  0  0  0  0  0  0  0  0  0  0
    5.3827   -3.3901    1.1177 C   0  0  2  0  0  0  0  0  0  0  0  0
    4.7312   -4.3687   -0.7827 C   0  0  1  0  0  0  0  0  0  0  0  0
    2.8375   -2.0194   -2.4996 H   0  0  0  0  0  0  0  0  0  0  0  0
    2.3409   -3.5586   -1.8071 H   0  0  0  0  0  0  0  0  0  0  0  0
    2.9499   -3.4911   -3.4082 H   0  0  0  0  0  0  0  0  0  0  0  0
    6.3807   -3.8468   -3.0571 H   0  0  0  0  0  0  0  0  0  0  0  0
    5.3269   -2.7137   -3.8519 H   0  0  0  0  0  0  0  0  0  0  0  0
    4.8912   -4.4123   -3.7240 H   0  0  0  0  0  0  0  0  0  0  0  0
    4.6900   -1.0784   -1.5013 H   0  0  0  0  0  0  0  0  0  0  0  0
    6.9547   -1.8545   -2.1699 H   0  0  0  0  0  0  0  0  0  0  0  0
    6.9929   -1.1558   -0.5560 H   0  0  0  0  0  0  0  0  0  0  0  0
    7.6685   -3.8503   -1.4500 H   0  0  0  0  0  0  0  0  0  0  0  0
    8.9349   -2.6013   -0.2079 H   0  0  0  0  0  0  0  0  0  0  0  0
    6.1105   -6.3674    0.1605 H   0  0  0  0  0  0  0  0  0  0  0  0
    7.6980   -5.6681    0.1770 H   0  0  0  0  0  0  0  0  0  0  0  0
    6.7772   -6.5641    2.4288 H   0  0  0  0  0  0  0  0  0  0  0  0
    7.5521   -5.0175    2.4327 H   0  0  0  0  0  0  0  0  0  0  0  0
    4.9838   -5.5782    3.4166 H   0  0  0  0  0  0  0  0  0  0  0  0
    5.7191   -4.1048    3.4046 H   0  0  0  0  0  0  0  0  0  0  0  0
    2.7397   -4.5623    0.2017 H   0  0  0  0  0  0  0  0  0  0  0  0
    2.6368   -2.1764   -0.1964 H   0  0  0  0  0  0  0  0  0  0  0  0
    2.8110   -2.4347    1.5092 H   0  0  0  0  0  0  0  0  0  0  0  0
    5.9662   -0.4886    1.2336 H   0  0  0  0  0  0  0  0  0  0  0  0
    4.3334    0.0171    0.8270 H   0  0  0  0  0  0  0  0  0  0  0  0
    3.6338   -1.0010    2.6881 H   0  0  0  0  0  0  0  0  0  0  0  0
    6.1453   -2.9584    1.7718 H   0  0  0  0  0  0  0  0  0  0  0  0
    4.6244   -5.3679   -1.1986 H   0  0  0  0  0  0  0  0  0  0  0  0
    4.6968   -5.9640    0.9386 H   0  0  0  0  0  0  0  0  0  0  0  0
  1  2  1  0
  1 21  1  0
  1 22  1  0
  1 23  1  0
  2 20  1  0
  2  3  1  0
  2  4  1  0
  3 24  1  0
  3 25  1  0
  3 26  1  0
  4 16  1  0
  4  5  1  0
  4 27  1  6
  5  6  1  0
  5 28  1  0
  5 29  1  0
  6  7  1  0
  6  8  1  0
  6 30  1  6
  7 31  1  0
  8 19  1  0
  8 20  1  0
  8  9  1  1
  9 10  1  0
  9 32  1  0
  9 33  1  0
 10 11  1  0
 10 34  1  0
 10 35  1  0
 11 12  1  0
 11 36  1  0
 11 37  1  0
 12 19  1  0
 12 13  1  6
 12 14  1  0
 13 46  1  0
 14 15  1  0
 14 20  1  0
 14 38  1  6
 15 16  1  0
 15 39  1  0
 15 40  1  0
 16 17  1  1
 16 19  1  0
 17 18  1  0
 17 41  1  0
 17 42  1  0
 18 43  1  0
 19 44  1  1
 20 45  1  6
M  CHG  1  12   1
M  END
>  <i_m_ct_stereo_status>  (241) 
1

>  <s_m_source_file>  (241) 
/var/tmp/pbs.5076255.sched01/tmpwmgilt76/96rd2vfdyj.sdf

>  <i_m_source_file_index>  (241) 
7

>  <i_lp_mmshare_version>  (241) 
48012

>  <i_f3d_flags>  (241) 
0

>  <s_epik_input>  (241) 
W09IXVtDQEBIXTFbQ0gyXVtDQEhdKFtDQF0yKFtDSDJdMylbQ0gyXVtPSF0pQyhbQ0gzXSkoW0NIM10pW0NAQEhdNFtDQEhdM1tOK10oW08tXSkoW0NASF0yW0NAXTE0NSlbQ0gyXVtDSDJdW0NIMl01

>  <s_epik_cmdline>  (241) 
J2VwaWtfcHl0aG9uJywgJy1waHQnLCAnMi4wJywgJy1waCcsICc3LjAnLCAnLXRuJywgJzgnLCAnLW1hJywgJzIwMCcsICctaW1hZScsICc8aW5maWxlLm1hZT4nLCAnLW9tYWUnLCAnPG91dGZpbGUubWFlPic=

>  <r_epik_Ionization_Penalty>  (241) 
1.37909

>  <r_epik_Ionization_Penalty_Charging>  (241) 
0

>  <r_epik_Ionization_Penalty_Neutral>  (241) 
1.37909

>  <r_epik_State_Penalty>  (241) 
1.45945

>  <r_epik_Charging_Adjusted_Penalty>  (241) 
1.45945

>  <i_epik_Tot_Q>  (241) 
1

>  <i_epik_Tot_abs_Q>  (241) 
1

>  <s_epik_Chemistry_Notes>  (241) 
This compound has a N-S or N-O group and may undergo hydrolysis at high or low pH.

>  <s_lp_Force_Field>  (241) 
OPLS3e

>  <r_lp_Energy>  (241) 
211.741

>  <b_lp_Chiralities_Consistent>  (241) 
1

>  <s_lp_Variant>  (241) 
60:0-3

>  <s_i_glide_gridfile>  (241) 
pfpi4k_grid

>  <i_i_glide_lignum>  (241) 
7

>  <i_i_glide_rotatable_bonds>  (241) 
4

>  <r_i_docking_score>  (241) 
-3.30842

>  <r_i_glide_ligand_efficiency>  (241) 
-0.165421

>  <r_i_glide_ligand_efficiency_sa>  (241) 
-0.449022

>  <r_i_glide_ligand_efficiency_ln>  (241) 
-0.827989

>  <r_i_glide_gscore>  (241) 
-3.30842

>  <r_i_glide_lipo>  (241) 
-0.723476

>  <r_i_glide_hbond>  (241) 
0

>  <r_i_glide_metal>  (241) 
-0

>  <r_i_glide_rewards>  (241) 
-1.49739

>  <r_i_glide_evdw>  (241) 
-18.5843

>  <r_i_glide_ecoul>  (241) 
-2.58705

>  <r_i_glide_erotb>  (241) 
0.229718

>  <r_i_glide_esite>  (241) 
0

>  <r_i_glide_emodel>  (241) 
-21.2758

>  <r_i_glide_energy>  (241) 
-21.1714

>  <r_i_glide_einternal>  (241) 
8.44402

>  <r_i_glide_intrahb_reward>  (241) 
-0

>  <i_i_glide_confnum>  (241) 
2

>  <i_i_glide_posenum>  (241) 
6

>  <r_i_glide_eff_state_penalty>  (241) 
0

>  <ligand_id>  (241) 
60

>  <original_smiles>  (241) 
CC1(C)C2CC(O)C34CCC[N+]5([O-])C(CC2(CO)C35)C14

>  <smiles>  (241) 
[H]OC([H])([H])C12C([H])([H])C3([H])C4([H])C(C([H])([H])[H])(C([H])([H])[H])C1([H])C([H])([H])C([H])(O[H])C41C([H])([H])C([H])([H])C([H])([H])[N+]3(O[H])C21[H]

$$$$
60:3:0
     RDKit          3D

 46 50  0  0  1  0  0  0  0  0999 V2000
    3.1776   -1.1159    3.0785 C   0  0  0  0  0  0  0  0  0  0  0  0
    4.2201   -1.3776    1.9378 C   0  0  0  0  0  0  0  0  0  0  0  0
    5.1163   -0.1232    2.0683 C   0  0  0  0  0  0  0  0  0  0  0  0
    4.9869   -2.7596    2.0467 C   0  0  2  0  0  0  0  0  0  0  0  0
    6.3590   -2.6268    1.3721 C   0  0  0  0  0  0  0  0  0  0  0  0
    6.1601   -2.1353   -0.0691 C   0  0  1  0  0  0  0  0  0  0  0  0
    6.9576   -2.9106   -0.9417 O   0  0  0  0  0  0  0  0  0  0  0  0
    4.6572   -2.1622   -0.4798 C   0  0  1  0  0  0  0  0  0  0  0  0
    4.5475   -1.5936   -1.9173 C   0  0  0  0  0  0  0  0  0  0  0  0
    3.1094   -1.5703   -2.3835 C   0  0  0  0  0  0  0  0  0  0  0  0
    2.4494   -2.9050   -2.0640 C   0  0  0  0  0  0  0  0  0  0  0  0
    2.7188   -3.4686   -0.7070 N   0  0  2  0  0  0  0  0  0  0  0  0
    1.9952   -4.7145   -0.7048 O   0  0  0  0  0  0  0  0  0  0  0  0
    2.4389   -2.6382    0.4953 C   0  0  1  0  0  0  0  0  0  0  0  0
    2.7273   -3.6812    1.6165 C   0  0  0  0  0  0  0  0  0  0  0  0
    4.1930   -3.9064    1.2621 C   0  0  2  0  0  0  0  0  0  0  0  0
    4.6709   -5.3341    1.6001 C   0  0  0  0  0  0  0  0  0  0  0  0
    4.5534   -5.5981    2.9843 O   0  0  0  0  0  0  0  0  0  0  0  0
    4.1509   -3.6103   -0.3238 C   0  0  2  0  0  0  0  0  0  0  0  0
    3.5869   -1.5124    0.5122 C   0  0  1  0  0  0  0  0  0  0  0  0
    3.3773   -1.7403    3.9490 H   0  0  0  0  0  0  0  0  0  0  0  0
    2.1459   -1.2721    2.7692 H   0  0  0  0  0  0  0  0  0  0  0  0
    3.1801   -0.0973    3.4691 H   0  0  0  0  0  0  0  0  0  0  0  0
    5.8051    0.0719    1.2582 H   0  0  0  0  0  0  0  0  0  0  0  0
    5.6942   -0.1310    2.9954 H   0  0  0  0  0  0  0  0  0  0  0  0
    4.4700    0.7502    2.0913 H   0  0  0  0  0  0  0  0  0  0  0  0
    5.1220   -3.0104    3.0965 H   0  0  0  0  0  0  0  0  0  0  0  0
    6.9847   -1.9153    1.9033 H   0  0  0  0  0  0  0  0  0  0  0  0
    6.8951   -3.5738    1.4210 H   0  0  0  0  0  0  0  0  0  0  0  0
    6.5589   -1.1303   -0.1859 H   0  0  0  0  0  0  0  0  0  0  0  0
    6.6845   -3.8151   -0.8767 H   0  0  0  0  0  0  0  0  0  0  0  0
    4.9411   -0.5749   -1.9676 H   0  0  0  0  0  0  0  0  0  0  0  0
    5.1282   -2.2013   -2.6146 H   0  0  0  0  0  0  0  0  0  0  0  0
    2.6141   -0.7298   -1.9121 H   0  0  0  0  0  0  0  0  0  0  0  0
    3.0389   -1.3804   -3.4572 H   0  0  0  0  0  0  0  0  0  0  0  0
    1.3732   -2.8339   -2.2238 H   0  0  0  0  0  0  0  0  0  0  0  0
    2.8021   -3.6322   -2.7996 H   0  0  0  0  0  0  0  0  0  0  0  0
    1.4300   -2.2604    0.5888 H   0  0  0  0  0  0  0  0  0  0  0  0
    2.5567   -3.3718    2.6407 H   0  0  0  0  0  0  0  0  0  0  0  0
    2.1324   -4.5928    1.5821 H   0  0  0  0  0  0  0  0  0  0  0  0
    4.0597   -6.0664    1.0668 H   0  0  0  0  0  0  0  0  0  0  0  0
    5.7027   -5.4914    1.2782 H   0  0  0  0  0  0  0  0  0  0  0  0
    5.1796   -5.0644    3.4539 H   0  0  0  0  0  0  0  0  0  0  0  0
    4.6926   -4.3365   -0.9328 H   0  0  0  0  0  0  0  0  0  0  0  0
    3.2089   -0.5519    0.1696 H   0  0  0  0  0  0  0  0  0  0  0  0
    2.4403   -5.2046   -1.3978 H   0  0  0  0  0  0  0  0  0  0  0  0
  1  2  1  0
  1 21  1  0
  1 22  1  0
  1 23  1  0
  2 20  1  0
  2  3  1  0
  2  4  1  0
  3 24  1  0
  3 25  1  0
  3 26  1  0
  4 16  1  0
  4  5  1  0
  4 27  1  1
  5  6  1  0
  5 28  1  0
  5 29  1  0
  6  7  1  0
  6  8  1  0
  6 30  1  1
  7 31  1  0
  8 19  1  0
  8 20  1  0
  8  9  1  6
  9 10  1  0
  9 32  1  0
  9 33  1  0
 10 11  1  0
 10 34  1  0
 10 35  1  0
 11 12  1  0
 11 36  1  0
 11 37  1  0
 12 19  1  0
 12 13  1  1
 12 14  1  0
 13 46  1  0
 14 15  1  0
 14 20  1  0
 14 38  1  6
 15 16  1  0
 15 39  1  0
 15 40  1  0
 16 17  1  6
 16 19  1  0
 17 18  1  0
 17 41  1  0
 17 42  1  0
 18 43  1  0
 19 44  1  6
 20 45  1  6
M  CHG  1  12   1
M  END
>  <i_m_ct_stereo_status>  (242) 
1

>  <s_m_source_file>  (242) 
/var/tmp/pbs.5076255.sched01/tmpwmgilt76/96rd2vfdyj.sdf

>  <i_m_source_file_index>  (242) 
8

>  <i_lp_mmshare_version>  (242) 
48012

>  <i_f3d_flags>  (242) 
0

>  <s_epik_input>  (242) 
W09IXVtDQEBIXTFbQ0gyXVtDQEhdKFtDQF0yKFtDSDJdMylbQ0gyXVtPSF0pQyhbQ0gzXSkoW0NIM10pW0NAQEhdNFtDQEhdM1tOK10oW08tXSkoW0NASF0yW0NAXTE0NSlbQ0gyXVtDSDJdW0NIMl01

>  <s_epik_cmdline>  (242) 
J2VwaWtfcHl0aG9uJywgJy1waHQnLCAnMi4wJywgJy1waCcsICc3LjAnLCAnLXRuJywgJzgnLCAnLW1hJywgJzIwMCcsICctaW1hZScsICc8aW5maWxlLm1hZT4nLCAnLW9tYWUnLCAnPG91dGZpbGUubWFlPic=

>  <r_epik_Ionization_Penalty>  (242) 
1.37909

>  <r_epik_Ionization_Penalty_Charging>  (242) 
0

>  <r_epik_Ionization_Penalty_Neutral>  (242) 
1.37909

>  <r_epik_State_Penalty>  (242) 
1.45945

>  <r_epik_Charging_Adjusted_Penalty>  (242) 
1.45945

>  <i_epik_Tot_Q>  (242) 
1

>  <i_epik_Tot_abs_Q>  (242) 
1

>  <s_epik_Chemistry_Notes>  (242) 
This compound has a N-S or N-O group and may undergo hydrolysis at high or low pH.

>  <s_lp_Force_Field>  (242) 
OPLS3e

>  <r_lp_Energy>  (242) 
108.09

>  <b_lp_Chiralities_Consistent>  (242) 
1

>  <s_lp_Variant>  (242) 
60:0-4

>  <s_i_glide_gridfile>  (242) 
pfpi4k_grid

>  <i_i_glide_lignum>  (242) 
8

>  <i_i_glide_rotatable_bonds>  (242) 
4

>  <r_i_docking_score>  (242) 
-4.11151

>  <r_i_glide_ligand_efficiency>  (242) 
-0.205575

>  <r_i_glide_ligand_efficiency_sa>  (242) 
-0.558018

>  <r_i_glide_ligand_efficiency_ln>  (242) 
-1.02898

>  <r_i_glide_gscore>  (242) 
-4.11151

>  <r_i_glide_lipo>  (242) 
-0.317601

>  <r_i_glide_hbond>  (242) 
-0.32

>  <r_i_glide_metal>  (242) 
-0

>  <r_i_glide_rewards>  (242) 
-1.49739

>  <r_i_glide_evdw>  (242) 
-10.2453

>  <r_i_glide_ecoul>  (242) 
-11.2002

>  <r_i_glide_erotb>  (242) 
0.229718

>  <r_i_glide_esite>  (242) 
-0.0139373

>  <r_i_glide_emodel>  (242) 
-26.1145

>  <r_i_glide_energy>  (242) 
-21.4455

>  <r_i_glide_einternal>  (242) 
3.0191

>  <r_i_glide_intrahb_reward>  (242) 
-0

>  <i_i_glide_confnum>  (242) 
1

>  <i_i_glide_posenum>  (242) 
1

>  <r_i_glide_eff_state_penalty>  (242) 
0

>  <ligand_id>  (242) 
60

>  <original_smiles>  (242) 
CC1(C)C2CC(O)C34CCC[N+]5([O-])C(CC2(CO)C35)C14

>  <smiles>  (242) 
[H]OC([H])([H])C12C([H])([H])C3([H])C4([H])C(C([H])([H])[H])(C([H])([H])[H])C1([H])C([H])([H])C([H])(O[H])C41C([H])([H])C([H])([H])C([H])([H])[N+]3(O[H])C21[H]

$$$$
60:3:1
     RDKit          3D

 46 50  0  0  1  0  0  0  0  0999 V2000
    3.8635   -1.4762    3.0661 C   0  0  0  0  0  0  0  0  0  0  0  0
    4.7136   -1.7786    1.7872 C   0  0  0  0  0  0  0  0  0  0  0  0
    5.7736   -0.6414    1.8572 C   0  0  0  0  0  0  0  0  0  0  0  0
    5.3138   -3.2482    1.7319 C   0  0  2  0  0  0  0  0  0  0  0  0
    6.6000   -3.2363    0.8928 C   0  0  0  0  0  0  0  0  0  0  0  0
    6.2780   -2.6200   -0.4790 C   0  0  1  0  0  0  0  0  0  0  0  0
    6.8561   -3.4101   -1.4939 O   0  0  0  0  0  0  0  0  0  0  0  0
    4.7442   -2.4576   -0.6930 C   0  0  1  0  0  0  0  0  0  0  0  0
    4.5231   -1.7893   -2.0709 C   0  0  0  0  0  0  0  0  0  0  0  0
    3.0452   -1.5857   -2.3433 C   0  0  0  0  0  0  0  0  0  0  0  0
    2.3001   -2.8734   -2.0252 C   0  0  0  0  0  0  0  0  0  0  0  0
    2.6668   -3.5361   -0.7338 N   0  0  2  0  0  0  0  0  0  0  0  0
    1.8360   -4.7245   -0.7121 O   0  0  0  0  0  0  0  0  0  0  0  0
    2.6183   -2.7499    0.5294 C   0  0  1  0  0  0  0  0  0  0  0  0
    2.9224   -3.8832    1.5539 C   0  0  0  0  0  0  0  0  0  0  0  0
    4.3004   -4.2507    1.0081 C   0  0  2  0  0  0  0  0  0  0  0  0
    4.6408   -5.7445    1.2015 C   0  0  0  0  0  0  0  0  0  0  0  0
    4.6802   -6.0885    2.5702 O   0  0  0  0  0  0  0  0  0  0  0  0
    4.0992   -3.8521   -0.5416 C   0  0  2  0  0  0  0  0  0  0  0  0
    3.8899   -1.7586    0.4551 C   0  0  1  0  0  0  0  0  0  0  0  0
    4.0937   -2.1747    3.8708 H   0  0  0  0  0  0  0  0  0  0  0  0
    2.7897   -1.5015    2.8885 H   0  0  0  0  0  0  0  0  0  0  0  0
    4.0417   -0.4899    3.4929 H   0  0  0  0  0  0  0  0  0  0  0  0
    6.3894   -0.4977    0.9830 H   0  0  0  0  0  0  0  0  0  0  0  0
    6.4477   -0.7722    2.7043 H   0  0  0  0  0  0  0  0  0  0  0  0
    5.2838    0.3198    1.9842 H   0  0  0  0  0  0  0  0  0  0  0  0
    5.5473   -3.5879    2.7392 H   0  0  0  0  0  0  0  0  0  0  0  0
    7.3847   -2.6529    1.3643 H   0  0  0  0  0  0  0  0  0  0  0  0
    7.0150   -4.2406    0.8156 H   0  0  0  0  0  0  0  0  0  0  0  0
    6.7770   -1.6633   -0.5911 H   0  0  0  0  0  0  0  0  0  0  0  0
    6.4038   -4.2367   -1.5259 H   0  0  0  0  0  0  0  0  0  0  0  0
    5.0307   -0.8260   -2.1300 H   0  0  0  0  0  0  0  0  0  0  0  0
    4.9364   -2.4158   -2.8619 H   0  0  0  0  0  0  0  0  0  0  0  0
    2.6380   -0.7478   -1.7769 H   0  0  0  0  0  0  0  0  0  0  0  0
    2.8771   -1.3315   -3.3890 H   0  0  0  0  0  0  0  0  0  0  0  0
    1.2305   -2.6881   -2.0422 H   0  0  0  0  0  0  0  0  0  0  0  0
    2.4834   -3.5868   -2.8308 H   0  0  0  0  0  0  0  0  0  0  0  0
    1.6733   -2.2539    0.7471 H   0  0  0  0  0  0  0  0  0  0  0  0
    2.9214   -3.6146    2.5999 H   0  0  0  0  0  0  0  0  0  0  0  0
    2.2188   -4.7159    1.5451 H   0  0  0  0  0  0  0  0  0  0  0  0
    3.8925   -6.3702    0.7122 H   0  0  0  0  0  0  0  0  0  0  0  0
    5.6023   -5.9867    0.7490 H   0  0  0  0  0  0  0  0  0  0  0  0
    4.8819   -7.0101    2.6385 H   0  0  0  0  0  0  0  0  0  0  0  0
    4.4807   -4.5936   -1.2461 H   0  0  0  0  0  0  0  0  0  0  0  0
    3.5964   -0.7383    0.2069 H   0  0  0  0  0  0  0  0  0  0  0  0
    2.2248   -5.2486   -1.4135 H   0  0  0  0  0  0  0  0  0  0  0  0
  1  2  1  0
  1 21  1  0
  1 22  1  0
  1 23  1  0
  2 20  1  0
  2  3  1  0
  2  4  1  0
  3 24  1  0
  3 25  1  0
  3 26  1  0
  4 16  1  0
  4  5  1  0
  4 27  1  1
  5  6  1  0
  5 28  1  0
  5 29  1  0
  6  7  1  0
  6  8  1  0
  6 30  1  1
  7 31  1  0
  8 19  1  0
  8 20  1  0
  8  9  1  6
  9 10  1  0
  9 32  1  0
  9 33  1  0
 10 11  1  0
 10 34  1  0
 10 35  1  0
 11 12  1  0
 11 36  1  0
 11 37  1  0
 12 19  1  0
 12 13  1  1
 12 14  1  0
 13 46  1  0
 14 15  1  0
 14 20  1  0
 14 38  1  1
 15 16  1  0
 15 39  1  0
 15 40  1  0
 16 17  1  6
 16 19  1  0
 17 18  1  0
 17 41  1  0
 17 42  1  0
 18 43  1  0
 19 44  1  6
 20 45  1  6
M  CHG  1  12   1
M  END
>  <i_m_ct_stereo_status>  (243) 
1

>  <s_m_source_file>  (243) 
/var/tmp/pbs.5076255.sched01/tmpwmgilt76/96rd2vfdyj.sdf

>  <i_m_source_file_index>  (243) 
8

>  <i_lp_mmshare_version>  (243) 
48012

>  <i_f3d_flags>  (243) 
0

>  <s_epik_input>  (243) 
W09IXVtDQEBIXTFbQ0gyXVtDQEhdKFtDQF0yKFtDSDJdMylbQ0gyXVtPSF0pQyhbQ0gzXSkoW0NIM10pW0NAQEhdNFtDQEhdM1tOK10oW08tXSkoW0NASF0yW0NAXTE0NSlbQ0gyXVtDSDJdW0NIMl01

>  <s_epik_cmdline>  (243) 
J2VwaWtfcHl0aG9uJywgJy1waHQnLCAnMi4wJywgJy1waCcsICc3LjAnLCAnLXRuJywgJzgnLCAnLW1hJywgJzIwMCcsICctaW1hZScsICc8aW5maWxlLm1hZT4nLCAnLW9tYWUnLCAnPG91dGZpbGUubWFlPic=

>  <r_epik_Ionization_Penalty>  (243) 
1.37909

>  <r_epik_Ionization_Penalty_Charging>  (243) 
0

>  <r_epik_Ionization_Penalty_Neutral>  (243) 
1.37909

>  <r_epik_State_Penalty>  (243) 
1.45945

>  <r_epik_Charging_Adjusted_Penalty>  (243) 
1.45945

>  <i_epik_Tot_Q>  (243) 
1

>  <i_epik_Tot_abs_Q>  (243) 
1

>  <s_epik_Chemistry_Notes>  (243) 
This compound has a N-S or N-O group and may undergo hydrolysis at high or low pH.

>  <s_lp_Force_Field>  (243) 
OPLS3e

>  <r_lp_Energy>  (243) 
108.09

>  <b_lp_Chiralities_Consistent>  (243) 
1

>  <s_lp_Variant>  (243) 
60:0-4

>  <s_i_glide_gridfile>  (243) 
pfpi4k_grid

>  <i_i_glide_lignum>  (243) 
8

>  <i_i_glide_rotatable_bonds>  (243) 
4

>  <r_i_docking_score>  (243) 
-4.03613

>  <r_i_glide_ligand_efficiency>  (243) 
-0.201806

>  <r_i_glide_ligand_efficiency_sa>  (243) 
-0.547787

>  <r_i_glide_ligand_efficiency_ln>  (243) 
-1.01011

>  <r_i_glide_gscore>  (243) 
-4.03613

>  <r_i_glide_lipo>  (243) 
-0.321499

>  <r_i_glide_hbond>  (243) 
-0.326322

>  <r_i_glide_metal>  (243) 
-0

>  <r_i_glide_rewards>  (243) 
-1.49739

>  <r_i_glide_evdw>  (243) 
-12.7601

>  <r_i_glide_ecoul>  (243) 
-9.75268

>  <r_i_glide_erotb>  (243) 
0.229718

>  <r_i_glide_esite>  (243) 
-0.0197228

>  <r_i_glide_emodel>  (243) 
-26.8706

>  <r_i_glide_energy>  (243) 
-22.5128

>  <r_i_glide_einternal>  (243) 
3.44694

>  <r_i_glide_intrahb_reward>  (243) 
-0

>  <i_i_glide_confnum>  (243) 
1

>  <i_i_glide_posenum>  (243) 
28

>  <r_i_glide_eff_state_penalty>  (243) 
0

>  <ligand_id>  (243) 
60

>  <original_smiles>  (243) 
CC1(C)C2CC(O)C34CCC[N+]5([O-])C(CC2(CO)C35)C14

>  <smiles>  (243) 
[H]OC([H])([H])C12C([H])([H])C3([H])C4([H])C(C([H])([H])[H])(C([H])([H])[H])C1([H])C([H])([H])C([H])(O[H])C41C([H])([H])C([H])([H])C([H])([H])[N+]3(O[H])C21[H]

$$$$
60:3:2
     RDKit          3D

 46 50  0  0  1  0  0  0  0  0999 V2000
    7.7494   -4.0948    0.4812 C   0  0  0  0  0  0  0  0  0  0  0  0
    6.2190   -4.1060    0.8188 C   0  0  0  0  0  0  0  0  0  0  0  0
    6.0438   -5.5507    1.3821 C   0  0  0  0  0  0  0  0  0  0  0  0
    5.7656   -2.9483    1.8005 C   0  0  2  0  0  0  0  0  0  0  0  0
    4.5369   -3.3992    2.6006 C   0  0  0  0  0  0  0  0  0  0  0  0
    3.4473   -3.8241    1.6026 C   0  0  1  0  0  0  0  0  0  0  0  0
    2.2205   -3.2476    2.0052 O   0  0  0  0  0  0  0  0  0  0  0  0
    3.8312   -3.4321    0.1370 C   0  0  1  0  0  0  0  0  0  0  0  0
    2.7324   -3.9442   -0.8088 C   0  0  0  0  0  0  0  0  0  0  0  0
    3.0549   -3.6051   -2.2564 C   0  0  0  0  0  0  0  0  0  0  0  0
    3.4584   -2.1636   -2.3615 C   0  0  0  0  0  0  0  0  0  0  0  0
    4.4205   -1.6992   -1.3310 N   0  0  2  0  0  0  0  0  0  0  0  0
    4.6207   -0.3244   -1.6906 O   0  0  0  0  0  0  0  0  0  0  0  0
    5.6937   -2.4394   -1.1493 C   0  0  1  0  0  0  0  0  0  0  0  0
    6.3901   -1.5069   -0.1007 C   0  0  0  0  0  0  0  0  0  0  0  0
    5.3406   -1.6383    0.9935 C   0  0  2  0  0  0  0  0  0  0  0  0
    5.2121   -0.3620    1.8666 C   0  0  0  0  0  0  0  0  0  0  0  0
    6.2082   -0.2618    2.8714 O   0  0  0  0  0  0  0  0  0  0  0  0
    4.0319   -1.9049    0.0870 C   0  0  2  0  0  0  0  0  0  0  0  0
    5.2863   -3.8091   -0.4035 C   0  0  1  0  0  0  0  0  0  0  0  0
    8.3170   -3.5313    1.2237 H   0  0  0  0  0  0  0  0  0  0  0  0
    7.9777   -3.6835   -0.5019 H   0  0  0  0  0  0  0  0  0  0  0  0
    8.2103   -5.0828    0.4759 H   0  0  0  0  0  0  0  0  0  0  0  0
    5.0274   -5.8832    1.5373 H   0  0  0  0  0  0  0  0  0  0  0  0
    6.5634   -5.6620    2.3357 H   0  0  0  0  0  0  0  0  0  0  0  0
    6.4592   -6.2999    0.7065 H   0  0  0  0  0  0  0  0  0  0  0  0
    6.5825   -2.7278    2.4756 H   0  0  0  0  0  0  0  0  0  0  0  0
    4.7816   -4.2218    3.2720 H   0  0  0  0  0  0  0  0  0  0  0  0
    4.2037   -2.5943    3.2554 H   0  0  0  0  0  0  0  0  0  0  0  0
    3.2616   -4.8941    1.6665 H   0  0  0  0  0  0  0  0  0  0  0  0
    2.2595   -2.3130    1.8784 H   0  0  0  0  0  0  0  0  0  0  0  0
    2.6053   -5.0221   -0.6903 H   0  0  0  0  0  0  0  0  0  0  0  0
    1.7771   -3.4907   -0.5518 H   0  0  0  0  0  0  0  0  0  0  0  0
    3.8554   -4.2254   -2.6545 H   0  0  0  0  0  0  0  0  0  0  0  0
    2.1858   -3.7927   -2.8887 H   0  0  0  0  0  0  0  0  0  0  0  0
    3.8625   -1.9789   -3.3557 H   0  0  0  0  0  0  0  0  0  0  0  0
    2.5568   -1.5515   -2.2923 H   0  0  0  0  0  0  0  0  0  0  0  0
    6.2668   -2.5675   -2.0669 H   0  0  0  0  0  0  0  0  0  0  0  0
    7.3964   -1.7514    0.2171 H   0  0  0  0  0  0  0  0  0  0  0  0
    6.5106   -0.4643   -0.3707 H   0  0  0  0  0  0  0  0  0  0  0  0
    5.2434    0.5279    1.2359 H   0  0  0  0  0  0  0  0  0  0  0  0
    4.2419   -0.3453    2.3633 H   0  0  0  0  0  0  0  0  0  0  0  0
    7.0155    0.0595    2.4804 H   0  0  0  0  0  0  0  0  0  0  0  0
    3.1480   -1.3363    0.3826 H   0  0  0  0  0  0  0  0  0  0  0  0
    5.2880   -4.6612   -1.0839 H   0  0  0  0  0  0  0  0  0  0  0  0
    3.7295   -0.0337   -1.8288 H   0  0  0  0  0  0  0  0  0  0  0  0
  1  2  1  0
  1 21  1  0
  1 22  1  0
  1 23  1  0
  2 20  1  0
  2  3  1  0
  2  4  1  0
  3 24  1  0
  3 25  1  0
  3 26  1  0
  4 16  1  0
  4  5  1  0
  4 27  1  1
  5  6  1  0
  5 28  1  0
  5 29  1  0
  6  7  1  0
  6  8  1  0
  6 30  1  6
  7 31  1  0
  8 19  1  0
  8 20  1  0
  8  9  1  6
  9 10  1  0
  9 32  1  0
  9 33  1  0
 10 11  1  0
 10 34  1  0
 10 35  1  0
 11 12  1  0
 11 36  1  0
 11 37  1  0
 12 19  1  0
 12 13  1  1
 12 14  1  0
 13 46  1  0
 14 15  1  0
 14 20  1  0
 14 38  1  6
 15 16  1  0
 15 39  1  0
 15 40  1  0
 16 17  1  1
 16 19  1  0
 17 18  1  0
 17 41  1  0
 17 42  1  0
 18 43  1  0
 19 44  1  1
 20 45  1  6
M  CHG  1  12   1
M  END
>  <i_m_ct_stereo_status>  (244) 
1

>  <s_m_source_file>  (244) 
/var/tmp/pbs.5076255.sched01/tmpwmgilt76/96rd2vfdyj.sdf

>  <i_m_source_file_index>  (244) 
8

>  <i_lp_mmshare_version>  (244) 
48012

>  <i_f3d_flags>  (244) 
0

>  <s_epik_input>  (244) 
W09IXVtDQEBIXTFbQ0gyXVtDQEhdKFtDQF0yKFtDSDJdMylbQ0gyXVtPSF0pQyhbQ0gzXSkoW0NIM10pW0NAQEhdNFtDQEhdM1tOK10oW08tXSkoW0NASF0yW0NAXTE0NSlbQ0gyXVtDSDJdW0NIMl01

>  <s_epik_cmdline>  (244) 
J2VwaWtfcHl0aG9uJywgJy1waHQnLCAnMi4wJywgJy1waCcsICc3LjAnLCAnLXRuJywgJzgnLCAnLW1hJywgJzIwMCcsICctaW1hZScsICc8aW5maWxlLm1hZT4nLCAnLW9tYWUnLCAnPG91dGZpbGUubWFlPic=

>  <r_epik_Ionization_Penalty>  (244) 
1.37909

>  <r_epik_Ionization_Penalty_Charging>  (244) 
0

>  <r_epik_Ionization_Penalty_Neutral>  (244) 
1.37909

>  <r_epik_State_Penalty>  (244) 
1.45945

>  <r_epik_Charging_Adjusted_Penalty>  (244) 
1.45945

>  <i_epik_Tot_Q>  (244) 
1

>  <i_epik_Tot_abs_Q>  (244) 
1

>  <s_epik_Chemistry_Notes>  (244) 
This compound has a N-S or N-O group and may undergo hydrolysis at high or low pH.

>  <s_lp_Force_Field>  (244) 
OPLS3e

>  <r_lp_Energy>  (244) 
108.09

>  <b_lp_Chiralities_Consistent>  (244) 
1

>  <s_lp_Variant>  (244) 
60:0-4

>  <s_i_glide_gridfile>  (244) 
pfpi4k_grid

>  <i_i_glide_lignum>  (244) 
8

>  <i_i_glide_rotatable_bonds>  (244) 
4

>  <r_i_docking_score>  (244) 
-3.68202

>  <r_i_glide_ligand_efficiency>  (244) 
-0.184101

>  <r_i_glide_ligand_efficiency_sa>  (244) 
-0.499727

>  <r_i_glide_ligand_efficiency_ln>  (244) 
-0.921488

>  <r_i_glide_gscore>  (244) 
-3.68202

>  <r_i_glide_lipo>  (244) 
-0.733546

>  <r_i_glide_hbond>  (244) 
-0.434699

>  <r_i_glide_metal>  (244) 
-0

>  <r_i_glide_rewards>  (244) 
-1.49739

>  <r_i_glide_evdw>  (244) 
-8.09146

>  <r_i_glide_ecoul>  (244) 
-5.35638

>  <r_i_glide_erotb>  (244) 
0.229718

>  <r_i_glide_esite>  (244) 
-0.0380684

>  <r_i_glide_emodel>  (244) 
-16.3236

>  <r_i_glide_energy>  (244) 
-13.4478

>  <r_i_glide_einternal>  (244) 
4.52852

>  <r_i_glide_intrahb_reward>  (244) 
-0

>  <i_i_glide_confnum>  (244) 
4

>  <i_i_glide_posenum>  (244) 
15

>  <r_i_glide_eff_state_penalty>  (244) 
0

>  <ligand_id>  (244) 
60

>  <original_smiles>  (244) 
CC1(C)C2CC(O)C34CCC[N+]5([O-])C(CC2(CO)C35)C14

>  <smiles>  (244) 
[H]OC([H])([H])C12C([H])([H])C3([H])C4([H])C(C([H])([H])[H])(C([H])([H])[H])C1([H])C([H])([H])C([H])(O[H])C41C([H])([H])C([H])([H])C([H])([H])[N+]3(O[H])C21[H]

$$$$
62:0:0
     RDKit          3D

 68 74  0  0  1  0  0  0  0  0999 V2000
   -0.9578   -3.1839    6.2676 C   0  0  0  0  0  0  0  0  0  0  0  0
    0.4279   -3.8187    6.2613 C   0  0  0  0  0  0  0  0  0  0  0  0
    0.7898   -5.0848    6.5578 C   0  0  0  0  0  0  0  0  0  0  0  0
   -0.0446   -6.3673    6.3878 C   0  0  0  0  0  0  0  0  0  0  0  0
    0.7115   -7.5256    5.6024 C   0  0  1  0  0  0  0  0  0  0  0  0
    0.1201   -8.8199    5.8260 O   0  0  0  0  0  0  0  0  0  0  0  0
    0.9533   -9.9955    5.5491 C   0  0  0  0  0  0  0  0  0  0  0  0
    1.8105   -9.9134    4.2263 C   0  0  1  0  0  0  0  0  0  0  0  0
    0.9589  -10.2701    2.9980 C   0  0  0  0  0  0  0  0  0  0  0  0
   -0.3380   -9.4669    2.9704 C   0  0  0  0  0  0  0  0  0  0  0  0
   -0.1637   -7.9592    3.1994 C   0  0  1  0  0  0  0  0  0  0  0  0
   -1.5046   -7.3323    3.6234 C   0  0  0  0  0  0  0  0  0  0  0  0
    1.1013   -7.5130    4.0316 C   0  0  2  0  0  0  0  0  0  0  0  0
    2.3202   -8.4739    4.1623 C   0  0  1  0  0  0  0  0  0  0  0  0
    3.5260   -8.4192    5.1532 C   0  0  0  0  0  0  0  0  0  0  0  0
    3.0571   -7.8383    3.1368 O   0  0  0  0  0  0  0  0  0  0  0  0
    2.1690   -6.6929    3.1323 C   0  0  1  0  0  0  0  0  0  0  0  0
    2.1084   -6.6225    1.5801 C   0  0  0  0  0  0  0  0  0  0  0  0
    3.0855   -5.9567    0.9110 C   0  0  0  0  0  0  0  0  0  0  0  0
    4.2346   -5.1985    1.5940 C   0  0  0  0  0  0  0  0  0  0  0  0
    4.0916   -5.0359    3.1428 C   0  0  1  0  0  0  0  0  0  0  0  0
    4.7299   -3.7411    3.6389 C   0  0  0  0  0  0  0  0  0  0  0  0
    2.6012   -5.2306    3.4439 C   0  0  2  0  0  0  0  0  0  0  0  0
    1.8406   -4.7331    4.6253 C   0  0  1  0  0  0  0  0  0  0  0  0
    2.1809   -5.0764    6.0547 C   0  0  1  0  0  0  0  0  0  0  0  0
    2.7332   -3.7615    6.1916 O   0  0  0  0  0  0  0  0  0  0  0  0
    1.6170   -3.3916    5.4062 C   0  0  2  0  0  0  0  0  0  0  0  0
    1.7019   -1.9788    4.7683 C   0  0  0  0  0  0  0  0  0  0  0  0
    1.6535   -0.8284    5.7749 C   0  0  0  0  0  0  0  0  0  0  0  0
    0.7499   -1.7332    3.5715 C   0  0  0  0  0  0  0  0  0  0  0  0
   -0.9425   -2.3464    6.9648 H   0  0  0  0  0  0  0  0  0  0  0  0
   -1.7349   -3.8706    6.5743 H   0  0  0  0  0  0  0  0  0  0  0  0
   -1.2185   -2.7856    5.2885 H   0  0  0  0  0  0  0  0  0  0  0  0
   -0.2089   -6.7362    7.4048 H   0  0  0  0  0  0  0  0  0  0  0  0
   -1.0338   -6.1562    5.9923 H   0  0  0  0  0  0  0  0  0  0  0  0
    1.5729   -7.5961    6.2437 H   0  0  0  0  0  0  0  0  0  0  0  0
    1.6105  -10.1641    6.3992 H   0  0  0  0  0  0  0  0  0  0  0  0
    0.3007  -10.8731    5.5243 H   0  0  0  0  0  0  0  0  0  0  0  0
    2.6269  -10.6304    4.2723 H   0  0  0  0  0  0  0  0  0  0  0  0
    1.5426  -10.0776    2.0907 H   0  0  0  0  0  0  0  0  0  0  0  0
    0.7388  -11.3339    2.9810 H   0  0  0  0  0  0  0  0  0  0  0  0
   -0.8346   -9.6365    2.0067 H   0  0  0  0  0  0  0  0  0  0  0  0
   -1.0373   -9.8656    3.6839 H   0  0  0  0  0  0  0  0  0  0  0  0
   -0.1014   -7.5742    2.2023 H   0  0  0  0  0  0  0  0  0  0  0  0
   -1.8749   -7.7466    4.5521 H   0  0  0  0  0  0  0  0  0  0  0  0
   -2.2606   -7.5292    2.8593 H   0  0  0  0  0  0  0  0  0  0  0  0
   -1.4127   -6.2592    3.7302 H   0  0  0  0  0  0  0  0  0  0  0  0
    3.3156   -8.7920    6.1495 H   0  0  0  0  0  0  0  0  0  0  0  0
    3.9462   -7.4164    5.2569 H   0  0  0  0  0  0  0  0  0  0  0  0
    4.3461   -9.0400    4.7882 H   0  0  0  0  0  0  0  0  0  0  0  0
    1.3576   -7.1254    1.0013 H   0  0  0  0  0  0  0  0  0  0  0  0
    3.0731   -5.9141   -0.1747 H   0  0  0  0  0  0  0  0  0  0  0  0
    5.1821   -5.6888    1.3455 H   0  0  0  0  0  0  0  0  0  0  0  0
    4.2629   -4.2125    1.1321 H   0  0  0  0  0  0  0  0  0  0  0  0
    4.6349   -5.8625    3.6160 H   0  0  0  0  0  0  0  0  0  0  0  0
    4.2730   -2.8654    3.1785 H   0  0  0  0  0  0  0  0  0  0  0  0
    5.7912   -3.7158    3.4044 H   0  0  0  0  0  0  0  0  0  0  0  0
    4.6502   -3.6450    4.7168 H   0  0  0  0  0  0  0  0  0  0  0  0
    2.1438   -4.5562    2.7148 H   0  0  0  0  0  0  0  0  0  0  0  0
    0.8115   -4.9835    4.3018 H   0  0  0  0  0  0  0  0  0  0  0  0
    2.8671   -5.9047    6.2790 H   0  0  0  0  0  0  0  0  0  0  0  0
    2.6919   -1.9100    4.3224 H   0  0  0  0  0  0  0  0  0  0  0  0
    0.6700   -0.6985    6.2230 H   0  0  0  0  0  0  0  0  0  0  0  0
    1.9180    0.1097    5.2832 H   0  0  0  0  0  0  0  0  0  0  0  0
    2.3788   -0.9801    6.5750 H   0  0  0  0  0  0  0  0  0  0  0  0
   -0.2718   -1.5144    3.8827 H   0  0  0  0  0  0  0  0  0  0  0  0
    0.7347   -2.5803    2.8871 H   0  0  0  0  0  0  0  0  0  0  0  0
    1.0824   -0.8599    3.0042 H   0  0  0  0  0  0  0  0  0  0  0  0
  1  2  1  0
  1 31  1  0
  1 32  1  0
  1 33  1  0
  2 27  1  0
  2  3  2  0
  3 25  1  0
  3  4  1  0
  4  5  1  0
  4 34  1  0
  4 35  1  0
  5 13  1  0
  5  6  1  0
  5 36  1  1
  6  7  1  0
  7  8  1  0
  7 37  1  0
  7 38  1  0
  8 14  1  0
  8  9  1  0
  8 39  1  1
  9 10  1  0
  9 40  1  0
  9 41  1  0
 10 11  1  0
 10 42  1  0
 10 43  1  0
 11 12  1  0
 11 13  1  0
 11 44  1  6
 12 45  1  0
 12 46  1  0
 12 47  1  0
 13 17  1  6
 13 14  1  0
 14 15  1  1
 14 16  1  0
 15 48  1  0
 15 49  1  0
 15 50  1  0
 17 16  1  6
 17 23  1  0
 17 18  1  0
 18 19  2  0
 18 51  1  0
 19 20  1  0
 19 52  1  0
 20 21  1  0
 20 53  1  0
 20 54  1  0
 21 22  1  0
 21 23  1  0
 21 55  1  1
 22 56  1  0
 22 57  1  0
 22 58  1  0
 23 24  1  0
 23 59  1  6
 24 27  1  0
 24 25  1  0
 24 60  1  6
 25 26  1  0
 25 61  1  6
 26 27  1  0
 27 28  1  6
 28 29  1  0
 28 30  1  0
 28 62  1  0
 29 63  1  0
 29 64  1  0
 29 65  1  0
 30 66  1  0
 30 67  1  0
 30 68  1  0
M  END
>  <i_m_ct_stereo_status>  (245) 
1

>  <s_m_source_file>  (245) 
/var/tmp/pbs.5076255.sched01/tmpwmgilt76/96rd2vfdyj.sdf

>  <i_m_source_file_index>  (245) 
10

>  <i_lp_mmshare_version>  (245) 
48012

>  <i_f3d_flags>  (245) 
0

>  <s_epik_input>  (245) 
W0NIXTE9W0NIXVtDSDJdW0NAQEhdKFtDSDNdKVtDQEBIXShbQ0BAXTEyW0NAQF0zNDUpW0NASF02W0NAQEhdN0MoPUMoW0NIM10pW0NAXTYoTzcpW0NIXShbQ0gzXSlbQ0gzXSlbQ0gyXVtDQEhdM09bQ0gyXVtDQEhdKEM1KE8yKVtDSDNdKVtDSDJdW0NIMl1bQ0BIXTRbQ0gzXQ==

>  <s_epik_cmdline>  (245) 
J2VwaWtfcHl0aG9uJywgJy1waHQnLCAnMi4wJywgJy1waCcsICc3LjAnLCAnLXRuJywgJzgnLCAnLW1hJywgJzIwMCcsICctaW1hZScsICc8aW5maWxlLm1hZT4nLCAnLW9tYWUnLCAnPG91dGZpbGUubWFlPic=

>  <r_lp_tautomer_probability>  (245) 
1

>  <r_epik_Ionization_Penalty>  (245) 
1.44779e-11

>  <r_epik_Ionization_Penalty_Charging>  (245) 
0

>  <r_epik_Ionization_Penalty_Neutral>  (245) 
1.44779e-11

>  <r_epik_State_Penalty>  (245) 
-0

>  <r_epik_Charging_Adjusted_Penalty>  (245) 
0

>  <i_epik_Tot_Q>  (245) 
0

>  <i_epik_Tot_abs_Q>  (245) 
0

>  <s_lp_Force_Field>  (245) 
OPLS3e

>  <r_lp_Energy>  (245) 
183.412

>  <b_lp_Chiralities_Consistent>  (245) 
1

>  <s_lp_Variant>  (245) 
62:0-1

>  <s_i_glide_gridfile>  (245) 
pfpi4k_grid

>  <i_i_glide_lignum>  (245) 
10

>  <i_i_glide_rotatable_bonds>  (245) 
1

>  <r_i_docking_score>  (245) 
-1.98825

>  <r_i_glide_ligand_efficiency>  (245) 
-0.0662749

>  <r_i_glide_ligand_efficiency_sa>  (245) 
-0.205932

>  <r_i_glide_ligand_efficiency_ln>  (245) 
-0.451752

>  <r_i_glide_gscore>  (245) 
-1.98825

>  <r_i_glide_lipo>  (245) 
-0.171929

>  <r_i_glide_hbond>  (245) 
0

>  <r_i_glide_metal>  (245) 
-0

>  <r_i_glide_rewards>  (245) 
-0.609622

>  <r_i_glide_evdw>  (245) 
-20.98

>  <r_i_glide_ecoul>  (245) 
-1.05132

>  <r_i_glide_erotb>  (245) 
0

>  <r_i_glide_esite>  (245) 
0

>  <r_i_glide_emodel>  (245) 
-23.4738

>  <r_i_glide_energy>  (245) 
-22.0313

>  <r_i_glide_einternal>  (245) 
0.104698

>  <r_i_glide_intrahb_reward>  (245) 
-0

>  <i_i_glide_confnum>  (245) 
2

>  <i_i_glide_posenum>  (245) 
14

>  <r_i_glide_eff_state_penalty>  (245) 
0

>  <ligand_id>  (245) 
62

>  <original_smiles>  (245) 
CC1=C2CC3OCC4CCC(C)C35C4(C)OC53C=CCC(C)C3C3C2OC13C(C)C

>  <smiles>  (245) 
[H]C1=C([H])C23OC4(C([H])([H])[H])C5([H])C([H])([H])OC([H])(C([H])([H])C6=C(C([H])([H])[H])C7(C([H])(C([H])([H])[H])C([H])([H])[H])OC6([H])C7([H])C2([H])C([H])(C([H])([H])[H])C1([H])[H])C34C([H])(C([H])([H])[H])C([H])([H])C5([H])[H]

$$$$
62:0:1
     RDKit          3D

 68 74  0  0  1  0  0  0  0  0999 V2000
    0.1738   -3.4443    7.0963 C   0  0  0  0  0  0  0  0  0  0  0  0
    0.2998   -4.9315    7.4044 C   0  0  0  0  0  0  0  0  0  0  0  0
   -0.1863   -5.9871    6.7174 C   0  0  0  0  0  0  0  0  0  0  0  0
   -0.4521   -6.1021    5.2073 C   0  0  0  0  0  0  0  0  0  0  0  0
    0.1919   -7.3922    4.5400 C   0  0  1  0  0  0  0  0  0  0  0  0
   -0.4004   -7.6976    3.2611 O   0  0  0  0  0  0  0  0  0  0  0  0
   -0.2368   -9.0741    2.7786 C   0  0  0  0  0  0  0  0  0  0  0  0
    1.2051   -9.6895    2.9679 C   0  0  1  0  0  0  0  0  0  0  0  0
    2.1573   -9.2062    1.8621 C   0  0  0  0  0  0  0  0  0  0  0  0
    2.1034   -7.6889    1.7151 C   0  0  0  0  0  0  0  0  0  0  0  0
    2.2471   -6.9202    3.0418 C   0  0  1  0  0  0  0  0  0  0  0  0
    1.7412   -5.4686    2.8804 C   0  0  0  0  0  0  0  0  0  0  0  0
    1.7731   -7.6711    4.3454 C   0  0  2  0  0  0  0  0  0  0  0  0
    1.6683   -9.2230    4.3487 C   0  0  1  0  0  0  0  0  0  0  0  0
    0.9581  -10.1692    5.3629 C   0  0  0  0  0  0  0  0  0  0  0  0
    2.9208   -9.4065    4.9681 O   0  0  0  0  0  0  0  0  0  0  0  0
    2.9971   -8.0126    5.3477 C   0  0  1  0  0  0  0  0  0  0  0  0
    4.4948   -7.9000    4.9412 C   0  0  0  0  0  0  0  0  0  0  0  0
    5.4497   -8.2732    5.8310 C   0  0  0  0  0  0  0  0  0  0  0  0
    5.1574   -8.7397    7.2675 C   0  0  0  0  0  0  0  0  0  0  0  0
    3.6790   -8.5487    7.7357 C   0  0  1  0  0  0  0  0  0  0  0  0
    3.5865   -8.2788    9.2346 C   0  0  0  0  0  0  0  0  0  0  0  0
    3.0854   -7.4833    6.8089 C   0  0  2  0  0  0  0  0  0  0  0  0
    1.9231   -6.5954    7.0807 C   0  0  1  0  0  0  0  0  0  0  0  0
    0.5341   -7.0866    7.3979 C   0  0  1  0  0  0  0  0  0  0  0  0
    0.7602   -6.7327    8.7655 O   0  0  0  0  0  0  0  0  0  0  0  0
    1.4089   -5.6143    8.1949 C   0  0  2  0  0  0  0  0  0  0  0  0
    2.3372   -4.8185    9.1537 C   0  0  0  0  0  0  0  0  0  0  0  0
    1.6042   -4.0849   10.2763 C   0  0  0  0  0  0  0  0  0  0  0  0
    3.3816   -3.9065    8.4602 C   0  0  0  0  0  0  0  0  0  0  0  0
   -0.3192   -2.9561    7.9397 H   0  0  0  0  0  0  0  0  0  0  0  0
   -0.4026   -3.2474    6.2050 H   0  0  0  0  0  0  0  0  0  0  0  0
    1.1538   -2.9837    6.9720 H   0  0  0  0  0  0  0  0  0  0  0  0
   -1.5349   -6.2358    5.1224 H   0  0  0  0  0  0  0  0  0  0  0  0
   -0.2164   -5.1788    4.6836 H   0  0  0  0  0  0  0  0  0  0  0  0
   -0.2870   -8.1330    5.1568 H   0  0  0  0  0  0  0  0  0  0  0  0
   -0.9723   -9.7079    3.2683 H   0  0  0  0  0  0  0  0  0  0  0  0
   -0.5201   -9.0782    1.7226 H   0  0  0  0  0  0  0  0  0  0  0  0
    1.1549  -10.7734    2.9030 H   0  0  0  0  0  0  0  0  0  0  0  0
    3.1728   -9.5391    2.1042 H   0  0  0  0  0  0  0  0  0  0  0  0
    1.9257   -9.6826    0.9166 H   0  0  0  0  0  0  0  0  0  0  0  0
    2.9216   -7.3841    1.0451 H   0  0  0  0  0  0  0  0  0  0  0  0
    1.1987   -7.3990    1.1971 H   0  0  0  0  0  0  0  0  0  0  0  0
    3.2974   -6.7228    3.1019 H   0  0  0  0  0  0  0  0  0  0  0  0
    0.6936   -5.4343    2.6061 H   0  0  0  0  0  0  0  0  0  0  0  0
    2.3008   -4.9825    2.0724 H   0  0  0  0  0  0  0  0  0  0  0  0
    1.9063   -4.8830    3.7863 H   0  0  0  0  0  0  0  0  0  0  0  0
   -0.1014  -10.2413    5.2264 H   0  0  0  0  0  0  0  0  0  0  0  0
    1.1393   -9.9028    6.4079 H   0  0  0  0  0  0  0  0  0  0  0  0
    1.3183  -11.1949    5.2606 H   0  0  0  0  0  0  0  0  0  0  0  0
    4.8139   -7.5876    3.9649 H   0  0  0  0  0  0  0  0  0  0  0  0
    6.4976   -8.2220    5.5541 H   0  0  0  0  0  0  0  0  0  0  0  0
    5.4605   -9.7875    7.3714 H   0  0  0  0  0  0  0  0  0  0  0  0
    5.8143   -8.1587    7.9126 H   0  0  0  0  0  0  0  0  0  0  0  0
    3.1449   -9.4883    7.5446 H   0  0  0  0  0  0  0  0  0  0  0  0
    4.1335   -7.3791    9.5165 H   0  0  0  0  0  0  0  0  0  0  0  0
    4.0039   -9.1061    9.8041 H   0  0  0  0  0  0  0  0  0  0  0  0
    2.5562   -8.1716    9.5570 H   0  0  0  0  0  0  0  0  0  0  0  0
    3.8478   -6.7012    6.8607 H   0  0  0  0  0  0  0  0  0  0  0  0
    2.0076   -5.9201    6.2054 H   0  0  0  0  0  0  0  0  0  0  0  0
    0.2644   -8.1379    7.2166 H   0  0  0  0  0  0  0  0  0  0  0  0
    2.9489   -5.5607    9.6634 H   0  0  0  0  0  0  0  0  0  0  0  0
    1.0359   -3.2267    9.9209 H   0  0  0  0  0  0  0  0  0  0  0  0
    2.3204   -3.7212   11.0166 H   0  0  0  0  0  0  0  0  0  0  0  0
    0.9230   -4.7565   10.7995 H   0  0  0  0  0  0  0  0  0  0  0  0
    2.9546   -2.9658    8.1083 H   0  0  0  0  0  0  0  0  0  0  0  0
    3.8613   -4.4063    7.6193 H   0  0  0  0  0  0  0  0  0  0  0  0
    4.1662   -3.6336    9.1706 H   0  0  0  0  0  0  0  0  0  0  0  0
  1  2  1  0
  1 31  1  0
  1 32  1  0
  1 33  1  0
  2 27  1  0
  2  3  2  0
  3 25  1  0
  3  4  1  0
  4  5  1  0
  4 34  1  0
  4 35  1  0
  5 13  1  0
  5  6  1  0
  5 36  1  1
  6  7  1  0
  7  8  1  0
  7 37  1  0
  7 38  1  0
  8 14  1  0
  8  9  1  0
  8 39  1  1
  9 10  1  0
  9 40  1  0
  9 41  1  0
 10 11  1  0
 10 42  1  0
 10 43  1  0
 11 12  1  0
 11 13  1  0
 11 44  1  1
 12 45  1  0
 12 46  1  0
 12 47  1  0
 13 17  1  1
 13 14  1  0
 14 15  1  1
 14 16  1  0
 15 48  1  0
 15 49  1  0
 15 50  1  0
 17 16  1  1
 17 23  1  0
 17 18  1  0
 18 19  2  0
 18 51  1  0
 19 20  1  0
 19 52  1  0
 20 21  1  0
 20 53  1  0
 20 54  1  0
 21 22  1  0
 21 23  1  0
 21 55  1  1
 22 56  1  0
 22 57  1  0
 22 58  1  0
 23 24  1  0
 23 59  1  6
 24 27  1  0
 24 25  1  0
 24 60  1  6
 25 26  1  0
 25 61  1  1
 26 27  1  0
 27 28  1  1
 28 29  1  0
 28 30  1  0
 28 62  1  0
 29 63  1  0
 29 64  1  0
 29 65  1  0
 30 66  1  0
 30 67  1  0
 30 68  1  0
M  END
>  <i_m_ct_stereo_status>  (246) 
1

>  <s_m_source_file>  (246) 
/var/tmp/pbs.5076255.sched01/tmpwmgilt76/96rd2vfdyj.sdf

>  <i_m_source_file_index>  (246) 
10

>  <i_lp_mmshare_version>  (246) 
48012

>  <i_f3d_flags>  (246) 
0

>  <s_epik_input>  (246) 
W0NIXTE9W0NIXVtDSDJdW0NAQEhdKFtDSDNdKVtDQEBIXShbQ0BAXTEyW0NAQF0zNDUpW0NASF02W0NAQEhdN0MoPUMoW0NIM10pW0NAXTYoTzcpW0NIXShbQ0gzXSlbQ0gzXSlbQ0gyXVtDQEhdM09bQ0gyXVtDQEhdKEM1KE8yKVtDSDNdKVtDSDJdW0NIMl1bQ0BIXTRbQ0gzXQ==

>  <s_epik_cmdline>  (246) 
J2VwaWtfcHl0aG9uJywgJy1waHQnLCAnMi4wJywgJy1waCcsICc3LjAnLCAnLXRuJywgJzgnLCAnLW1hJywgJzIwMCcsICctaW1hZScsICc8aW5maWxlLm1hZT4nLCAnLW9tYWUnLCAnPG91dGZpbGUubWFlPic=

>  <r_lp_tautomer_probability>  (246) 
1

>  <r_epik_Ionization_Penalty>  (246) 
1.44779e-11

>  <r_epik_Ionization_Penalty_Charging>  (246) 
0

>  <r_epik_Ionization_Penalty_Neutral>  (246) 
1.44779e-11

>  <r_epik_State_Penalty>  (246) 
-0

>  <r_epik_Charging_Adjusted_Penalty>  (246) 
0

>  <i_epik_Tot_Q>  (246) 
0

>  <i_epik_Tot_abs_Q>  (246) 
0

>  <s_lp_Force_Field>  (246) 
OPLS3e

>  <r_lp_Energy>  (246) 
183.412

>  <b_lp_Chiralities_Consistent>  (246) 
1

>  <s_lp_Variant>  (246) 
62:0-1

>  <s_i_glide_gridfile>  (246) 
pfpi4k_grid

>  <i_i_glide_lignum>  (246) 
10

>  <i_i_glide_rotatable_bonds>  (246) 
1

>  <r_i_docking_score>  (246) 
-1.85806

>  <r_i_glide_ligand_efficiency>  (246) 
-0.0619352

>  <r_i_glide_ligand_efficiency_sa>  (246) 
-0.192447

>  <r_i_glide_ligand_efficiency_ln>  (246) 
-0.422171

>  <r_i_glide_gscore>  (246) 
-1.85806

>  <r_i_glide_lipo>  (246) 
-0.134711

>  <r_i_glide_hbond>  (246) 
0

>  <r_i_glide_metal>  (246) 
-0

>  <r_i_glide_rewards>  (246) 
-0.609622

>  <r_i_glide_evdw>  (246) 
-16.261

>  <r_i_glide_ecoul>  (246) 
-2.0045

>  <r_i_glide_erotb>  (246) 
0

>  <r_i_glide_esite>  (246) 
0

>  <r_i_glide_emodel>  (246) 
-19.7261

>  <r_i_glide_energy>  (246) 
-18.2655

>  <r_i_glide_einternal>  (246) 
0.0959101

>  <r_i_glide_intrahb_reward>  (246) 
-0

>  <i_i_glide_confnum>  (246) 
2

>  <i_i_glide_posenum>  (246) 
22

>  <r_i_glide_eff_state_penalty>  (246) 
0

>  <ligand_id>  (246) 
62

>  <original_smiles>  (246) 
CC1=C2CC3OCC4CCC(C)C35C4(C)OC53C=CCC(C)C3C3C2OC13C(C)C

>  <smiles>  (246) 
[H]C1=C([H])C23OC4(C([H])([H])[H])C5([H])C([H])([H])OC([H])(C([H])([H])C6=C(C([H])([H])[H])C7(C([H])(C([H])([H])[H])C([H])([H])[H])OC6([H])C7([H])C2([H])C([H])(C([H])([H])[H])C1([H])[H])C34C([H])(C([H])([H])[H])C([H])([H])C5([H])[H]

$$$$
62:0:2
     RDKit          3D

 68 74  0  0  1  0  0  0  0  0999 V2000
   -0.5067   -7.6460    3.0474 C   0  0  0  0  0  0  0  0  0  0  0  0
    0.9873   -7.5421    3.3735 C   0  0  0  0  0  0  0  0  0  0  0  0
    1.8858   -6.5948    3.0636 C   0  0  0  0  0  0  0  0  0  0  0  0
    1.6545   -5.0834    2.7833 C   0  0  0  0  0  0  0  0  0  0  0  0
    2.6150   -4.1378    3.6250 C   0  0  1  0  0  0  0  0  0  0  0  0
    2.6758   -2.8051    3.0646 O   0  0  0  0  0  0  0  0  0  0  0  0
    3.8071   -1.9685    3.4403 C   0  0  0  0  0  0  0  0  0  0  0  0
    4.2113   -2.0141    4.9572 C   0  0  1  0  0  0  0  0  0  0  0  0
    3.3103   -1.1133    5.8200 C   0  0  0  0  0  0  0  0  0  0  0  0
    1.8311   -1.3599    5.5339 C   0  0  0  0  0  0  0  0  0  0  0  0
    1.4219   -2.8491    5.5442 C   0  0  1  0  0  0  0  0  0  0  0  0
    0.0794   -3.0418    4.8229 C   0  0  0  0  0  0  0  0  0  0  0  0
    2.5670   -3.8852    5.2246 C   0  0  2  0  0  0  0  0  0  0  0  0
    4.0703   -3.4849    5.3607 C   0  0  1  0  0  0  0  0  0  0  0  0
    5.3405   -4.2182    4.8210 C   0  0  0  0  0  0  0  0  0  0  0  0
    4.1998   -4.0589    6.6576 O   0  0  0  0  0  0  0  0  0  0  0  0
    2.9336   -4.7898    6.5358 C   0  0  1  0  0  0  0  0  0  0  0  0
    2.4636   -4.4708    7.9966 C   0  0  0  0  0  0  0  0  0  0  0  0
    2.9184   -5.2572    8.9986 C   0  0  0  0  0  0  0  0  0  0  0  0
    3.7835   -6.5054    8.8172 C   0  0  0  0  0  0  0  0  0  0  0  0
    4.0071   -6.9537    7.3277 C   0  0  1  0  0  0  0  0  0  0  0  0
    4.2471   -8.4603    7.2909 C   0  0  0  0  0  0  0  0  0  0  0  0
    2.8053   -6.3374    6.5299 C   0  0  2  0  0  0  0  0  0  0  0  0
    2.1966   -6.8354    5.2532 C   0  0  1  0  0  0  0  0  0  0  0  0
    2.9774   -6.9720    3.9722 C   0  0  1  0  0  0  0  0  0  0  0  0
    2.9697   -8.4126    4.1789 O   0  0  0  0  0  0  0  0  0  0  0  0
    1.6227   -8.1616    4.6099 C   0  0  2  0  0  0  0  0  0  0  0  0
    0.8791   -9.2831    5.4192 C   0  0  0  0  0  0  0  0  0  0  0  0
    1.4738   -9.5690    6.7753 C   0  0  0  0  0  0  0  0  0  0  0  0
    0.7932  -10.6333    4.6642 C   0  0  0  0  0  0  0  0  0  0  0  0
   -0.6833   -8.5530    2.4716 H   0  0  0  0  0  0  0  0  0  0  0  0
   -0.8524   -6.8056    2.4526 H   0  0  0  0  0  0  0  0  0  0  0  0
   -1.1088   -7.7105    3.9533 H   0  0  0  0  0  0  0  0  0  0  0  0
    1.9144   -4.9480    1.7311 H   0  0  0  0  0  0  0  0  0  0  0  0
    0.6148   -4.8148    2.8851 H   0  0  0  0  0  0  0  0  0  0  0  0
    3.5548   -4.5369    3.2851 H   0  0  0  0  0  0  0  0  0  0  0  0
    4.6657   -2.2443    2.8259 H   0  0  0  0  0  0  0  0  0  0  0  0
    3.5781   -0.9442    3.1448 H   0  0  0  0  0  0  0  0  0  0  0  0
    5.2314   -1.6663    5.0798 H   0  0  0  0  0  0  0  0  0  0  0  0
    3.5338   -1.2747    6.8769 H   0  0  0  0  0  0  0  0  0  0  0  0
    3.5410   -0.0623    5.6271 H   0  0  0  0  0  0  0  0  0  0  0  0
    1.2297   -0.8083    6.2591 H   0  0  0  0  0  0  0  0  0  0  0  0
    1.5857   -0.9101    4.5724 H   0  0  0  0  0  0  0  0  0  0  0  0
    1.0990   -2.9928    6.5602 H   0  0  0  0  0  0  0  0  0  0  0  0
    0.1309   -2.7594    3.7718 H   0  0  0  0  0  0  0  0  0  0  0  0
   -0.6817   -2.4054    5.2767 H   0  0  0  0  0  0  0  0  0  0  0  0
   -0.2656   -4.0703    4.9050 H   0  0  0  0  0  0  0  0  0  0  0  0
    5.5437   -4.0546    3.7661 H   0  0  0  0  0  0  0  0  0  0  0  0
    5.3123   -5.3000    4.9799 H   0  0  0  0  0  0  0  0  0  0  0  0
    6.2388   -3.8741    5.3343 H   0  0  0  0  0  0  0  0  0  0  0  0
    1.8657   -3.6340    8.2388 H   0  0  0  0  0  0  0  0  0  0  0  0
    2.6034   -5.0392   10.0250 H   0  0  0  0  0  0  0  0  0  0  0  0
    4.7475   -6.3595    9.2990 H   0  0  0  0  0  0  0  0  0  0  0  0
    3.2918   -7.3087    9.3759 H   0  0  0  0  0  0  0  0  0  0  0  0
    4.9073   -6.4721    6.9483 H   0  0  0  0  0  0  0  0  0  0  0  0
    3.4787   -8.9839    7.8567 H   0  0  0  0  0  0  0  0  0  0  0  0
    5.2072   -8.7456    7.7137 H   0  0  0  0  0  0  0  0  0  0  0  0
    4.2323   -8.8245    6.2558 H   0  0  0  0  0  0  0  0  0  0  0  0
    1.9486   -6.5893    7.1580 H   0  0  0  0  0  0  0  0  0  0  0  0
    1.3144   -6.1617    5.1999 H   0  0  0  0  0  0  0  0  0  0  0  0
    3.9939   -6.5180    3.8758 H   0  0  0  0  0  0  0  0  0  0  0  0
   -0.1466   -8.9416    5.6044 H   0  0  0  0  0  0  0  0  0  0  0  0
    2.4528  -10.0487    6.6329 H   0  0  0  0  0  0  0  0  0  0  0  0
    0.8717  -10.2272    7.4012 H   0  0  0  0  0  0  0  0  0  0  0  0
    1.5957   -8.6281    7.3252 H   0  0  0  0  0  0  0  0  0  0  0  0
    1.7633  -11.1284    4.5932 H   0  0  0  0  0  0  0  0  0  0  0  0
    0.3681  -10.5389    3.6716 H   0  0  0  0  0  0  0  0  0  0  0  0
    0.1724  -11.3124    5.2479 H   0  0  0  0  0  0  0  0  0  0  0  0
  1  2  1  0
  1 31  1  0
  1 32  1  0
  1 33  1  0
  2 27  1  0
  2  3  2  0
  3 25  1  0
  3  4  1  0
  4  5  1  0
  4 34  1  0
  4 35  1  0
  5 13  1  0
  5  6  1  0
  5 36  1  1
  6  7  1  0
  7  8  1  0
  7 37  1  0
  7 38  1  0
  8 14  1  0
  8  9  1  0
  8 39  1  6
  9 10  1  0
  9 40  1  0
  9 41  1  0
 10 11  1  0
 10 42  1  0
 10 43  1  0
 11 12  1  0
 11 13  1  0
 11 44  1  1
 12 45  1  0
 12 46  1  0
 12 47  1  0
 13 17  1  1
 13 14  1  0
 14 15  1  6
 14 16  1  0
 15 48  1  0
 15 49  1  0
 15 50  1  0
 17 16  1  1
 17 23  1  0
 17 18  1  0
 18 19  2  0
 18 51  1  0
 19 20  1  0
 19 52  1  0
 20 21  1  0
 20 53  1  0
 20 54  1  0
 21 22  1  0
 21 23  1  0
 21 55  1  6
 22 56  1  0
 22 57  1  0
 22 58  1  0
 23 24  1  0
 23 59  1  1
 24 27  1  0
 24 25  1  0
 24 60  1  6
 25 26  1  0
 25 61  1  1
 26 27  1  0
 27 28  1  1
 28 29  1  0
 28 30  1  0
 28 62  1  0
 29 63  1  0
 29 64  1  0
 29 65  1  0
 30 66  1  0
 30 67  1  0
 30 68  1  0
M  END
>  <i_m_ct_stereo_status>  (247) 
1

>  <s_m_source_file>  (247) 
/var/tmp/pbs.5076255.sched01/tmpwmgilt76/96rd2vfdyj.sdf

>  <i_m_source_file_index>  (247) 
10

>  <i_lp_mmshare_version>  (247) 
48012

>  <i_f3d_flags>  (247) 
0

>  <s_epik_input>  (247) 
W0NIXTE9W0NIXVtDSDJdW0NAQEhdKFtDSDNdKVtDQEBIXShbQ0BAXTEyW0NAQF0zNDUpW0NASF02W0NAQEhdN0MoPUMoW0NIM10pW0NAXTYoTzcpW0NIXShbQ0gzXSlbQ0gzXSlbQ0gyXVtDQEhdM09bQ0gyXVtDQEhdKEM1KE8yKVtDSDNdKVtDSDJdW0NIMl1bQ0BIXTRbQ0gzXQ==

>  <s_epik_cmdline>  (247) 
J2VwaWtfcHl0aG9uJywgJy1waHQnLCAnMi4wJywgJy1waCcsICc3LjAnLCAnLXRuJywgJzgnLCAnLW1hJywgJzIwMCcsICctaW1hZScsICc8aW5maWxlLm1hZT4nLCAnLW9tYWUnLCAnPG91dGZpbGUubWFlPic=

>  <r_lp_tautomer_probability>  (247) 
1

>  <r_epik_Ionization_Penalty>  (247) 
1.44779e-11

>  <r_epik_Ionization_Penalty_Charging>  (247) 
0

>  <r_epik_Ionization_Penalty_Neutral>  (247) 
1.44779e-11

>  <r_epik_State_Penalty>  (247) 
-0

>  <r_epik_Charging_Adjusted_Penalty>  (247) 
0

>  <i_epik_Tot_Q>  (247) 
0

>  <i_epik_Tot_abs_Q>  (247) 
0

>  <s_lp_Force_Field>  (247) 
OPLS3e

>  <r_lp_Energy>  (247) 
183.412

>  <b_lp_Chiralities_Consistent>  (247) 
1

>  <s_lp_Variant>  (247) 
62:0-1

>  <s_i_glide_gridfile>  (247) 
pfpi4k_grid

>  <i_i_glide_lignum>  (247) 
10

>  <i_i_glide_rotatable_bonds>  (247) 
1

>  <r_i_docking_score>  (247) 
-1.18979

>  <r_i_glide_ligand_efficiency>  (247) 
-0.0396598

>  <r_i_glide_ligand_efficiency_sa>  (247) 
-0.123232

>  <r_i_glide_ligand_efficiency_ln>  (247) 
-0.270334

>  <r_i_glide_gscore>  (247) 
-1.18979

>  <r_i_glide_lipo>  (247) 
-0.019285

>  <r_i_glide_hbond>  (247) 
0

>  <r_i_glide_metal>  (247) 
-0

>  <r_i_glide_rewards>  (247) 
-0.609622

>  <r_i_glide_evdw>  (247) 
-13.6513

>  <r_i_glide_ecoul>  (247) 
0.811183

>  <r_i_glide_erotb>  (247) 
0

>  <r_i_glide_esite>  (247) 
0

>  <r_i_glide_emodel>  (247) 
-11.7563

>  <r_i_glide_energy>  (247) 
-12.8401

>  <r_i_glide_einternal>  (247) 
0.156388

>  <r_i_glide_intrahb_reward>  (247) 
-0

>  <i_i_glide_confnum>  (247) 
1

>  <i_i_glide_posenum>  (247) 
1

>  <r_i_glide_eff_state_penalty>  (247) 
0

>  <ligand_id>  (247) 
62

>  <original_smiles>  (247) 
CC1=C2CC3OCC4CCC(C)C35C4(C)OC53C=CCC(C)C3C3C2OC13C(C)C

>  <smiles>  (247) 
[H]C1=C([H])C23OC4(C([H])([H])[H])C5([H])C([H])([H])OC([H])(C([H])([H])C6=C(C([H])([H])[H])C7(C([H])(C([H])([H])[H])C([H])([H])[H])OC6([H])C7([H])C2([H])C([H])(C([H])([H])[H])C1([H])[H])C34C([H])(C([H])([H])[H])C([H])([H])C5([H])[H]

$$$$
63:0:0
     RDKit          3D

 55 59  0  0  1  0  0  0  0  0999 V2000
    3.1669    0.4600    1.3304 C   0  0  0  0  0  0  0  0  0  0  0  0
    2.7917   -0.7647    0.6962 O   0  0  0  0  0  0  0  0  0  0  0  0
    3.3327   -2.0648    1.0235 C   0  0  1  0  0  0  0  0  0  0  0  0
    2.6871   -3.0016   -0.0691 C   0  0  2  0  0  0  0  0  0  0  0  0
    3.2195   -4.4598   -0.1310 C   0  0  0  0  0  0  0  0  0  0  0  0
    4.6728   -4.6556    0.2179 C   0  0  0  0  0  0  0  0  0  0  0  0
    5.3900   -5.8722    0.2451 C   0  0  0  0  0  0  0  0  0  0  0  0
    6.7251   -5.8735    0.7142 C   0  0  0  0  0  0  0  0  0  0  0  0
    7.3346   -4.6832    1.1804 C   0  0  0  0  0  0  0  0  0  0  0  0
    8.6120   -4.7328    1.6624 O   0  0  0  0  0  0  0  0  0  0  0  0
    6.6243   -3.4718    1.1445 C   0  0  0  0  0  0  0  0  0  0  0  0
    5.3529   -3.5100    0.6322 C   0  0  0  0  0  0  0  0  0  0  0  0
    4.8327   -2.0959    0.6334 C   0  0  1  0  0  0  0  0  0  0  0  0
    5.0400   -1.4975   -0.7946 C   0  0  0  0  0  0  0  0  0  0  0  0
    4.2370   -2.2196   -1.8823 C   0  0  0  0  0  0  0  0  0  0  0  0
    2.8314   -2.3873   -1.4359 N   0  0  1  0  0  0  0  0  0  0  0  0
    1.9504   -2.9488   -2.5057 C   0  0  0  0  0  0  0  0  0  0  0  0
    5.8149   -1.4071    1.6099 C   0  0  1  0  0  0  0  0  0  0  0  0
    5.2663   -1.2563    3.0243 C   0  0  0  0  0  0  0  0  0  0  0  0
    4.0465   -1.6560    3.4374 C   0  0  0  0  0  0  0  0  0  0  0  0
    3.0052   -2.3581    2.5675 C   0  0  1  0  0  0  0  0  0  0  0  0
    1.5788   -1.8435    2.9342 C   0  0  0  0  0  0  0  0  0  0  0  0
    3.0904   -3.8617    3.0028 C   0  0  0  0  0  0  0  0  0  0  0  0
    2.5234   -4.2746    4.3907 C   0  0  0  0  0  0  0  0  0  0  0  0
    1.0144   -4.6161    4.3351 C   0  0  0  0  0  0  0  0  0  0  0  0
    0.2765   -4.0132    5.1443 O   0  0  0  0  0  0  0  0  0  0  0  0
    0.6160   -5.4486    3.4892 O   0  0  0  0  0  0  0  0  0  0  0  0
    6.9925   -2.2238    1.5417 O   0  0  0  0  0  0  0  0  0  0  0  0
    2.5655    1.2505    0.8867 H   0  0  0  0  0  0  0  0  0  0  0  0
    4.2113    0.7080    1.1753 H   0  0  0  0  0  0  0  0  0  0  0  0
    2.9517    0.5195    2.3939 H   0  0  0  0  0  0  0  0  0  0  0  0
    1.6289   -3.0345    0.0896 H   0  0  0  0  0  0  0  0  0  0  0  0
    2.6004   -5.1474    0.4312 H   0  0  0  0  0  0  0  0  0  0  0  0
    3.1045   -4.8023   -1.1232 H   0  0  0  0  0  0  0  0  0  0  0  0
    4.9151   -6.7882   -0.0922 H   0  0  0  0  0  0  0  0  0  0  0  0
    7.2861   -6.7929    0.7179 H   0  0  0  0  0  0  0  0  0  0  0  0
    8.8335   -4.0076    2.2334 H   0  0  0  0  0  0  0  0  0  0  0  0
    4.7588   -0.4403   -0.7989 H   0  0  0  0  0  0  0  0  0  0  0  0
    6.0940   -1.5219   -1.0784 H   0  0  0  0  0  0  0  0  0  0  0  0
    4.2529   -1.6520   -2.8097 H   0  0  0  0  0  0  0  0  0  0  0  0
    4.6736   -3.1961   -2.1056 H   0  0  0  0  0  0  0  0  0  0  0  0
    2.3059   -3.9034   -2.8980 H   0  0  0  0  0  0  0  0  0  0  0  0
    1.9040   -2.2651   -3.3528 H   0  0  0  0  0  0  0  0  0  0  0  0
    0.9374   -3.0854   -2.1329 H   0  0  0  0  0  0  0  0  0  0  0  0
    6.1105   -0.4199    1.2719 H   0  0  0  0  0  0  0  0  0  0  0  0
    5.9205   -0.7694    3.7277 H   0  0  0  0  0  0  0  0  0  0  0  0
    3.7548   -1.4857    4.4651 H   0  0  0  0  0  0  0  0  0  0  0  0
    0.8106   -2.4331    2.4411 H   0  0  0  0  0  0  0  0  0  0  0  0
    1.3577   -0.8045    2.7049 H   0  0  0  0  0  0  0  0  0  0  0  0
    1.4056   -1.9117    4.0034 H   0  0  0  0  0  0  0  0  0  0  0  0
    2.5439   -4.4773    2.3005 H   0  0  0  0  0  0  0  0  0  0  0  0
    4.1258   -4.1999    2.9501 H   0  0  0  0  0  0  0  0  0  0  0  0
    3.0177   -5.1879    4.7089 H   0  0  0  0  0  0  0  0  0  0  0  0
    2.7379   -3.5327    5.1618 H   0  0  0  0  0  0  0  0  0  0  0  0
    2.4172   -1.4686   -1.2747 H   0  0  0  0  0  0  0  0  0  0  0  0
  1  2  1  0
  1 29  1  0
  1 30  1  0
  1 31  1  0
  3  2  1  6
  3 13  1  0
  3 21  1  0
  3  4  1  0
  4 16  1  0
  4  5  1  0
  4 32  1  1
  5  6  1  0
  5 33  1  0
  5 34  1  0
  6 12  2  0
  6  7  1  0
  7  8  2  0
  7 35  1  0
  8  9  1  0
  8 36  1  0
  9 10  1  0
  9 11  2  0
 10 37  1  0
 11 28  1  0
 11 12  1  0
 12 13  1  0
 13 14  1  6
 13 18  1  0
 14 15  1  0
 14 38  1  0
 14 39  1  0
 15 16  1  0
 15 40  1  0
 15 41  1  0
 16 17  1  0
 16 55  1  1
 17 42  1  0
 17 43  1  0
 17 44  1  0
 18 19  1  0
 18 28  1  0
 18 45  1  6
 19 20  2  0
 19 46  1  0
 20 21  1  0
 20 47  1  0
 21 22  1  1
 21 23  1  0
 22 48  1  0
 22 49  1  0
 22 50  1  0
 23 24  1  0
 23 51  1  0
 23 52  1  0
 24 25  1  0
 24 53  1  0
 24 54  1  0
 25 26  2  0
 25 27  1  0
M  CHG  2  16   1  27  -1
M  END
>  <i_m_ct_stereo_status>  (248) 
1

>  <s_m_source_file>  (248) 
/var/tmp/pbs.5076255.sched01/tmpwmgilt76/96rd2vfdyj.sdf

>  <i_m_source_file_index>  (248) 
12

>  <i_lp_mmshare_version>  (248) 
48012

>  <i_f3d_flags>  (248) 
0

>  <s_epik_input>  (248) 
W0NIM11PW0NAXTEoW0NAQF0yMzQpW0NAQEhdKE4oW0NIM10pW0NIMl1bQ0gyXTMpW0NIMl1jNWMyYyhjKFtPSF0pW2NIXVtjSF01KU9bQ0BASF00W0NIXT1bQ0hdW0NAXTEoW0NIM10pW0NIMl1bQ0gyXUMoPU8pW09IXQ==

>  <s_epik_cmdline>  (248) 
J2VwaWtfcHl0aG9uJywgJy1waHQnLCAnMi4wJywgJy1waCcsICc3LjAnLCAnLXRuJywgJzgnLCAnLW1hJywgJzIwMCcsICctaW1hZScsICc8aW5maWxlLm1hZT4nLCAnLW9tYWUnLCAnPG91dGZpbGUubWFlPic=

>  <r_lp_tautomer_probability>  (248) 
1

>  <r_epik_Ionization_Penalty>  (248) 
0.266843

>  <r_epik_Ionization_Penalty_Charging>  (248) 
0.256704

>  <r_epik_Ionization_Penalty_Neutral>  (248) 
0.0101384

>  <r_epik_State_Penalty>  (248) 
0.25049

>  <r_epik_Charging_Adjusted_Penalty>  (248) 
0.507194

>  <i_epik_Tot_Q>  (248) 
0

>  <i_epik_Tot_abs_Q>  (248) 
2

>  <s_lp_Force_Field>  (248) 
OPLS3e

>  <r_lp_Energy>  (248) 
69.8724

>  <b_lp_Chiralities_Consistent>  (248) 
1

>  <s_lp_Variant>  (248) 
63:0-1

>  <s_i_glide_gridfile>  (248) 
pfpi4k_grid

>  <i_i_glide_lignum>  (248) 
12

>  <i_i_glide_rotatable_bonds>  (248) 
5

>  <r_i_docking_score>  (248) 
-2.84264

>  <r_i_glide_ligand_efficiency>  (248) 
-0.101523

>  <r_i_glide_ligand_efficiency_sa>  (248) 
-0.308283

>  <r_i_glide_ligand_efficiency_ln>  (248) 
-0.656164

>  <r_i_glide_gscore>  (248) 
-2.84264

>  <r_i_glide_lipo>  (248) 
-0.899473

>  <r_i_glide_hbond>  (248) 
-0.136273

>  <r_i_glide_metal>  (248) 
-0

>  <r_i_glide_rewards>  (248) 
-0.780999

>  <r_i_glide_evdw>  (248) 
-9.61788

>  <r_i_glide_ecoul>  (248) 
-4.85313

>  <r_i_glide_erotb>  (248) 
0.261864

>  <r_i_glide_esite>  (248) 
-0.0788922

>  <r_i_glide_emodel>  (248) 
-16.8522

>  <r_i_glide_energy>  (248) 
-14.471

>  <r_i_glide_einternal>  (248) 
3.26162

>  <r_i_glide_intrahb_reward>  (248) 
-0

>  <i_i_glide_confnum>  (248) 
1

>  <i_i_glide_posenum>  (248) 
9

>  <r_i_glide_eff_state_penalty>  (248) 
0

>  <ligand_id>  (248) 
63

>  <original_smiles>  (248) 
COC12C3Cc4ccc(O)c5c4C1(CCN3C)C(C=CC2(C)CCC(=O)O)O5

>  <smiles>  (248) 
[H]Oc1c([H])c([H])c2c3c1OC1([H])C([H])=C([H])C(C([H])([H])[H])(C([H])([H])C([H])([H])C(=O)[O-])C4(OC([H])([H])[H])C31C([H])([H])C([H])([H])[N+]([H])(C([H])([H])[H])C4([H])C2([H])[H]

$$$$
63:0:1
     RDKit          3D

 55 59  0  0  1  0  0  0  0  0999 V2000
    4.3109   -0.1942    1.2193 C   0  0  0  0  0  0  0  0  0  0  0  0
    3.4424   -1.1761    0.6442 O   0  0  0  0  0  0  0  0  0  0  0  0
    3.3306   -2.5244    1.1687 C   0  0  1  0  0  0  0  0  0  0  0  0
    2.4620   -3.2127    0.0490 C   0  0  2  0  0  0  0  0  0  0  0  0
    2.2908   -4.7615    0.1689 C   0  0  0  0  0  0  0  0  0  0  0  0
    3.4682   -5.5401    0.7320 C   0  0  0  0  0  0  0  0  0  0  0  0
    3.5404   -6.9215    0.9893 C   0  0  0  0  0  0  0  0  0  0  0  0
    4.6586   -7.4690    1.6597 C   0  0  0  0  0  0  0  0  0  0  0  0
    5.6664   -6.6215    2.1677 C   0  0  0  0  0  0  0  0  0  0  0  0
    6.7069   -7.1347    2.8784 O   0  0  0  0  0  0  0  0  0  0  0  0
    5.5761   -5.2328    1.9610 C   0  0  0  0  0  0  0  0  0  0  0  0
    4.5271   -4.7598    1.2107 C   0  0  0  0  0  0  0  0  0  0  0  0
    4.6941   -3.2723    1.0561 C   0  0  1  0  0  0  0  0  0  0  0  0
    5.3202   -3.0066   -0.3509 C   0  0  0  0  0  0  0  0  0  0  0  0
    4.3945   -3.4192   -1.5073 C   0  0  0  0  0  0  0  0  0  0  0  0
    3.0265   -2.8726   -1.3016 N   0  0  1  0  0  0  0  0  0  0  0  0
    2.1339   -3.1439   -2.4662 C   0  0  0  0  0  0  0  0  0  0  0  0
    5.7356   -2.9915    2.1744 C   0  0  1  0  0  0  0  0  0  0  0  0
    5.1239   -2.4022    3.4364 C   0  0  0  0  0  0  0  0  0  0  0  0
    3.8192   -2.1649    3.6456 C   0  0  0  0  0  0  0  0  0  0  0  0
    2.7129   -2.4539    2.6523 C   0  0  1  0  0  0  0  0  0  0  0  0
    1.6306   -1.3378    2.7382 C   0  0  0  0  0  0  0  0  0  0  0  0
    2.0425   -3.7719    3.1614 C   0  0  0  0  0  0  0  0  0  0  0  0
    1.4829   -3.8296    4.6141 C   0  0  0  0  0  0  0  0  0  0  0  0
    0.4661   -4.9599    4.8223 C   0  0  0  0  0  0  0  0  0  0  0  0
   -0.1061   -4.9647    5.9378 O   0  0  0  0  0  0  0  0  0  0  0  0
    0.2292   -5.7593    3.8902 O   0  0  0  0  0  0  0  0  0  0  0  0
    6.3722   -4.2540    2.4426 O   0  0  0  0  0  0  0  0  0  0  0  0
    4.2112    0.7279    0.6482 H   0  0  0  0  0  0  0  0  0  0  0  0
    5.3571   -0.4787    1.1796 H   0  0  0  0  0  0  0  0  0  0  0  0
    4.0731    0.0612    2.2488 H   0  0  0  0  0  0  0  0  0  0  0  0
    1.4960   -2.7320    0.0876 H   0  0  0  0  0  0  0  0  0  0  0  0
    1.4353   -5.0356    0.7746 H   0  0  0  0  0  0  0  0  0  0  0  0
    2.0332   -5.2031   -0.7837 H   0  0  0  0  0  0  0  0  0  0  0  0
    2.7225   -7.5624    0.7136 H   0  0  0  0  0  0  0  0  0  0  0  0
    4.7035   -8.5352    1.8180 H   0  0  0  0  0  0  0  0  0  0  0  0
    6.6610   -8.0734    2.9681 H   0  0  0  0  0  0  0  0  0  0  0  0
    5.5562   -1.9484   -0.4713 H   0  0  0  0  0  0  0  0  0  0  0  0
    6.2706   -3.5315   -0.4574 H   0  0  0  0  0  0  0  0  0  0  0  0
    4.7967   -3.0588   -2.4543 H   0  0  0  0  0  0  0  0  0  0  0  0
    4.3694   -4.5075   -1.5883 H   0  0  0  0  0  0  0  0  0  0  0  0
    2.0437   -4.2092   -2.7054 H   0  0  0  0  0  0  0  0  0  0  0  0
    2.5180   -2.6491   -3.3590 H   0  0  0  0  0  0  0  0  0  0  0  0
    1.1232   -2.7766   -2.3055 H   0  0  0  0  0  0  0  0  0  0  0  0
    6.4962   -2.2907    1.8272 H   0  0  0  0  0  0  0  0  0  0  0  0
    5.8164   -2.1652    4.2302 H   0  0  0  0  0  0  0  0  0  0  0  0
    3.5153   -1.7517    4.5957 H   0  0  0  0  0  0  0  0  0  0  0  0
    0.7648   -1.5760    2.1226 H   0  0  0  0  0  0  0  0  0  0  0  0
    1.9763   -0.3568    2.4281 H   0  0  0  0  0  0  0  0  0  0  0  0
    1.2788   -1.1790    3.7551 H   0  0  0  0  0  0  0  0  0  0  0  0
    1.2219   -3.9786    2.4897 H   0  0  0  0  0  0  0  0  0  0  0  0
    2.7486   -4.5988    3.1081 H   0  0  0  0  0  0  0  0  0  0  0  0
    2.2885   -3.9365    5.3398 H   0  0  0  0  0  0  0  0  0  0  0  0
    0.9510   -2.9270    4.8985 H   0  0  0  0  0  0  0  0  0  0  0  0
    3.1073   -1.8603   -1.2673 H   0  0  0  0  0  0  0  0  0  0  0  0
  1  2  1  0
  1 29  1  0
  1 30  1  0
  1 31  1  0
  3  2  1  6
  3 13  1  0
  3 21  1  0
  3  4  1  0
  4 16  1  0
  4  5  1  0
  4 32  1  6
  5  6  1  0
  5 33  1  0
  5 34  1  0
  6 12  2  0
  6  7  1  0
  7  8  2  0
  7 35  1  0
  8  9  1  0
  8 36  1  0
  9 10  1  0
  9 11  2  0
 10 37  1  0
 11 28  1  0
 11 12  1  0
 12 13  1  0
 13 14  1  6
 13 18  1  0
 14 15  1  0
 14 38  1  0
 14 39  1  0
 15 16  1  0
 15 40  1  0
 15 41  1  0
 16 17  1  0
 16 55  1  1
 17 42  1  0
 17 43  1  0
 17 44  1  0
 18 19  1  0
 18 28  1  0
 18 45  1  6
 19 20  2  0
 19 46  1  0
 20 21  1  0
 20 47  1  0
 21 22  1  6
 21 23  1  0
 22 48  1  0
 22 49  1  0
 22 50  1  0
 23 24  1  0
 23 51  1  0
 23 52  1  0
 24 25  1  0
 24 53  1  0
 24 54  1  0
 25 26  2  0
 25 27  1  0
M  CHG  2  16   1  27  -1
M  END
>  <i_m_ct_stereo_status>  (249) 
1

>  <s_m_source_file>  (249) 
/var/tmp/pbs.5076255.sched01/tmpwmgilt76/96rd2vfdyj.sdf

>  <i_m_source_file_index>  (249) 
12

>  <i_lp_mmshare_version>  (249) 
48012

>  <i_f3d_flags>  (249) 
0

>  <s_epik_input>  (249) 
W0NIM11PW0NAXTEoW0NAQF0yMzQpW0NAQEhdKE4oW0NIM10pW0NIMl1bQ0gyXTMpW0NIMl1jNWMyYyhjKFtPSF0pW2NIXVtjSF01KU9bQ0BASF00W0NIXT1bQ0hdW0NAXTEoW0NIM10pW0NIMl1bQ0gyXUMoPU8pW09IXQ==

>  <s_epik_cmdline>  (249) 
J2VwaWtfcHl0aG9uJywgJy1waHQnLCAnMi4wJywgJy1waCcsICc3LjAnLCAnLXRuJywgJzgnLCAnLW1hJywgJzIwMCcsICctaW1hZScsICc8aW5maWxlLm1hZT4nLCAnLW9tYWUnLCAnPG91dGZpbGUubWFlPic=

>  <r_lp_tautomer_probability>  (249) 
1

>  <r_epik_Ionization_Penalty>  (249) 
0.266843

>  <r_epik_Ionization_Penalty_Charging>  (249) 
0.256704

>  <r_epik_Ionization_Penalty_Neutral>  (249) 
0.0101384

>  <r_epik_State_Penalty>  (249) 
0.25049

>  <r_epik_Charging_Adjusted_Penalty>  (249) 
0.507194

>  <i_epik_Tot_Q>  (249) 
0

>  <i_epik_Tot_abs_Q>  (249) 
2

>  <s_lp_Force_Field>  (249) 
OPLS3e

>  <r_lp_Energy>  (249) 
69.8724

>  <b_lp_Chiralities_Consistent>  (249) 
1

>  <s_lp_Variant>  (249) 
63:0-1

>  <s_i_glide_gridfile>  (249) 
pfpi4k_grid

>  <i_i_glide_lignum>  (249) 
12

>  <i_i_glide_rotatable_bonds>  (249) 
5

>  <r_i_docking_score>  (249) 
-2.33193

>  <r_i_glide_ligand_efficiency>  (249) 
-0.0832833

>  <r_i_glide_ligand_efficiency_sa>  (249) 
-0.252897

>  <r_i_glide_ligand_efficiency_ln>  (249) 
-0.538279

>  <r_i_glide_gscore>  (249) 
-2.33193

>  <r_i_glide_lipo>  (249) 
-0.645089

>  <r_i_glide_hbond>  (249) 
-0.0222245

>  <r_i_glide_metal>  (249) 
-0

>  <r_i_glide_rewards>  (249) 
-0.780999

>  <r_i_glide_evdw>  (249) 
-12.5457

>  <r_i_glide_ecoul>  (249) 
-3.27171

>  <r_i_glide_erotb>  (249) 
0.261864

>  <r_i_glide_esite>  (249) 
-0.027444

>  <r_i_glide_emodel>  (249) 
-17.7606

>  <r_i_glide_energy>  (249) 
-15.8174

>  <r_i_glide_einternal>  (249) 
3.70656

>  <r_i_glide_intrahb_reward>  (249) 
-0

>  <i_i_glide_confnum>  (249) 
1

>  <i_i_glide_posenum>  (249) 
2

>  <r_i_glide_eff_state_penalty>  (249) 
0

>  <ligand_id>  (249) 
63

>  <original_smiles>  (249) 
COC12C3Cc4ccc(O)c5c4C1(CCN3C)C(C=CC2(C)CCC(=O)O)O5

>  <smiles>  (249) 
[H]Oc1c([H])c([H])c2c3c1OC1([H])C([H])=C([H])C(C([H])([H])[H])(C([H])([H])C([H])([H])C(=O)[O-])C4(OC([H])([H])[H])C31C([H])([H])C([H])([H])[N+]([H])(C([H])([H])[H])C4([H])C2([H])[H]

$$$$
63:0:2
     RDKit          3D

 55 59  0  0  1  0  0  0  0  0999 V2000
    6.1807   -0.4094    0.6679 C   0  0  0  0  0  0  0  0  0  0  0  0
    5.1065   -0.9556   -0.0973 O   0  0  0  0  0  0  0  0  0  0  0  0
    4.2262   -1.9893    0.4267 C   0  0  1  0  0  0  0  0  0  0  0  0
    3.4079   -2.3546   -0.8690 C   0  0  2  0  0  0  0  0  0  0  0  0
    2.5069   -3.6191   -0.7825 C   0  0  0  0  0  0  0  0  0  0  0  0
    2.9964   -4.7469    0.1114 C   0  0  0  0  0  0  0  0  0  0  0  0
    2.3057   -5.9319    0.4243 C   0  0  0  0  0  0  0  0  0  0  0  0
    2.8131   -6.8046    1.4164 C   0  0  0  0  0  0  0  0  0  0  0  0
    3.9830   -6.4635    2.1550 C   0  0  0  0  0  0  0  0  0  0  0  0
    4.3805   -7.2496    3.1860 O   0  0  0  0  0  0  0  0  0  0  0  0
    4.6648   -5.2672    1.8664 C   0  0  0  0  0  0  0  0  0  0  0  0
    4.1736   -4.4860    0.8476 C   0  0  0  0  0  0  0  0  0  0  0  0
    5.0541   -3.2843    0.7172 C   0  0  1  0  0  0  0  0  0  0  0  0
    6.0233   -3.5668   -0.4715 C   0  0  0  0  0  0  0  0  0  0  0  0
    5.2917   -3.6980   -1.8146 C   0  0  0  0  0  0  0  0  0  0  0  0
    4.3590   -2.5464   -2.0204 N   0  0  1  0  0  0  0  0  0  0  0  0
    3.7148   -2.5613   -3.3727 C   0  0  0  0  0  0  0  0  0  0  0  0
    5.8162   -3.3280    2.0746 C   0  0  1  0  0  0  0  0  0  0  0  0
    5.3382   -2.3027    3.1005 C   0  0  0  0  0  0  0  0  0  0  0  0
    4.3160   -1.4460    2.9261 C   0  0  0  0  0  0  0  0  0  0  0  0
    3.4290   -1.3896    1.6918 C   0  0  1  0  0  0  0  0  0  0  0  0
    3.0404    0.0943    1.4452 C   0  0  0  0  0  0  0  0  0  0  0  0
    2.0850   -2.0829    2.1337 C   0  0  0  0  0  0  0  0  0  0  0  0
    2.1841   -3.4687    2.8906 C   0  0  0  0  0  0  0  0  0  0  0  0
    1.0086   -3.8124    3.8121 C   0  0  0  0  0  0  0  0  0  0  0  0
    0.4658   -2.9517    4.5324 O   0  0  0  0  0  0  0  0  0  0  0  0
    0.6088   -5.0016    3.7056 O   0  0  0  0  0  0  0  0  0  0  0  0
    5.6764   -4.6695    2.5697 O   0  0  0  0  0  0  0  0  0  0  0  0
    6.6722    0.3326    0.0211 H   0  0  0  0  0  0  0  0  0  0  0  0
    6.9353   -1.1335    0.9498 H   0  0  0  0  0  0  0  0  0  0  0  0
    5.8737    0.1104    1.5687 H   0  0  0  0  0  0  0  0  0  0  0  0
    2.8165   -1.4874   -1.1561 H   0  0  0  0  0  0  0  0  0  0  0  0
    1.5368   -3.3195   -0.4480 H   0  0  0  0  0  0  0  0  0  0  0  0
    2.2664   -4.0172   -1.7710 H   0  0  0  0  0  0  0  0  0  0  0  0
    1.3743   -6.1597   -0.0753 H   0  0  0  0  0  0  0  0  0  0  0  0
    2.2456   -7.6736    1.6753 H   0  0  0  0  0  0  0  0  0  0  0  0
    3.8726   -8.0396    3.2677 H   0  0  0  0  0  0  0  0  0  0  0  0
    6.7730   -2.7778   -0.5549 H   0  0  0  0  0  0  0  0  0  0  0  0
    6.5747   -4.4823   -0.2873 H   0  0  0  0  0  0  0  0  0  0  0  0
    6.0039   -3.7268   -2.6321 H   0  0  0  0  0  0  0  0  0  0  0  0
    4.7430   -4.6406   -1.8754 H   0  0  0  0  0  0  0  0  0  0  0  0
    3.1918   -3.4965   -3.5680 H   0  0  0  0  0  0  0  0  0  0  0  0
    4.4850   -2.4651   -4.1286 H   0  0  0  0  0  0  0  0  0  0  0  0
    3.0123   -1.7393   -3.4827 H   0  0  0  0  0  0  0  0  0  0  0  0
    6.8801   -3.1431    1.9240 H   0  0  0  0  0  0  0  0  0  0  0  0
    5.8260   -2.3205    4.0620 H   0  0  0  0  0  0  0  0  0  0  0  0
    4.0304   -0.7944    3.7443 H   0  0  0  0  0  0  0  0  0  0  0  0
    2.3246    0.1922    0.6306 H   0  0  0  0  0  0  0  0  0  0  0  0
    3.8689    0.7605    1.2200 H   0  0  0  0  0  0  0  0  0  0  0  0
    2.5733    0.5324    2.3282 H   0  0  0  0  0  0  0  0  0  0  0  0
    1.5328   -1.3706    2.7486 H   0  0  0  0  0  0  0  0  0  0  0  0
    1.4212   -2.1700    1.2782 H   0  0  0  0  0  0  0  0  0  0  0  0
    2.1122   -4.2388    2.1820 H   0  0  0  0  0  0  0  0  0  0  0  0
    3.0894   -3.6020    3.5066 H   0  0  0  0  0  0  0  0  0  0  0  0
    4.9341   -1.7028   -1.9904 H   0  0  0  0  0  0  0  0  0  0  0  0
  1  2  1  0
  1 29  1  0
  1 30  1  0
  1 31  1  0
  3  2  1  6
  3 13  1  0
  3 21  1  0
  3  4  1  0
  4 16  1  0
  4  5  1  0
  4 32  1  6
  5  6  1  0
  5 33  1  0
  5 34  1  0
  6 12  2  0
  6  7  1  0
  7  8  2  0
  7 35  1  0
  8  9  1  0
  8 36  1  0
  9 10  1  0
  9 11  2  0
 10 37  1  0
 11 28  1  0
 11 12  1  0
 12 13  1  0
 13 14  1  6
 13 18  1  0
 14 15  1  0
 14 38  1  0
 14 39  1  0
 15 16  1  0
 15 40  1  0
 15 41  1  0
 16 17  1  0
 16 55  1  6
 17 42  1  0
 17 43  1  0
 17 44  1  0
 18 19  1  0
 18 28  1  0
 18 45  1  6
 19 20  2  0
 19 46  1  0
 20 21  1  0
 20 47  1  0
 21 22  1  6
 21 23  1  0
 22 48  1  0
 22 49  1  0
 22 50  1  0
 23 24  1  0
 23 51  1  0
 23 52  1  0
 24 25  1  0
 24 53  1  0
 24 54  1  0
 25 26  2  0
 25 27  1  0
M  CHG  2  16   1  27  -1
M  END
>  <i_m_ct_stereo_status>  (250) 
1

>  <s_m_source_file>  (250) 
/var/tmp/pbs.5076255.sched01/tmpwmgilt76/96rd2vfdyj.sdf

>  <i_m_source_file_index>  (250) 
12

>  <i_lp_mmshare_version>  (250) 
48012

>  <i_f3d_flags>  (250) 
0

>  <s_epik_input>  (250) 
W0NIM11PW0NAXTEoW0NAQF0yMzQpW0NAQEhdKE4oW0NIM10pW0NIMl1bQ0gyXTMpW0NIMl1jNWMyYyhjKFtPSF0pW2NIXVtjSF01KU9bQ0BASF00W0NIXT1bQ0hdW0NAXTEoW0NIM10pW0NIMl1bQ0gyXUMoPU8pW09IXQ==

>  <s_epik_cmdline>  (250) 
J2VwaWtfcHl0aG9uJywgJy1waHQnLCAnMi4wJywgJy1waCcsICc3LjAnLCAnLXRuJywgJzgnLCAnLW1hJywgJzIwMCcsICctaW1hZScsICc8aW5maWxlLm1hZT4nLCAnLW9tYWUnLCAnPG91dGZpbGUubWFlPic=

>  <r_lp_tautomer_probability>  (250) 
1

>  <r_epik_Ionization_Penalty>  (250) 
0.266843

>  <r_epik_Ionization_Penalty_Charging>  (250) 
0.256704

>  <r_epik_Ionization_Penalty_Neutral>  (250) 
0.0101384

>  <r_epik_State_Penalty>  (250) 
0.25049

>  <r_epik_Charging_Adjusted_Penalty>  (250) 
0.507194

>  <i_epik_Tot_Q>  (250) 
0

>  <i_epik_Tot_abs_Q>  (250) 
2

>  <s_lp_Force_Field>  (250) 
OPLS3e

>  <r_lp_Energy>  (250) 
69.8724

>  <b_lp_Chiralities_Consistent>  (250) 
1

>  <s_lp_Variant>  (250) 
63:0-1

>  <s_i_glide_gridfile>  (250) 
pfpi4k_grid

>  <i_i_glide_lignum>  (250) 
12

>  <i_i_glide_rotatable_bonds>  (250) 
5

>  <r_i_docking_score>  (250) 
-2.16458

>  <r_i_glide_ligand_efficiency>  (250) 
-0.0773063

>  <r_i_glide_ligand_efficiency_sa>  (250) 
-0.234748

>  <r_i_glide_ligand_efficiency_ln>  (250) 
-0.499648

>  <r_i_glide_gscore>  (250) 
-2.16458

>  <r_i_glide_lipo>  (250) 
-0.589001

>  <r_i_glide_hbond>  (250) 
-0.000345769

>  <r_i_glide_metal>  (250) 
-0

>  <r_i_glide_rewards>  (250) 
-0.796158

>  <r_i_glide_evdw>  (250) 
-19.2506

>  <r_i_glide_ecoul>  (250) 
-0.517784

>  <r_i_glide_erotb>  (250) 
0.261864

>  <r_i_glide_esite>  (250) 
-0.000741084

>  <r_i_glide_emodel>  (250) 
-18.8911

>  <r_i_glide_energy>  (250) 
-19.7684

>  <r_i_glide_einternal>  (250) 
6.65738

>  <r_i_glide_intrahb_reward>  (250) 
-0

>  <i_i_glide_confnum>  (250) 
1

>  <i_i_glide_posenum>  (250) 
17

>  <r_i_glide_eff_state_penalty>  (250) 
0

>  <ligand_id>  (250) 
63

>  <original_smiles>  (250) 
COC12C3Cc4ccc(O)c5c4C1(CCN3C)C(C=CC2(C)CCC(=O)O)O5

>  <smiles>  (250) 
[H]Oc1c([H])c([H])c2c3c1OC1([H])C([H])=C([H])C(C([H])([H])[H])(C([H])([H])C([H])([H])C(=O)[O-])C4(OC([H])([H])[H])C31C([H])([H])C([H])([H])[N+]([H])(C([H])([H])[H])C4([H])C2([H])[H]

$$$$
63:1:0
     RDKit          3D

 54 58  0  0  1  0  0  0  0  0999 V2000
    5.0381   -0.4246   -1.3155 C   0  0  0  0  0  0  0  0  0  0  0  0
    4.1166   -1.3262   -0.7313 O   0  0  0  0  0  0  0  0  0  0  0  0
    4.4629   -2.4011    0.2013 C   0  0  1  0  0  0  0  0  0  0  0  0
    3.3531   -3.5236   -0.0559 C   0  0  2  0  0  0  0  0  0  0  0  0
    3.5736   -4.9242    0.5910 C   0  0  0  0  0  0  0  0  0  0  0  0
    5.0169   -5.3174    0.8300 C   0  0  0  0  0  0  0  0  0  0  0  0
    5.4614   -6.4767    1.4865 C   0  0  0  0  0  0  0  0  0  0  0  0
    6.8463   -6.6621    1.7323 C   0  0  0  0  0  0  0  0  0  0  0  0
    7.7828   -5.6714    1.3765 C   0  0  0  0  0  0  0  0  0  0  0  0
    9.1103   -5.8646    1.6210 O   0  0  0  0  0  0  0  0  0  0  0  0
    7.3575   -4.4664    0.7785 C   0  0  0  0  0  0  0  0  0  0  0  0
    6.0103   -4.3716    0.4661 C   0  0  0  0  0  0  0  0  0  0  0  0
    5.7941   -3.0720   -0.2942 C   0  0  1  0  0  0  0  0  0  0  0  0
    5.7223   -3.3900   -1.8264 C   0  0  0  0  0  0  0  0  0  0  0  0
    4.5070   -4.2545   -2.1356 C   0  0  0  0  0  0  0  0  0  0  0  0
    3.2468   -3.8029   -1.5035 N   0  0  0  0  0  0  0  0  0  0  0  0
    2.3811   -2.9514   -2.3256 C   0  0  0  0  0  0  0  0  0  0  0  0
    7.1206   -2.3552    0.0712 C   0  0  1  0  0  0  0  0  0  0  0  0
    6.9650   -1.3433    1.1835 C   0  0  0  0  0  0  0  0  0  0  0  0
    5.8423   -1.0733    1.8723 C   0  0  0  0  0  0  0  0  0  0  0  0
    4.4926   -1.7543    1.6807 C   0  0  1  0  0  0  0  0  0  0  0  0
    3.4074   -0.6437    1.8042 C   0  0  0  0  0  0  0  0  0  0  0  0
    4.3518   -2.7589    2.8996 C   0  0  0  0  0  0  0  0  0  0  0  0
    2.9629   -3.3485    3.2691 C   0  0  0  0  0  0  0  0  0  0  0  0
    1.9481   -2.3983    3.9313 C   0  0  0  0  0  0  0  0  0  0  0  0
    0.7550   -2.7546    3.7958 O   0  0  0  0  0  0  0  0  0  0  0  0
    2.3473   -1.3630    4.5374 O   0  0  0  0  0  0  0  0  0  0  0  0
    8.0681   -3.3652    0.4420 O   0  0  0  0  0  0  0  0  0  0  0  0
    4.4529    0.2376   -1.9542 H   0  0  0  0  0  0  0  0  0  0  0  0
    5.7809   -0.8206   -1.9496 H   0  0  0  0  0  0  0  0  0  0  0  0
    5.5653    0.1306   -0.5163 H   0  0  0  0  0  0  0  0  0  0  0  0
    2.3908   -3.1086    0.2583 H   0  0  0  0  0  0  0  0  0  0  0  0
    3.0671   -5.0853    1.5211 H   0  0  0  0  0  0  0  0  0  0  0  0
    3.1240   -5.6873   -0.0605 H   0  0  0  0  0  0  0  0  0  0  0  0
    4.7218   -7.1987    1.8261 H   0  0  0  0  0  0  0  0  0  0  0  0
    7.1551   -7.5714    2.2128 H   0  0  0  0  0  0  0  0  0  0  0  0
    9.3771   -6.7621    1.6896 H   0  0  0  0  0  0  0  0  0  0  0  0
    5.5852   -2.5700   -2.4669 H   0  0  0  0  0  0  0  0  0  0  0  0
    6.6272   -3.8944   -2.1378 H   0  0  0  0  0  0  0  0  0  0  0  0
    4.3546   -4.2929   -3.2163 H   0  0  0  0  0  0  0  0  0  0  0  0
    4.7119   -5.2904   -1.8111 H   0  0  0  0  0  0  0  0  0  0  0  0
    2.1195   -3.4837   -3.2439 H   0  0  0  0  0  0  0  0  0  0  0  0
    2.8646   -2.0085   -2.5977 H   0  0  0  0  0  0  0  0  0  0  0  0
    1.4415   -2.7431   -1.8093 H   0  0  0  0  0  0  0  0  0  0  0  0
    7.5247   -1.8278   -0.7850 H   0  0  0  0  0  0  0  0  0  0  0  0
    7.8636   -0.7995    1.4457 H   0  0  0  0  0  0  0  0  0  0  0  0
    5.8915   -0.3408    2.6625 H   0  0  0  0  0  0  0  0  0  0  0  0
    2.4111   -1.0891    1.7233 H   0  0  0  0  0  0  0  0  0  0  0  0
    3.4607    0.1447    1.0508 H   0  0  0  0  0  0  0  0  0  0  0  0
    3.4824   -0.1623    2.7836 H   0  0  0  0  0  0  0  0  0  0  0  0
    5.0592   -3.5668    2.7479 H   0  0  0  0  0  0  0  0  0  0  0  0
    4.7917   -2.2859    3.7935 H   0  0  0  0  0  0  0  0  0  0  0  0
    2.4353   -3.6327    2.4016 H   0  0  0  0  0  0  0  0  0  0  0  0
    3.1125   -4.2162    3.9208 H   0  0  0  0  0  0  0  0  0  0  0  0
  1  2  1  0
  1 29  1  0
  1 30  1  0
  1 31  1  0
  3  2  1  6
  3 13  1  0
  3 21  1  0
  3  4  1  0
  4 16  1  0
  4  5  1  0
  4 32  1  1
  5  6  1  0
  5 33  1  0
  5 34  1  0
  6 12  2  0
  6  7  1  0
  7  8  2  0
  7 35  1  0
  8  9  1  0
  8 36  1  0
  9 10  1  0
  9 11  2  0
 10 37  1  0
 11 28  1  0
 11 12  1  0
 12 13  1  0
 13 14  1  6
 13 18  1  0
 14 15  1  0
 14 38  1  0
 14 39  1  0
 15 16  1  0
 15 40  1  0
 15 41  1  0
 16 17  1  0
 17 42  1  0
 17 43  1  0
 17 44  1  0
 18 19  1  0
 18 28  1  0
 18 45  1  6
 19 20  2  0
 19 46  1  0
 20 21  1  0
 20 47  1  0
 21 22  1  6
 21 23  1  0
 22 48  1  0
 22 49  1  0
 22 50  1  0
 23 24  1  0
 23 51  1  0
 23 52  1  0
 24 25  1  0
 24 53  1  0
 24 54  1  0
 25 26  2  0
 25 27  1  0
M  CHG  1  27  -1
M  END
>  <i_m_ct_stereo_status>  (251) 
1

>  <s_m_source_file>  (251) 
/var/tmp/pbs.5076255.sched01/tmpwmgilt76/96rd2vfdyj.sdf

>  <i_m_source_file_index>  (251) 
13

>  <i_lp_mmshare_version>  (251) 
48012

>  <i_f3d_flags>  (251) 
0

>  <s_epik_input>  (251) 
W0NIM11PW0NAXTEoW0NAQF0yMzQpW0NAQEhdKE4oW0NIM10pW0NIMl1bQ0gyXTMpW0NIMl1jNWMyYyhjKFtPSF0pW2NIXVtjSF01KU9bQ0BASF00W0NIXT1bQ0hdW0NAXTEoW0NIM10pW0NIMl1bQ0gyXUMoPU8pW09IXQ==

>  <s_epik_cmdline>  (251) 
J2VwaWtfcHl0aG9uJywgJy1waHQnLCAnMi4wJywgJy1waCcsICc3LjAnLCAnLXRuJywgJzgnLCAnLW1hJywgJzIwMCcsICctaW1hZScsICc8aW5maWxlLm1hZT4nLCAnLW9tYWUnLCAnPG91dGZpbGUubWFlPic=

>  <r_lp_tautomer_probability>  (251) 
1

>  <r_epik_Ionization_Penalty>  (251) 
0.629855

>  <r_epik_Ionization_Penalty_Charging>  (251) 
0.00356691

>  <r_epik_Ionization_Penalty_Neutral>  (251) 
0.626288

>  <r_epik_State_Penalty>  (251) 
0.645903

>  <r_epik_Charging_Adjusted_Penalty>  (251) 
0.64947

>  <i_epik_Tot_Q>  (251) 
-1

>  <i_epik_Tot_abs_Q>  (251) 
1

>  <s_lp_Force_Field>  (251) 
OPLS3e

>  <r_lp_Energy>  (251) 
75.3733

>  <b_lp_Chiralities_Consistent>  (251) 
1

>  <s_lp_Variant>  (251) 
63:0-2

>  <s_i_glide_gridfile>  (251) 
pfpi4k_grid

>  <i_i_glide_lignum>  (251) 
13

>  <i_i_glide_rotatable_bonds>  (251) 
5

>  <r_i_docking_score>  (251) 
-1.92152

>  <r_i_glide_ligand_efficiency>  (251) 
-0.0686258

>  <r_i_glide_ligand_efficiency_sa>  (251) 
-0.208388

>  <r_i_glide_ligand_efficiency_ln>  (251) 
-0.443544

>  <r_i_glide_gscore>  (251) 
-1.92152

>  <r_i_glide_lipo>  (251) 
-0.931363

>  <r_i_glide_hbond>  (251) 
0

>  <r_i_glide_metal>  (251) 
-0

>  <r_i_glide_rewards>  (251) 
-0.795602

>  <r_i_glide_evdw>  (251) 
-11.402

>  <r_i_glide_ecoul>  (251) 
1.27582

>  <r_i_glide_erotb>  (251) 
0.184168

>  <r_i_glide_esite>  (251) 
0

>  <r_i_glide_emodel>  (251) 
-5.71164

>  <r_i_glide_energy>  (251) 
-10.1261

>  <r_i_glide_einternal>  (251) 
6.48066

>  <r_i_glide_intrahb_reward>  (251) 
-0

>  <i_i_glide_confnum>  (251) 
2

>  <i_i_glide_posenum>  (251) 
9

>  <r_i_glide_eff_state_penalty>  (251) 
0

>  <ligand_id>  (251) 
63

>  <original_smiles>  (251) 
COC12C3Cc4ccc(O)c5c4C1(CCN3C)C(C=CC2(C)CCC(=O)O)O5

>  <smiles>  (251) 
[H]Oc1c([H])c([H])c2c3c1OC1([H])C([H])=C([H])C(C([H])([H])[H])(C([H])([H])C([H])([H])C(=O)[O-])C4(OC([H])([H])[H])C([H])(N(C([H])([H])[H])C([H])([H])C([H])([H])C314)C2([H])[H]

$$$$
63:1:1
     RDKit          3D

 54 58  0  0  1  0  0  0  0  0999 V2000
    5.6408   -5.6898    0.5788 C   0  0  0  0  0  0  0  0  0  0  0  0
    4.2801   -5.2667    0.7389 O   0  0  0  0  0  0  0  0  0  0  0  0
    3.8866   -3.8872    0.9645 C   0  0  1  0  0  0  0  0  0  0  0  0
    2.3784   -4.0440    1.4433 C   0  0  2  0  0  0  0  0  0  0  0  0
    1.6964   -2.7520    1.9951 C   0  0  0  0  0  0  0  0  0  0  0  0
    2.5577   -1.7228    2.6494 C   0  0  0  0  0  0  0  0  0  0  0  0
    2.1768   -0.4579    3.1373 C   0  0  0  0  0  0  0  0  0  0  0  0
    3.1411    0.4138    3.6674 C   0  0  0  0  0  0  0  0  0  0  0  0
    4.5282    0.0447    3.6477 C   0  0  0  0  0  0  0  0  0  0  0  0
    5.4385    0.8703    4.2027 O   0  0  0  0  0  0  0  0  0  0  0  0
    4.9011   -1.1574    3.0628 C   0  0  0  0  0  0  0  0  0  0  0  0
    3.9429   -2.0208    2.6712 C   0  0  0  0  0  0  0  0  0  0  0  0
    4.5711   -3.3117    2.2259 C   0  0  1  0  0  0  0  0  0  0  0  0
    4.4667   -4.3685    3.3859 C   0  0  0  0  0  0  0  0  0  0  0  0
    3.0114   -4.7424    3.7189 C   0  0  0  0  0  0  0  0  0  0  0  0
    2.1924   -5.0279    2.5351 N   0  0  0  0  0  0  0  0  0  0  0  0
    2.0851   -6.4329    2.1720 C   0  0  0  0  0  0  0  0  0  0  0  0
    6.0368   -2.8236    2.0568 C   0  0  1  0  0  0  0  0  0  0  0  0
    6.4698   -2.6017    0.6242 C   0  0  0  0  0  0  0  0  0  0  0  0
    5.6865   -2.7411   -0.4464 C   0  0  0  0  0  0  0  0  0  0  0  0
    4.2008   -3.0713   -0.3928 C   0  0  1  0  0  0  0  0  0  0  0  0
    3.8611   -3.9430   -1.6042 C   0  0  0  0  0  0  0  0  0  0  0  0
    3.4635   -1.7013   -0.5830 C   0  0  0  0  0  0  0  0  0  0  0  0
    3.0599   -1.2136   -2.0204 C   0  0  0  0  0  0  0  0  0  0  0  0
    4.2288   -0.8239   -2.9088 C   0  0  0  0  0  0  0  0  0  0  0  0
    4.0508   -0.8110   -4.1638 O   0  0  0  0  0  0  0  0  0  0  0  0
    5.2969   -0.5748   -2.3111 O   0  0  0  0  0  0  0  0  0  0  0  0
    6.1821   -1.6156    2.8105 O   0  0  0  0  0  0  0  0  0  0  0  0
    5.6514   -6.7714    0.4504 H   0  0  0  0  0  0  0  0  0  0  0  0
    6.2595   -5.4909    1.4475 H   0  0  0  0  0  0  0  0  0  0  0  0
    6.1382   -5.2643   -0.2904 H   0  0  0  0  0  0  0  0  0  0  0  0
    1.8095   -4.3943    0.5860 H   0  0  0  0  0  0  0  0  0  0  0  0
    1.1593   -2.2224    1.2217 H   0  0  0  0  0  0  0  0  0  0  0  0
    0.9185   -3.0069    2.7264 H   0  0  0  0  0  0  0  0  0  0  0  0
    1.1350   -0.1700    3.1130 H   0  0  0  0  0  0  0  0  0  0  0  0
    2.8536    1.3622    4.0739 H   0  0  0  0  0  0  0  0  0  0  0  0
    5.1064    1.7493    4.2446 H   0  0  0  0  0  0  0  0  0  0  0  0
    4.9791   -5.2980    3.1380 H   0  0  0  0  0  0  0  0  0  0  0  0
    4.9690   -4.0077    4.2856 H   0  0  0  0  0  0  0  0  0  0  0  0
    2.9867   -5.5864    4.4100 H   0  0  0  0  0  0  0  0  0  0  0  0
    2.5775   -3.9039    4.2623 H   0  0  0  0  0  0  0  0  0  0  0  0
    1.6532   -6.9979    2.9965 H   0  0  0  0  0  0  0  0  0  0  0  0
    3.0506   -6.8750    1.9413 H   0  0  0  0  0  0  0  0  0  0  0  0
    1.4231   -6.5628    1.3162 H   0  0  0  0  0  0  0  0  0  0  0  0
    6.6606   -3.6254    2.4293 H   0  0  0  0  0  0  0  0  0  0  0  0
    7.4994   -2.2991    0.4984 H   0  0  0  0  0  0  0  0  0  0  0  0
    6.1192   -2.6085   -1.4345 H   0  0  0  0  0  0  0  0  0  0  0  0
    2.7972   -4.1854   -1.6180 H   0  0  0  0  0  0  0  0  0  0  0  0
    4.4426   -4.8598   -1.6004 H   0  0  0  0  0  0  0  0  0  0  0  0
    4.1116   -3.4875   -2.5602 H   0  0  0  0  0  0  0  0  0  0  0  0
    2.5328   -1.8381   -0.1039 H   0  0  0  0  0  0  0  0  0  0  0  0
    3.9566   -0.9039   -0.0099 H   0  0  0  0  0  0  0  0  0  0  0  0
    2.4296   -1.9341   -2.5345 H   0  0  0  0  0  0  0  0  0  0  0  0
    2.4422   -0.3279   -1.9687 H   0  0  0  0  0  0  0  0  0  0  0  0
  1  2  1  0
  1 29  1  0
  1 30  1  0
  1 31  1  0
  3  2  1  6
  3 13  1  0
  3 21  1  0
  3  4  1  0
  4 16  1  0
  4  5  1  0
  4 32  1  6
  5  6  1  0
  5 33  1  0
  5 34  1  0
  6 12  2  0
  6  7  1  0
  7  8  2  0
  7 35  1  0
  8  9  1  0
  8 36  1  0
  9 10  1  0
  9 11  2  0
 10 37  1  0
 11 28  1  0
 11 12  1  0
 12 13  1  0
 13 14  1  1
 13 18  1  0
 14 15  1  0
 14 38  1  0
 14 39  1  0
 15 16  1  0
 15 40  1  0
 15 41  1  0
 16 17  1  0
 17 42  1  0
 17 43  1  0
 17 44  1  0
 18 19  1  0
 18 28  1  0
 18 45  1  1
 19 20  2  0
 19 46  1  0
 20 21  1  0
 20 47  1  0
 21 22  1  6
 21 23  1  0
 22 48  1  0
 22 49  1  0
 22 50  1  0
 23 24  1  0
 23 51  1  0
 23 52  1  0
 24 25  1  0
 24 53  1  0
 24 54  1  0
 25 26  2  0
 25 27  1  0
M  CHG  1  27  -1
M  END
>  <i_m_ct_stereo_status>  (252) 
1

>  <s_m_source_file>  (252) 
/var/tmp/pbs.5076255.sched01/tmpwmgilt76/96rd2vfdyj.sdf

>  <i_m_source_file_index>  (252) 
13

>  <i_lp_mmshare_version>  (252) 
48012

>  <i_f3d_flags>  (252) 
0

>  <s_epik_input>  (252) 
W0NIM11PW0NAXTEoW0NAQF0yMzQpW0NAQEhdKE4oW0NIM10pW0NIMl1bQ0gyXTMpW0NIMl1jNWMyYyhjKFtPSF0pW2NIXVtjSF01KU9bQ0BASF00W0NIXT1bQ0hdW0NAXTEoW0NIM10pW0NIMl1bQ0gyXUMoPU8pW09IXQ==

>  <s_epik_cmdline>  (252) 
J2VwaWtfcHl0aG9uJywgJy1waHQnLCAnMi4wJywgJy1waCcsICc3LjAnLCAnLXRuJywgJzgnLCAnLW1hJywgJzIwMCcsICctaW1hZScsICc8aW5maWxlLm1hZT4nLCAnLW9tYWUnLCAnPG91dGZpbGUubWFlPic=

>  <r_lp_tautomer_probability>  (252) 
1

>  <r_epik_Ionization_Penalty>  (252) 
0.629855

>  <r_epik_Ionization_Penalty_Charging>  (252) 
0.00356691

>  <r_epik_Ionization_Penalty_Neutral>  (252) 
0.626288

>  <r_epik_State_Penalty>  (252) 
0.645903

>  <r_epik_Charging_Adjusted_Penalty>  (252) 
0.64947

>  <i_epik_Tot_Q>  (252) 
-1

>  <i_epik_Tot_abs_Q>  (252) 
1

>  <s_lp_Force_Field>  (252) 
OPLS3e

>  <r_lp_Energy>  (252) 
75.3733

>  <b_lp_Chiralities_Consistent>  (252) 
1

>  <s_lp_Variant>  (252) 
63:0-2

>  <s_i_glide_gridfile>  (252) 
pfpi4k_grid

>  <i_i_glide_lignum>  (252) 
13

>  <i_i_glide_rotatable_bonds>  (252) 
5

>  <r_i_docking_score>  (252) 
-1.57647

>  <r_i_glide_ligand_efficiency>  (252) 
-0.0563024

>  <r_i_glide_ligand_efficiency_sa>  (252) 
-0.170967

>  <r_i_glide_ligand_efficiency_ln>  (252) 
-0.363895

>  <r_i_glide_gscore>  (252) 
-1.57647

>  <r_i_glide_lipo>  (252) 
-0.399541

>  <r_i_glide_hbond>  (252) 
0

>  <r_i_glide_metal>  (252) 
-0

>  <r_i_glide_rewards>  (252) 
-0.906269

>  <r_i_glide_evdw>  (252) 
-3.92817

>  <r_i_glide_ecoul>  (252) 
-2.24898

>  <r_i_glide_erotb>  (252) 
0.263097

>  <r_i_glide_esite>  (252) 
0

>  <r_i_glide_emodel>  (252) 
-4.46653

>  <r_i_glide_energy>  (252) 
-6.17715

>  <r_i_glide_einternal>  (252) 
4.11361

>  <r_i_glide_intrahb_reward>  (252) 
-0

>  <i_i_glide_confnum>  (252) 
3

>  <i_i_glide_posenum>  (252) 
11

>  <r_i_glide_eff_state_penalty>  (252) 
0

>  <ligand_id>  (252) 
63

>  <original_smiles>  (252) 
COC12C3Cc4ccc(O)c5c4C1(CCN3C)C(C=CC2(C)CCC(=O)O)O5

>  <smiles>  (252) 
[H]Oc1c([H])c([H])c2c3c1OC1([H])C([H])=C([H])C(C([H])([H])[H])(C([H])([H])C([H])([H])C(=O)[O-])C4(OC([H])([H])[H])C([H])(N(C([H])([H])[H])C([H])([H])C([H])([H])C314)C2([H])[H]

$$$$
63:1:2
     RDKit          3D

 54 58  0  0  1  0  0  0  0  0999 V2000
    5.4664   -5.6223    0.4238 C   0  0  0  0  0  0  0  0  0  0  0  0
    4.1262   -5.1481    0.6077 O   0  0  0  0  0  0  0  0  0  0  0  0
    3.7899   -3.7528    0.8396 C   0  0  1  0  0  0  0  0  0  0  0  0
    2.2740   -3.8496    1.2793 C   0  0  2  0  0  0  0  0  0  0  0  0
    1.6294   -2.5415    1.8316 C   0  0  0  0  0  0  0  0  0  0  0  0
    2.5207   -1.5595    2.5355 C   0  0  0  0  0  0  0  0  0  0  0  0
    2.1684   -0.2896    3.0228 C   0  0  0  0  0  0  0  0  0  0  0  0
    3.1752    0.5225    3.6043 C   0  0  0  0  0  0  0  0  0  0  0  0
    4.5161    0.0895    3.6235 C   0  0  0  0  0  0  0  0  0  0  0  0
    5.4868    0.8280    4.2245 O   0  0  0  0  0  0  0  0  0  0  0  0
    4.8809   -1.1274    3.0196 C   0  0  0  0  0  0  0  0  0  0  0  0
    3.8630   -1.9329    2.5771 C   0  0  0  0  0  0  0  0  0  0  0  0
    4.4693   -3.2406    2.1360 C   0  0  1  0  0  0  0  0  0  0  0  0
    4.2699   -4.3106    3.2647 C   0  0  0  0  0  0  0  0  0  0  0  0
    2.7893   -4.6207    3.5494 C   0  0  0  0  0  0  0  0  0  0  0  0
    1.9999   -4.8490    2.3376 N   0  0  0  0  0  0  0  0  0  0  0  0
    1.8350   -6.2416    1.9435 C   0  0  0  0  0  0  0  0  0  0  0  0
    5.9652   -2.8342    2.0205 C   0  0  1  0  0  0  0  0  0  0  0  0
    6.4374   -2.5852    0.6012 C   0  0  0  0  0  0  0  0  0  0  0  0
    5.6580   -2.6307   -0.4928 C   0  0  0  0  0  0  0  0  0  0  0  0
    4.1626   -2.9343   -0.4956 C   0  0  1  0  0  0  0  0  0  0  0  0
    3.8562   -3.8223   -1.7292 C   0  0  0  0  0  0  0  0  0  0  0  0
    3.4852   -1.5213   -0.6907 C   0  0  0  0  0  0  0  0  0  0  0  0
    2.8612   -1.1859   -2.0913 C   0  0  0  0  0  0  0  0  0  0  0  0
    3.8964   -0.9239   -3.1626 C   0  0  0  0  0  0  0  0  0  0  0  0
    3.5655   -1.0555   -4.3597 O   0  0  0  0  0  0  0  0  0  0  0  0
    5.0271   -0.6311   -2.7256 O   0  0  0  0  0  0  0  0  0  0  0  0
    6.1196   -1.6359    2.7967 O   0  0  0  0  0  0  0  0  0  0  0  0
    5.4299   -6.7004    0.2729 H   0  0  0  0  0  0  0  0  0  0  0  0
    6.1099   -5.4432    1.2775 H   0  0  0  0  0  0  0  0  0  0  0  0
    5.9629   -5.2091   -0.4487 H   0  0  0  0  0  0  0  0  0  0  0  0
    1.7737   -4.1699    0.3725 H   0  0  0  0  0  0  0  0  0  0  0  0
    1.1470   -1.9927    1.0463 H   0  0  0  0  0  0  0  0  0  0  0  0
    0.8258   -2.7488    2.5472 H   0  0  0  0  0  0  0  0  0  0  0  0
    1.1470    0.0587    2.9600 H   0  0  0  0  0  0  0  0  0  0  0  0
    2.9185    1.4896    4.0079 H   0  0  0  0  0  0  0  0  0  0  0  0
    6.3469    0.5578    3.9367 H   0  0  0  0  0  0  0  0  0  0  0  0
    4.7559   -5.2490    3.0056 H   0  0  0  0  0  0  0  0  0  0  0  0
    4.7520   -3.9911    4.1890 H   0  0  0  0  0  0  0  0  0  0  0  0
    2.6936   -5.4674    4.2276 H   0  0  0  0  0  0  0  0  0  0  0  0
    2.3715   -3.7686    4.0885 H   0  0  0  0  0  0  0  0  0  0  0  0
    1.3425   -6.7945    2.7420 H   0  0  0  0  0  0  0  0  0  0  0  0
    2.7852   -6.7266    1.7401 H   0  0  0  0  0  0  0  0  0  0  0  0
    1.2006   -6.3222    1.0607 H   0  0  0  0  0  0  0  0  0  0  0  0
    6.5907   -3.6332    2.4214 H   0  0  0  0  0  0  0  0  0  0  0  0
    7.4786   -2.3012    0.5173 H   0  0  0  0  0  0  0  0  0  0  0  0
    6.1068   -2.4093   -1.4507 H   0  0  0  0  0  0  0  0  0  0  0  0
    2.7847   -4.0159   -1.8038 H   0  0  0  0  0  0  0  0  0  0  0  0
    4.3926   -4.7608   -1.7260 H   0  0  0  0  0  0  0  0  0  0  0  0
    4.1894   -3.4026   -2.6736 H   0  0  0  0  0  0  0  0  0  0  0  0
    2.6740   -1.3515   -0.0095 H   0  0  0  0  0  0  0  0  0  0  0  0
    4.1774   -0.7235   -0.3872 H   0  0  0  0  0  0  0  0  0  0  0  0
    2.1445   -1.9482   -2.4055 H   0  0  0  0  0  0  0  0  0  0  0  0
    2.2649   -0.2636   -2.0442 H   0  0  0  0  0  0  0  0  0  0  0  0
  1  2  1  0
  1 29  1  0
  1 30  1  0
  1 31  1  0
  3  2  1  6
  3 13  1  0
  3 21  1  0
  3  4  1  0
  4 16  1  0
  4  5  1  0
  4 32  1  6
  5  6  1  0
  5 33  1  0
  5 34  1  0
  6 12  2  0
  6  7  1  0
  7  8  2  0
  7 35  1  0
  8  9  1  0
  8 36  1  0
  9 10  1  0
  9 11  2  0
 10 37  1  0
 11 28  1  0
 11 12  1  0
 12 13  1  0
 13 14  1  1
 13 18  1  0
 14 15  1  0
 14 38  1  0
 14 39  1  0
 15 16  1  0
 15 40  1  0
 15 41  1  0
 16 17  1  0
 17 42  1  0
 17 43  1  0
 17 44  1  0
 18 19  1  0
 18 28  1  0
 18 45  1  1
 19 20  2  0
 19 46  1  0
 20 21  1  0
 20 47  1  0
 21 22  1  6
 21 23  1  0
 22 48  1  0
 22 49  1  0
 22 50  1  0
 23 24  1  0
 23 51  1  0
 23 52  1  0
 24 25  1  0
 24 53  1  0
 24 54  1  0
 25 26  2  0
 25 27  1  0
M  CHG  1  27  -1
M  END
>  <i_m_ct_stereo_status>  (253) 
1

>  <s_m_source_file>  (253) 
/var/tmp/pbs.5076255.sched01/tmpwmgilt76/96rd2vfdyj.sdf

>  <i_m_source_file_index>  (253) 
13

>  <i_lp_mmshare_version>  (253) 
48012

>  <i_f3d_flags>  (253) 
0

>  <s_epik_input>  (253) 
W0NIM11PW0NAXTEoW0NAQF0yMzQpW0NAQEhdKE4oW0NIM10pW0NIMl1bQ0gyXTMpW0NIMl1jNWMyYyhjKFtPSF0pW2NIXVtjSF01KU9bQ0BASF00W0NIXT1bQ0hdW0NAXTEoW0NIM10pW0NIMl1bQ0gyXUMoPU8pW09IXQ==

>  <s_epik_cmdline>  (253) 
J2VwaWtfcHl0aG9uJywgJy1waHQnLCAnMi4wJywgJy1waCcsICc3LjAnLCAnLXRuJywgJzgnLCAnLW1hJywgJzIwMCcsICctaW1hZScsICc8aW5maWxlLm1hZT4nLCAnLW9tYWUnLCAnPG91dGZpbGUubWFlPic=

>  <r_lp_tautomer_probability>  (253) 
1

>  <r_epik_Ionization_Penalty>  (253) 
0.629855

>  <r_epik_Ionization_Penalty_Charging>  (253) 
0.00356691

>  <r_epik_Ionization_Penalty_Neutral>  (253) 
0.626288

>  <r_epik_State_Penalty>  (253) 
0.645903

>  <r_epik_Charging_Adjusted_Penalty>  (253) 
0.64947

>  <i_epik_Tot_Q>  (253) 
-1

>  <i_epik_Tot_abs_Q>  (253) 
1

>  <s_lp_Force_Field>  (253) 
OPLS3e

>  <r_lp_Energy>  (253) 
75.3733

>  <b_lp_Chiralities_Consistent>  (253) 
1

>  <s_lp_Variant>  (253) 
63:0-2

>  <s_i_glide_gridfile>  (253) 
pfpi4k_grid

>  <i_i_glide_lignum>  (253) 
13

>  <i_i_glide_rotatable_bonds>  (253) 
5

>  <r_i_docking_score>  (253) 
-1.48432

>  <r_i_glide_ligand_efficiency>  (253) 
-0.0530115

>  <r_i_glide_ligand_efficiency_sa>  (253) 
-0.160974

>  <r_i_glide_ligand_efficiency_ln>  (253) 
-0.342625

>  <r_i_glide_gscore>  (253) 
-1.48432

>  <r_i_glide_lipo>  (253) 
-0.38284

>  <r_i_glide_hbond>  (253) 
-0.0427729

>  <r_i_glide_metal>  (253) 
-0

>  <r_i_glide_rewards>  (253) 
-0.950931

>  <r_i_glide_evdw>  (253) 
-3.71834

>  <r_i_glide_ecoul>  (253) 
-1.23307

>  <r_i_glide_erotb>  (253) 
0.263097

>  <r_i_glide_esite>  (253) 
0

>  <r_i_glide_emodel>  (253) 
-1.38357

>  <r_i_glide_energy>  (253) 
-4.95141

>  <r_i_glide_einternal>  (253) 
7.27782

>  <r_i_glide_intrahb_reward>  (253) 
-0

>  <i_i_glide_confnum>  (253) 
2

>  <i_i_glide_posenum>  (253) 
33

>  <r_i_glide_eff_state_penalty>  (253) 
0

>  <ligand_id>  (253) 
63

>  <original_smiles>  (253) 
COC12C3Cc4ccc(O)c5c4C1(CCN3C)C(C=CC2(C)CCC(=O)O)O5

>  <smiles>  (253) 
[H]Oc1c([H])c([H])c2c3c1OC1([H])C([H])=C([H])C(C([H])([H])[H])(C([H])([H])C([H])([H])C(=O)[O-])C4(OC([H])([H])[H])C([H])(N(C([H])([H])[H])C([H])([H])C([H])([H])C314)C2([H])[H]

$$$$
65:0:0
     RDKit          3D

 72 77  0  0  1  0  0  0  0  0999 V2000
    4.5664   -1.0666   -0.4534 C   0  0  0  0  0  0  0  0  0  0  0  0
    4.7443   -2.4945   -1.0312 C   0  0  1  0  0  0  0  0  0  0  0  0
    3.9995   -2.4871   -2.4093 C   0  0  0  0  0  0  0  0  0  0  0  0
    4.1925   -3.6666   -3.1798 O   0  0  0  0  0  0  0  0  0  0  0  0
    6.2473   -2.7533   -1.3326 C   0  0  0  0  0  0  0  0  0  0  0  0
    7.1175   -2.9971   -0.0955 C   0  0  0  0  0  0  0  0  0  0  0  0
    6.5406   -4.1210    0.7839 C   0  0  0  0  0  0  0  0  0  0  0  0
    5.0636   -3.8944    1.2269 C   0  0  1  0  0  0  0  0  0  0  0  0
    5.0297   -2.7113    2.2319 C   0  0  0  0  0  0  0  0  0  0  0  0
    4.2063   -3.5651   -0.0354 C   0  0  0  0  0  0  0  0  0  0  0  0
    3.0755   -4.2570   -0.2954 C   0  0  0  0  0  0  0  0  0  0  0  0
    2.5598   -5.4373    0.4805 C   0  0  0  0  0  0  0  0  0  0  0  0
    3.6786   -6.2337    1.1869 C   0  0  2  0  0  0  0  0  0  0  0  0
    4.6067   -6.8481    0.1105 C   0  0  0  0  0  0  0  0  0  0  0  0
    2.9350   -7.3707    2.0437 C   0  0  1  0  0  0  0  0  0  0  0  0
    1.7671   -7.0645    3.0559 C   0  0  0  0  0  0  0  0  0  0  0  0
    2.2413   -7.3427    4.5545 C   0  0  0  0  0  0  0  0  0  0  0  0
    3.4650   -8.3193    4.5800 C   0  0  1  0  0  0  0  0  0  0  0  0
    3.4906   -9.5512    5.5011 C   0  0  0  0  0  0  0  0  0  0  0  0
    3.5670  -10.4383    4.3475 O   0  0  0  0  0  0  0  0  0  0  0  0
    2.9720   -9.3747    3.5799 C   0  0  2  0  0  0  0  0  0  0  0  0
    3.4212   -8.9443    2.1800 C   0  0  2  0  0  0  0  0  0  0  0  0
    4.9456   -9.3538    2.1423 C   0  0  0  0  0  0  0  0  0  0  0  0
    5.7422   -8.9171    3.4425 C   0  0  0  0  0  0  0  0  0  0  0  0
    4.9618   -7.7854    4.1789 C   0  0  2  0  0  0  0  0  0  0  0  0
    5.4643   -6.2688    4.2407 C   0  0  0  0  0  0  0  0  0  0  0  0
    4.7242   -5.3530    5.2372 C   0  0  0  0  0  0  0  0  0  0  0  0
    6.9359   -6.2978    4.7012 C   0  0  0  0  0  0  0  0  0  0  0  0
    5.5891   -5.5765    2.9316 O   0  0  0  0  0  0  0  0  0  0  0  0
    4.5002   -5.1310    2.0465 C   0  0  1  0  0  0  0  0  0  0  0  0
    4.5177   -0.3102   -1.2391 H   0  0  0  0  0  0  0  0  0  0  0  0
    5.3944   -0.7571    0.1806 H   0  0  0  0  0  0  0  0  0  0  0  0
    3.6466   -0.9823    0.1272 H   0  0  0  0  0  0  0  0  0  0  0  0
    2.9338   -2.2771   -2.2923 H   0  0  0  0  0  0  0  0  0  0  0  0
    4.3812   -1.6700   -3.0238 H   0  0  0  0  0  0  0  0  0  0  0  0
    3.7767   -4.4077   -2.7472 H   0  0  0  0  0  0  0  0  0  0  0  0
    6.3649   -3.6347   -1.9620 H   0  0  0  0  0  0  0  0  0  0  0  0
    6.6492   -1.9263   -1.9180 H   0  0  0  0  0  0  0  0  0  0  0  0
    8.1146   -3.2861   -0.4281 H   0  0  0  0  0  0  0  0  0  0  0  0
    7.2576   -2.0780    0.4718 H   0  0  0  0  0  0  0  0  0  0  0  0
    6.6220   -5.0534    0.2300 H   0  0  0  0  0  0  0  0  0  0  0  0
    7.1851   -4.2386    1.6570 H   0  0  0  0  0  0  0  0  0  0  0  0
    5.3862   -3.0136    3.2183 H   0  0  0  0  0  0  0  0  0  0  0  0
    4.0176   -2.3290    2.3554 H   0  0  0  0  0  0  0  0  0  0  0  0
    5.6591   -1.8783    1.9485 H   0  0  0  0  0  0  0  0  0  0  0  0
    2.4609   -4.0347   -1.1523 H   0  0  0  0  0  0  0  0  0  0  0  0
    1.8311   -5.0416    1.1852 H   0  0  0  0  0  0  0  0  0  0  0  0
    2.0246   -6.0900   -0.2096 H   0  0  0  0  0  0  0  0  0  0  0  0
    5.5942   -7.0496    0.5234 H   0  0  0  0  0  0  0  0  0  0  0  0
    4.7726   -6.1757   -0.7277 H   0  0  0  0  0  0  0  0  0  0  0  0
    4.2190   -7.7734   -0.3132 H   0  0  0  0  0  0  0  0  0  0  0  0
    3.3572   -6.7808    2.7902 H   0  0  0  0  0  0  0  0  0  0  0  0
    1.3834   -6.0475    2.9963 H   0  0  0  0  0  0  0  0  0  0  0  0
    0.9212   -7.7108    2.8063 H   0  0  0  0  0  0  0  0  0  0  0  0
    2.4124   -6.4279    5.0999 H   0  0  0  0  0  0  0  0  0  0  0  0
    1.4029   -7.7929    5.0891 H   0  0  0  0  0  0  0  0  0  0  0  0
    4.3845   -9.6009    6.1261 H   0  0  0  0  0  0  0  0  0  0  0  0
    2.5773   -9.7039    6.0762 H   0  0  0  0  0  0  0  0  0  0  0  0
    1.8902   -9.5421    3.6162 H   0  0  0  0  0  0  0  0  0  0  0  0
    2.9025   -9.5315    1.4190 H   0  0  0  0  0  0  0  0  0  0  0  0
    5.0123  -10.4411    2.0580 H   0  0  0  0  0  0  0  0  0  0  0  0
    5.4459   -8.9907    1.2539 H   0  0  0  0  0  0  0  0  0  0  0  0
    5.8674   -9.7667    4.1134 H   0  0  0  0  0  0  0  0  0  0  0  0
    6.7605   -8.6345    3.1715 H   0  0  0  0  0  0  0  0  0  0  0  0
    5.0122   -7.4879    3.1805 H   0  0  0  0  0  0  0  0  0  0  0  0
    4.5093   -5.8697    6.1735 H   0  0  0  0  0  0  0  0  0  0  0  0
    3.7982   -4.9474    4.8427 H   0  0  0  0  0  0  0  0  0  0  0  0
    5.3208   -4.4772    5.4900 H   0  0  0  0  0  0  0  0  0  0  0  0
    7.0552   -6.8271    5.6482 H   0  0  0  0  0  0  0  0  0  0  0  0
    7.3315   -5.2906    4.8356 H   0  0  0  0  0  0  0  0  0  0  0  0
    7.5786   -6.7769    3.9634 H   0  0  0  0  0  0  0  0  0  0  0  0
    3.7445   -4.6958    2.7008 H   0  0  0  0  0  0  0  0  0  0  0  0
  2  1  1  1
  1 31  1  0
  1 32  1  0
  1 33  1  0
  2 10  1  0
  2  3  1  0
  2  5  1  0
  3  4  1  0
  3 34  1  0
  3 35  1  0
  4 36  1  0
  5  6  1  0
  5 37  1  0
  5 38  1  0
  6  7  1  0
  6 39  1  0
  6 40  1  0
  7  8  1  0
  7 41  1  0
  7 42  1  0
  8 30  1  0
  8  9  1  1
  8 10  1  0
  9 43  1  0
  9 44  1  0
  9 45  1  0
 10 11  2  0
 11 12  1  0
 11 46  1  0
 12 13  1  0
 12 47  1  0
 12 48  1  0
 13 30  1  0
 13 14  1  6
 13 15  1  0
 14 49  1  0
 14 50  1  0
 14 51  1  0
 15 22  1  0
 15 16  1  0
 15 52  1  6
 16 17  1  0
 16 53  1  0
 16 54  1  0
 17 18  1  0
 17 55  1  0
 17 56  1  0
 18 21  1  0
 18 25  1  0
 18 19  1  1
 19 20  1  0
 19 57  1  0
 19 58  1  0
 20 21  1  0
 21 22  1  0
 21 59  1  6
 22 23  1  0
 22 60  1  6
 23 24  1  0
 23 61  1  0
 23 62  1  0
 24 25  1  0
 24 63  1  0
 24 64  1  0
 25 26  1  0
 25 65  1  1
 26 27  1  0
 26 28  1  0
 26 29  1  0
 27 66  1  0
 27 67  1  0
 27 68  1  0
 28 69  1  0
 28 70  1  0
 28 71  1  0
 29 30  1  0
 30 72  1  1
M  END
>  <i_m_ct_stereo_status>  (254) 
1

>  <s_m_source_file>  (254) 
/var/tmp/pbs.5076255.sched01/tmpwmgilt76/96rd2vfdyj.sdf

>  <i_m_source_file_index>  (254) 
14

>  <i_lp_mmshare_version>  (254) 
48012

>  <i_f3d_flags>  (254) 
0

>  <s_epik_input>  (254) 
W0NIMl0xW0NIMl1bQ0gyXVtDQEBdKFtDSDNdKShbQ0gyXVtPSF0pQyg9W0NIXVtDSDJdMilbQ0BAXTEoW0NIM10pW0NASF0oT0MoW0NIM10pKFtDSDNdKVtDQEhdM1tDSDJdW0NIMl00KVtDQEBdMihbQ0gzXSlbQ0BASF0oW0NIMl1bQ0gyXTUpW0NASF00W0NIXShbQ0BAXTM1NilPW0NIMl02

>  <s_epik_cmdline>  (254) 
J2VwaWtfcHl0aG9uJywgJy1waHQnLCAnMi4wJywgJy1waCcsICc3LjAnLCAnLXRuJywgJzgnLCAnLW1hJywgJzIwMCcsICctaW1hZScsICc8aW5maWxlLm1hZT4nLCAnLW9tYWUnLCAnPG91dGZpbGUubWFlPic=

>  <r_lp_tautomer_probability>  (254) 
1

>  <r_epik_Ionization_Penalty>  (254) 
4.31697e-07

>  <r_epik_Ionization_Penalty_Charging>  (254) 
0

>  <r_epik_Ionization_Penalty_Neutral>  (254) 
4.31697e-07

>  <r_epik_State_Penalty>  (254) 
-0

>  <r_epik_Charging_Adjusted_Penalty>  (254) 
0

>  <i_epik_Tot_Q>  (254) 
0

>  <i_epik_Tot_abs_Q>  (254) 
0

>  <s_lp_Force_Field>  (254) 
OPLS3e

>  <r_lp_Energy>  (254) 
227.864

>  <b_lp_Chiralities_Consistent>  (254) 
1

>  <s_lp_Variant>  (254) 
65:0-1

>  <s_i_glide_gridfile>  (254) 
pfpi4k_grid

>  <i_i_glide_lignum>  (254) 
14

>  <i_i_glide_rotatable_bonds>  (254) 
2

>  <r_i_docking_score>  (254) 
-2.97908

>  <r_i_glide_ligand_efficiency>  (254) 
-0.0993025

>  <r_i_glide_ligand_efficiency_sa>  (254) 
-0.308556

>  <r_i_glide_ligand_efficiency_ln>  (254) 
-0.676879

>  <r_i_glide_gscore>  (254) 
-2.97908

>  <r_i_glide_lipo>  (254) 
-0.497488

>  <r_i_glide_hbond>  (254) 
-0.32

>  <r_i_glide_metal>  (254) 
-0

>  <r_i_glide_rewards>  (254) 
-0.582132

>  <r_i_glide_evdw>  (254) 
-22.3364

>  <r_i_glide_ecoul>  (254) 
-3.84971

>  <r_i_glide_erotb>  (254) 
0.114823

>  <r_i_glide_esite>  (254) 
0

>  <r_i_glide_emodel>  (254) 
-29.5687

>  <r_i_glide_energy>  (254) 
-26.1862

>  <r_i_glide_einternal>  (254) 
2.04671

>  <r_i_glide_intrahb_reward>  (254) 
-0

>  <i_i_glide_confnum>  (254) 
2

>  <i_i_glide_posenum>  (254) 
1

>  <r_i_glide_eff_state_penalty>  (254) 
0

>  <ligand_id>  (254) 
65

>  <original_smiles>  (254) 
CC1(CO)CCCC2(C)C1=CCC1(C)C3CCC45COC4C3CCC5C(C)(C)OC21

>  <smiles>  (254) 
[H]OC([H])([H])C1(C([H])([H])[H])C2=C([H])C([H])([H])C3(C([H])([H])[H])C([H])(OC(C([H])([H])[H])(C([H])([H])[H])C4([H])C([H])([H])C([H])([H])C5([H])C6([H])OC([H])([H])C64C([H])([H])C([H])([H])C53[H])C2(C([H])([H])[H])C([H])([H])C([H])([H])C1([H])[H]

$$$$
65:0:1
     RDKit          3D

 72 77  0  0  1  0  0  0  0  0999 V2000
    4.3906   -0.7818    0.0100 C   0  0  0  0  0  0  0  0  0  0  0  0
    4.5846   -2.1309   -0.7278 C   0  0  1  0  0  0  0  0  0  0  0  0
    3.7930   -2.0420   -2.0758 C   0  0  0  0  0  0  0  0  0  0  0  0
    4.2426   -1.0088   -2.9363 O   0  0  0  0  0  0  0  0  0  0  0  0
    6.0729   -2.3466   -1.1119 C   0  0  0  0  0  0  0  0  0  0  0  0
    6.9923   -2.6877    0.0674 C   0  0  0  0  0  0  0  0  0  0  0  0
    6.4723   -3.9022    0.8533 C   0  0  0  0  0  0  0  0  0  0  0  0
    5.0039   -3.7579    1.3574 C   0  0  1  0  0  0  0  0  0  0  0  0
    4.9702   -2.6857    2.4776 C   0  0  0  0  0  0  0  0  0  0  0  0
    4.1058   -3.3213    0.1580 C   0  0  0  0  0  0  0  0  0  0  0  0
    2.9981   -4.0285   -0.1578 C   0  0  0  0  0  0  0  0  0  0  0  0
    2.5287   -5.2916    0.5133 C   0  0  0  0  0  0  0  0  0  0  0  0
    3.6795   -6.1216    1.1204 C   0  0  2  0  0  0  0  0  0  0  0  0
    4.5986   -6.5979   -0.0238 C   0  0  0  0  0  0  0  0  0  0  0  0
    2.9944   -7.3596    1.8801 C   0  0  1  0  0  0  0  0  0  0  0  0
    1.8479   -7.1909    2.9463 C   0  0  0  0  0  0  0  0  0  0  0  0
    2.3724   -7.6025    4.3972 C   0  0  0  0  0  0  0  0  0  0  0  0
    3.6207   -8.5404    4.2954 C   0  0  1  0  0  0  0  0  0  0  0  0
    3.7051   -9.8557    5.0878 C   0  0  0  0  0  0  0  0  0  0  0  0
    3.7717  -10.6207    3.8510 O   0  0  0  0  0  0  0  0  0  0  0  0
    3.1282   -9.5058    3.2089 C   0  0  2  0  0  0  0  0  0  0  0  0
    3.5252   -8.9260    1.8481 C   0  0  2  0  0  0  0  0  0  0  0  0
    5.0600   -9.2824    1.7313 C   0  0  0  0  0  0  0  0  0  0  0  0
    5.8810   -8.9556    3.0468 C   0  0  0  0  0  0  0  0  0  0  0  0
    5.0913   -7.9269    3.9115 C   0  0  2  0  0  0  0  0  0  0  0  0
    5.5541   -6.4088    4.1087 C   0  0  0  0  0  0  0  0  0  0  0  0
    4.8200   -5.6192    5.2115 C   0  0  0  0  0  0  0  0  0  0  0  0
    7.0390   -6.4434    4.5254 C   0  0  0  0  0  0  0  0  0  0  0  0
    5.6218   -5.5867    2.8707 O   0  0  0  0  0  0  0  0  0  0  0  0
    4.4966   -5.0849    2.0640 C   0  0  1  0  0  0  0  0  0  0  0  0
    4.2972    0.0584   -0.6738 H   0  0  0  0  0  0  0  0  0  0  0  0
    5.2318   -0.5194    0.6471 H   0  0  0  0  0  0  0  0  0  0  0  0
    3.4831   -0.7926    0.6154 H   0  0  0  0  0  0  0  0  0  0  0  0
    3.8889   -2.9812   -2.6242 H   0  0  0  0  0  0  0  0  0  0  0  0
    2.7298   -1.8616   -1.9065 H   0  0  0  0  0  0  0  0  0  0  0  0
    3.8558   -0.1966   -2.6408 H   0  0  0  0  0  0  0  0  0  0  0  0
    6.1454   -3.1595   -1.8360 H   0  0  0  0  0  0  0  0  0  0  0  0
    6.4511   -1.4640   -1.6249 H   0  0  0  0  0  0  0  0  0  0  0  0
    7.9895   -2.9123   -0.3119 H   0  0  0  0  0  0  0  0  0  0  0  0
    7.1223   -1.8236    0.7181 H   0  0  0  0  0  0  0  0  0  0  0  0
    6.5631   -4.7747    0.2104 H   0  0  0  0  0  0  0  0  0  0  0  0
    7.1482   -4.0849    1.6906 H   0  0  0  0  0  0  0  0  0  0  0  0
    5.3626   -3.0768    3.4180 H   0  0  0  0  0  0  0  0  0  0  0  0
    3.9518   -2.3472    2.6653 H   0  0  0  0  0  0  0  0  0  0  0  0
    5.5711   -1.8113    2.2643 H   0  0  0  0  0  0  0  0  0  0  0  0
    2.3613   -3.7462   -0.9789 H   0  0  0  0  0  0  0  0  0  0  0  0
    1.8117   -4.9845    1.2719 H   0  0  0  0  0  0  0  0  0  0  0  0
    1.9941   -5.8881   -0.2263 H   0  0  0  0  0  0  0  0  0  0  0  0
    5.5927   -6.8015    0.3603 H   0  0  0  0  0  0  0  0  0  0  0  0
    4.7288   -5.8469   -0.7990 H   0  0  0  0  0  0  0  0  0  0  0  0
    4.2259   -7.4876   -0.5324 H   0  0  0  0  0  0  0  0  0  0  0  0
    3.4230   -6.8352    2.6696 H   0  0  0  0  0  0  0  0  0  0  0  0
    1.4384   -6.1832    2.9997 H   0  0  0  0  0  0  0  0  0  0  0  0
    1.0125   -7.8341    2.6567 H   0  0  0  0  0  0  0  0  0  0  0  0
    2.5349   -6.7412    5.0267 H   0  0  0  0  0  0  0  0  0  0  0  0
    1.5619   -8.1281    4.9075 H   0  0  0  0  0  0  0  0  0  0  0  0
    4.6171   -9.9398    5.6827 H   0  0  0  0  0  0  0  0  0  0  0  0
    2.8113  -10.0895    5.6684 H   0  0  0  0  0  0  0  0  0  0  0  0
    2.0531   -9.7064    3.2569 H   0  0  0  0  0  0  0  0  0  0  0  0
    3.0024   -9.4514    1.0463 H   0  0  0  0  0  0  0  0  0  0  0  0
    5.1558  -10.3530    1.5413 H   0  0  0  0  0  0  0  0  0  0  0  0
    5.5255   -8.8179    0.8709 H   0  0  0  0  0  0  0  0  0  0  0  0
    6.0483   -9.8637    3.6259 H   0  0  0  0  0  0  0  0  0  0  0  0
    6.8821   -8.6177    2.7772 H   0  0  0  0  0  0  0  0  0  0  0  0
    5.1056   -7.5290    2.9478 H   0  0  0  0  0  0  0  0  0  0  0  0
    4.6462   -6.2318    6.0970 H   0  0  0  0  0  0  0  0  0  0  0  0
    3.8726   -5.2037    4.8843 H   0  0  0  0  0  0  0  0  0  0  0  0
    5.4008   -4.7564    5.5345 H   0  0  0  0  0  0  0  0  0  0  0  0
    7.1989   -7.0580    5.4133 H   0  0  0  0  0  0  0  0  0  0  0  0
    7.4146   -5.4442    4.7449 H   0  0  0  0  0  0  0  0  0  0  0  0
    7.6721   -6.8310    3.7283 H   0  0  0  0  0  0  0  0  0  0  0  0
    3.7481   -4.7402    2.7779 H   0  0  0  0  0  0  0  0  0  0  0  0
  2  1  1  1
  1 31  1  0
  1 32  1  0
  1 33  1  0
  2 10  1  0
  2  3  1  0
  2  5  1  0
  3  4  1  0
  3 34  1  0
  3 35  1  0
  4 36  1  0
  5  6  1  0
  5 37  1  0
  5 38  1  0
  6  7  1  0
  6 39  1  0
  6 40  1  0
  7  8  1  0
  7 41  1  0
  7 42  1  0
  8 30  1  0
  8  9  1  1
  8 10  1  0
  9 43  1  0
  9 44  1  0
  9 45  1  0
 10 11  2  0
 11 12  1  0
 11 46  1  0
 12 13  1  0
 12 47  1  0
 12 48  1  0
 13 30  1  0
 13 14  1  6
 13 15  1  0
 14 49  1  0
 14 50  1  0
 14 51  1  0
 15 22  1  0
 15 16  1  0
 15 52  1  6
 16 17  1  0
 16 53  1  0
 16 54  1  0
 17 18  1  0
 17 55  1  0
 17 56  1  0
 18 21  1  0
 18 25  1  0
 18 19  1  1
 19 20  1  0
 19 57  1  0
 19 58  1  0
 20 21  1  0
 21 22  1  0
 21 59  1  6
 22 23  1  0
 22 60  1  6
 23 24  1  0
 23 61  1  0
 23 62  1  0
 24 25  1  0
 24 63  1  0
 24 64  1  0
 25 26  1  0
 25 65  1  1
 26 27  1  0
 26 28  1  0
 26 29  1  0
 27 66  1  0
 27 67  1  0
 27 68  1  0
 28 69  1  0
 28 70  1  0
 28 71  1  0
 29 30  1  0
 30 72  1  1
M  END
>  <i_m_ct_stereo_status>  (255) 
1

>  <s_m_source_file>  (255) 
/var/tmp/pbs.5076255.sched01/tmpwmgilt76/96rd2vfdyj.sdf

>  <i_m_source_file_index>  (255) 
14

>  <i_lp_mmshare_version>  (255) 
48012

>  <i_f3d_flags>  (255) 
0

>  <s_epik_input>  (255) 
W0NIMl0xW0NIMl1bQ0gyXVtDQEBdKFtDSDNdKShbQ0gyXVtPSF0pQyg9W0NIXVtDSDJdMilbQ0BAXTEoW0NIM10pW0NASF0oT0MoW0NIM10pKFtDSDNdKVtDQEhdM1tDSDJdW0NIMl00KVtDQEBdMihbQ0gzXSlbQ0BASF0oW0NIMl1bQ0gyXTUpW0NASF00W0NIXShbQ0BAXTM1NilPW0NIMl02

>  <s_epik_cmdline>  (255) 
J2VwaWtfcHl0aG9uJywgJy1waHQnLCAnMi4wJywgJy1waCcsICc3LjAnLCAnLXRuJywgJzgnLCAnLW1hJywgJzIwMCcsICctaW1hZScsICc8aW5maWxlLm1hZT4nLCAnLW9tYWUnLCAnPG91dGZpbGUubWFlPic=

>  <r_lp_tautomer_probability>  (255) 
1

>  <r_epik_Ionization_Penalty>  (255) 
4.31697e-07

>  <r_epik_Ionization_Penalty_Charging>  (255) 
0

>  <r_epik_Ionization_Penalty_Neutral>  (255) 
4.31697e-07

>  <r_epik_State_Penalty>  (255) 
-0

>  <r_epik_Charging_Adjusted_Penalty>  (255) 
0

>  <i_epik_Tot_Q>  (255) 
0

>  <i_epik_Tot_abs_Q>  (255) 
0

>  <s_lp_Force_Field>  (255) 
OPLS3e

>  <r_lp_Energy>  (255) 
227.864

>  <b_lp_Chiralities_Consistent>  (255) 
1

>  <s_lp_Variant>  (255) 
65:0-1

>  <s_i_glide_gridfile>  (255) 
pfpi4k_grid

>  <i_i_glide_lignum>  (255) 
14

>  <i_i_glide_rotatable_bonds>  (255) 
2

>  <r_i_docking_score>  (255) 
-2.25862

>  <r_i_glide_ligand_efficiency>  (255) 
-0.0752874

>  <r_i_glide_ligand_efficiency_sa>  (255) 
-0.233935

>  <r_i_glide_ligand_efficiency_ln>  (255) 
-0.513184

>  <r_i_glide_gscore>  (255) 
-2.25862

>  <r_i_glide_lipo>  (255) 
-0.418944

>  <r_i_glide_hbond>  (255) 
0

>  <r_i_glide_metal>  (255) 
-0

>  <r_i_glide_rewards>  (255) 
-0.582132

>  <r_i_glide_evdw>  (255) 
-23.2347

>  <r_i_glide_ecoul>  (255) 
-1.40421

>  <r_i_glide_erotb>  (255) 
0.114823

>  <r_i_glide_esite>  (255) 
0

>  <r_i_glide_emodel>  (255) 
-27.7599

>  <r_i_glide_energy>  (255) 
-24.639

>  <r_i_glide_einternal>  (255) 
0.225188

>  <r_i_glide_intrahb_reward>  (255) 
-0

>  <i_i_glide_confnum>  (255) 
2

>  <i_i_glide_posenum>  (255) 
26

>  <r_i_glide_eff_state_penalty>  (255) 
0

>  <ligand_id>  (255) 
65

>  <original_smiles>  (255) 
CC1(CO)CCCC2(C)C1=CCC1(C)C3CCC45COC4C3CCC5C(C)(C)OC21

>  <smiles>  (255) 
[H]OC([H])([H])C1(C([H])([H])[H])C2=C([H])C([H])([H])C3(C([H])([H])[H])C([H])(OC(C([H])([H])[H])(C([H])([H])[H])C4([H])C([H])([H])C([H])([H])C5([H])C6([H])OC([H])([H])C64C([H])([H])C([H])([H])C53[H])C2(C([H])([H])[H])C([H])([H])C([H])([H])C1([H])[H]

$$$$
65:1:0
     RDKit          3D

 72 77  0  0  1  0  0  0  0  0999 V2000
    4.9325   -0.8038   -1.2287 C   0  0  0  0  0  0  0  0  0  0  0  0
    5.0831   -2.3125   -1.5463 C   0  0  1  0  0  0  0  0  0  0  0  0
    4.4620   -2.5064   -2.9710 C   0  0  0  0  0  0  0  0  0  0  0  0
    4.5889   -3.8259   -3.4855 O   0  0  0  0  0  0  0  0  0  0  0  0
    6.5911   -2.6808   -1.6542 C   0  0  0  0  0  0  0  0  0  0  0  0
    7.3361   -2.7609   -0.3161 C   0  0  0  0  0  0  0  0  0  0  0  0
    6.6219   -3.7037    0.6685 C   0  0  0  0  0  0  0  0  0  0  0  0
    5.1317   -3.3382    0.9142 C   0  0  1  0  0  0  0  0  0  0  0  0
    5.0756   -2.0052    1.7120 C   0  0  0  0  0  0  0  0  0  0  0  0
    4.3965   -3.1790   -0.4529 C   0  0  0  0  0  0  0  0  0  0  0  0
    3.2496   -3.8581   -0.6995 C   0  0  0  0  0  0  0  0  0  0  0  0
    2.6516   -4.9317    0.1826 C   0  0  0  0  0  0  0  0  0  0  0  0
    3.7259   -5.6518    1.0400 C   0  0  2  0  0  0  0  0  0  0  0  0
    4.6577   -6.3972    0.0310 C   0  0  0  0  0  0  0  0  0  0  0  0
    2.9746   -6.7321    1.9539 C   0  0  1  0  0  0  0  0  0  0  0  0
    1.5482   -6.6612    2.5558 C   0  0  0  0  0  0  0  0  0  0  0  0
    1.6260   -6.3200    4.1011 C   0  0  0  0  0  0  0  0  0  0  0  0
    2.8625   -6.9958    4.8122 C   0  0  1  0  0  0  0  0  0  0  0  0
    2.3105   -8.0646    5.7750 C   0  0  0  0  0  0  0  0  0  0  0  0
    1.9913   -8.8779    4.5846 O   0  0  0  0  0  0  0  0  0  0  0  0
    3.1992   -8.3130    4.0621 C   0  0  1  0  0  0  0  0  0  0  0  0
    3.7414   -7.9694    2.6515 C   0  0  2  0  0  0  0  0  0  0  0  0
    5.2536   -7.6928    3.0270 C   0  0  0  0  0  0  0  0  0  0  0  0
    5.4767   -7.1216    4.4814 C   0  0  0  0  0  0  0  0  0  0  0  0
    4.2796   -6.1918    4.8705 C   0  0  2  0  0  0  0  0  0  0  0  0
    4.6406   -4.6809    4.4539 C   0  0  0  0  0  0  0  0  0  0  0  0
    3.5377   -3.6301    4.7393 C   0  0  0  0  0  0  0  0  0  0  0  0
    5.8348   -4.2024    5.3161 C   0  0  0  0  0  0  0  0  0  0  0  0
    5.1992   -4.5744    3.0656 O   0  0  0  0  0  0  0  0  0  0  0  0
    4.4134   -4.3981    1.8313 C   0  0  1  0  0  0  0  0  0  0  0  0
    4.9659   -0.1969   -2.1324 H   0  0  0  0  0  0  0  0  0  0  0  0
    5.7254   -0.4204   -0.5914 H   0  0  0  0  0  0  0  0  0  0  0  0
    3.9805   -0.5993   -0.7371 H   0  0  0  0  0  0  0  0  0  0  0  0
    3.4142   -2.1972   -2.9937 H   0  0  0  0  0  0  0  0  0  0  0  0
    4.9676   -1.8505   -3.6797 H   0  0  0  0  0  0  0  0  0  0  0  0
    4.0896   -4.4302   -2.9499 H   0  0  0  0  0  0  0  0  0  0  0  0
    6.7017   -3.6536   -2.1295 H   0  0  0  0  0  0  0  0  0  0  0  0
    7.1037   -1.9861   -2.3189 H   0  0  0  0  0  0  0  0  0  0  0  0
    8.3423   -3.1372   -0.5036 H   0  0  0  0  0  0  0  0  0  0  0  0
    7.4776   -1.7707    0.1154 H   0  0  0  0  0  0  0  0  0  0  0  0
    6.7022   -4.7137    0.2754 H   0  0  0  0  0  0  0  0  0  0  0  0
    7.1650   -3.7123    1.6161 H   0  0  0  0  0  0  0  0  0  0  0  0
    5.3563   -2.1460    2.7558 H   0  0  0  0  0  0  0  0  0  0  0  0
    4.0729   -1.5799    1.6992 H   0  0  0  0  0  0  0  0  0  0  0  0
    5.7536   -1.2457    1.3458 H   0  0  0  0  0  0  0  0  0  0  0  0
    2.7073   -3.7320   -1.6225 H   0  0  0  0  0  0  0  0  0  0  0  0
    1.8919   -4.4510    0.7981 H   0  0  0  0  0  0  0  0  0  0  0  0
    2.1385   -5.6544   -0.4503 H   0  0  0  0  0  0  0  0  0  0  0  0
    5.6361   -6.6583    0.4127 H   0  0  0  0  0  0  0  0  0  0  0  0
    4.8676   -5.8146   -0.8645 H   0  0  0  0  0  0  0  0  0  0  0  0
    4.2144   -7.3235   -0.3280 H   0  0  0  0  0  0  0  0  0  0  0  0
    2.9425   -5.8298    2.4892 H   0  0  0  0  0  0  0  0  0  0  0  0
    0.8810   -5.9713    2.0452 H   0  0  0  0  0  0  0  0  0  0  0  0
    1.0886   -7.6436    2.4316 H   0  0  0  0  0  0  0  0  0  0  0  0
    1.5652   -5.2612    4.2818 H   0  0  0  0  0  0  0  0  0  0  0  0
    0.6908   -6.6820    4.5304 H   0  0  0  0  0  0  0  0  0  0  0  0
    3.0511   -8.5290    6.4310 H   0  0  0  0  0  0  0  0  0  0  0  0
    1.4255   -7.7630    6.3344 H   0  0  0  0  0  0  0  0  0  0  0  0
    3.9465   -8.9865    4.5067 H   0  0  0  0  0  0  0  0  0  0  0  0
    3.6840   -8.8348    1.9908 H   0  0  0  0  0  0  0  0  0  0  0  0
    5.8235   -8.6146    2.9247 H   0  0  0  0  0  0  0  0  0  0  0  0
    5.7189   -6.9806    2.3645 H   0  0  0  0  0  0  0  0  0  0  0  0
    5.5741   -7.9183    5.2227 H   0  0  0  0  0  0  0  0  0  0  0  0
    6.4477   -6.6353    4.5017 H   0  0  0  0  0  0  0  0  0  0  0  0
    4.0508   -5.9961    3.9150 H   0  0  0  0  0  0  0  0  0  0  0  0
    3.1368   -3.7532    5.7455 H   0  0  0  0  0  0  0  0  0  0  0  0
    2.7067   -3.6362    4.0459 H   0  0  0  0  0  0  0  0  0  0  0  0
    3.9336   -2.6163    4.6750 H   0  0  0  0  0  0  0  0  0  0  0  0
    5.6546   -4.3597    6.3812 H   0  0  0  0  0  0  0  0  0  0  0  0
    6.0290   -3.1383    5.1708 H   0  0  0  0  0  0  0  0  0  0  0  0
    6.7734   -4.6929    5.0656 H   0  0  0  0  0  0  0  0  0  0  0  0
    3.5535   -3.8305    2.1700 H   0  0  0  0  0  0  0  0  0  0  0  0
  2  1  1  1
  1 31  1  0
  1 32  1  0
  1 33  1  0
  2 10  1  0
  2  3  1  0
  2  5  1  0
  3  4  1  0
  3 34  1  0
  3 35  1  0
  4 36  1  0
  5  6  1  0
  5 37  1  0
  5 38  1  0
  6  7  1  0
  6 39  1  0
  6 40  1  0
  7  8  1  0
  7 41  1  0
  7 42  1  0
  8 30  1  0
  8  9  1  1
  8 10  1  0
  9 43  1  0
  9 44  1  0
  9 45  1  0
 10 11  2  0
 11 12  1  0
 11 46  1  0
 12 13  1  0
 12 47  1  0
 12 48  1  0
 13 30  1  0
 13 14  1  6
 13 15  1  0
 14 49  1  0
 14 50  1  0
 14 51  1  0
 15 22  1  0
 15 16  1  0
 15 52  1  6
 16 17  1  0
 16 53  1  0
 16 54  1  0
 17 18  1  0
 17 55  1  0
 17 56  1  0
 18 21  1  0
 18 25  1  0
 18 19  1  1
 19 20  1  0
 19 57  1  0
 19 58  1  0
 20 21  1  0
 21 22  1  0
 21 59  1  1
 22 23  1  0
 22 60  1  6
 23 24  1  0
 23 61  1  0
 23 62  1  0
 24 25  1  0
 24 63  1  0
 24 64  1  0
 25 26  1  0
 25 65  1  1
 26 27  1  0
 26 28  1  0
 26 29  1  0
 27 66  1  0
 27 67  1  0
 27 68  1  0
 28 69  1  0
 28 70  1  0
 28 71  1  0
 29 30  1  0
 30 72  1  1
M  END
>  <i_m_ct_stereo_status>  (256) 
1

>  <s_m_source_file>  (256) 
/var/tmp/pbs.5076255.sched01/tmpwmgilt76/96rd2vfdyj.sdf

>  <i_m_source_file_index>  (256) 
15

>  <i_lp_mmshare_version>  (256) 
48012

>  <i_f3d_flags>  (256) 
0

>  <s_epik_input>  (256) 
W0NIMl0xW0NIMl1bQ0gyXVtDQEBdKFtDSDNdKShbQ0gyXVtPSF0pQyg9W0NIXVtDSDJdMilbQ0BAXTEoW0NIM10pW0NASF0oT0MoW0NIM10pKFtDSDNdKVtDQEhdM1tDSDJdW0NIMl00KVtDQEBdMihbQ0gzXSlbQ0BASF0oW0NIMl1bQ0gyXTUpW0NASF00W0NIXShbQ0BAXTM1NilPW0NIMl02

>  <s_epik_cmdline>  (256) 
J2VwaWtfcHl0aG9uJywgJy1waHQnLCAnMi4wJywgJy1waCcsICc3LjAnLCAnLXRuJywgJzgnLCAnLW1hJywgJzIwMCcsICctaW1hZScsICc8aW5maWxlLm1hZT4nLCAnLW9tYWUnLCAnPG91dGZpbGUubWFlPic=

>  <r_lp_tautomer_probability>  (256) 
1

>  <r_epik_Ionization_Penalty>  (256) 
4.31697e-07

>  <r_epik_Ionization_Penalty_Charging>  (256) 
0

>  <r_epik_Ionization_Penalty_Neutral>  (256) 
4.31697e-07

>  <r_epik_State_Penalty>  (256) 
-0

>  <r_epik_Charging_Adjusted_Penalty>  (256) 
0

>  <i_epik_Tot_Q>  (256) 
0

>  <i_epik_Tot_abs_Q>  (256) 
0

>  <s_lp_Force_Field>  (256) 
OPLS3e

>  <r_lp_Energy>  (256) 
255.389

>  <b_lp_Chiralities_Consistent>  (256) 
1

>  <s_lp_Variant>  (256) 
65:0-2

>  <s_i_glide_gridfile>  (256) 
pfpi4k_grid

>  <i_i_glide_lignum>  (256) 
15

>  <i_i_glide_rotatable_bonds>  (256) 
2

>  <r_i_docking_score>  (256) 
-2.88188

>  <r_i_glide_ligand_efficiency>  (256) 
-0.0960628

>  <r_i_glide_ligand_efficiency_sa>  (256) 
-0.298489

>  <r_i_glide_ligand_efficiency_ln>  (256) 
-0.654795

>  <r_i_glide_gscore>  (256) 
-2.88188

>  <r_i_glide_lipo>  (256) 
-0.511748

>  <r_i_glide_hbond>  (256) 
-0.319173

>  <r_i_glide_metal>  (256) 
-0

>  <r_i_glide_rewards>  (256) 
-0.582132

>  <r_i_glide_evdw>  (256) 
-23.0015

>  <r_i_glide_ecoul>  (256) 
-2.89053

>  <r_i_glide_erotb>  (256) 
0.114823

>  <r_i_glide_esite>  (256) 
0

>  <r_i_glide_emodel>  (256) 
-29.1152

>  <r_i_glide_energy>  (256) 
-25.892

>  <r_i_glide_einternal>  (256) 
1.71197

>  <r_i_glide_intrahb_reward>  (256) 
-0

>  <i_i_glide_confnum>  (256) 
2

>  <i_i_glide_posenum>  (256) 
33

>  <r_i_glide_eff_state_penalty>  (256) 
0

>  <ligand_id>  (256) 
65

>  <original_smiles>  (256) 
CC1(CO)CCCC2(C)C1=CCC1(C)C3CCC45COC4C3CCC5C(C)(C)OC21

>  <smiles>  (256) 
[H]OC([H])([H])C1(C([H])([H])[H])C2=C([H])C([H])([H])C3(C([H])([H])[H])C([H])(OC(C([H])([H])[H])(C([H])([H])[H])C4([H])C([H])([H])C([H])([H])C5([H])C6([H])OC([H])([H])C64C([H])([H])C([H])([H])C53[H])C2(C([H])([H])[H])C([H])([H])C([H])([H])C1([H])[H]

$$$$
65:1:1
     RDKit          3D

 72 77  0  0  1  0  0  0  0  0999 V2000
    4.3134   -0.9602   -0.7599 C   0  0  0  0  0  0  0  0  0  0  0  0
    4.5470   -2.4257   -1.2114 C   0  0  1  0  0  0  0  0  0  0  0  0
    3.7993   -2.6260   -2.5735 C   0  0  0  0  0  0  0  0  0  0  0  0
    4.2342   -1.7534   -3.6037 O   0  0  0  0  0  0  0  0  0  0  0  0
    6.0547   -2.6848   -1.4928 C   0  0  0  0  0  0  0  0  0  0  0  0
    6.9411   -2.7878   -0.2420 C   0  0  0  0  0  0  0  0  0  0  0  0
    6.4098   -3.8412    0.7449 C   0  0  0  0  0  0  0  0  0  0  0  0
    4.9277   -3.6188    1.1530 C   0  0  1  0  0  0  0  0  0  0  0  0
    4.8453   -2.3515    2.0473 C   0  0  0  0  0  0  0  0  0  0  0  0
    4.0535   -3.4330   -0.1234 C   0  0  0  0  0  0  0  0  0  0  0  0
    2.9560   -4.2072   -0.3167 C   0  0  0  0  0  0  0  0  0  0  0  0
    2.5334   -5.3789    0.5444 C   0  0  0  0  0  0  0  0  0  0  0  0
    3.7348   -6.0540    1.2540 C   0  0  2  0  0  0  0  0  0  0  0  0
    4.6149   -6.6556    0.1143 C   0  0  0  0  0  0  0  0  0  0  0  0
    3.1718   -7.2489    2.1633 C   0  0  1  0  0  0  0  0  0  0  0  0
    1.8122   -7.3426    2.9010 C   0  0  0  0  0  0  0  0  0  0  0  0
    2.0175   -7.0889    4.4532 C   0  0  0  0  0  0  0  0  0  0  0  0
    3.3698   -7.6959    4.9961 C   0  0  1  0  0  0  0  0  0  0  0  0
    3.0073   -8.8648    5.9313 C   0  0  0  0  0  0  0  0  0  0  0  0
    2.6393   -9.6304    4.7226 O   0  0  0  0  0  0  0  0  0  0  0  0
    3.7364   -8.9303    4.1288 C   0  0  1  0  0  0  0  0  0  0  0  0
    4.1021   -8.4567    2.6995 C   0  0  2  0  0  0  0  0  0  0  0  0
    5.6185   -8.0714    2.9486 C   0  0  0  0  0  0  0  0  0  0  0  0
    5.9390   -7.5713    4.4109 C   0  0  0  0  0  0  0  0  0  0  0  0
    4.7157   -6.7748    4.9737 C   0  0  2  0  0  0  0  0  0  0  0  0
    4.9086   -5.2162    4.6260 C   0  0  0  0  0  0  0  0  0  0  0  0
    3.7576   -4.2852    5.0893 C   0  0  0  0  0  0  0  0  0  0  0  0
    6.1419   -4.6850    5.3992 C   0  0  0  0  0  0  0  0  0  0  0  0
    5.3121   -4.9767    3.1999 O   0  0  0  0  0  0  0  0  0  0  0  0
    4.3938   -4.7945    2.0593 C   0  0  1  0  0  0  0  0  0  0  0  0
    4.2205   -0.2678   -1.5957 H   0  0  0  0  0  0  0  0  0  0  0  0
    5.1354   -0.5650   -0.1673 H   0  0  0  0  0  0  0  0  0  0  0  0
    3.3947   -0.8731   -0.1779 H   0  0  0  0  0  0  0  0  0  0  0  0
    3.9420   -3.6489   -2.9303 H   0  0  0  0  0  0  0  0  0  0  0  0
    2.7270   -2.4557   -2.4682 H   0  0  0  0  0  0  0  0  0  0  0  0
    3.8865   -0.8947   -3.4148 H   0  0  0  0  0  0  0  0  0  0  0  0
    6.1593   -3.6158   -2.0507 H   0  0  0  0  0  0  0  0  0  0  0  0
    6.4487   -1.9105   -2.1492 H   0  0  0  0  0  0  0  0  0  0  0  0
    7.9517   -3.0628   -0.5462 H   0  0  0  0  0  0  0  0  0  0  0  0
    7.0422   -1.8168    0.2393 H   0  0  0  0  0  0  0  0  0  0  0  0
    6.5333   -4.8164    0.2822 H   0  0  0  0  0  0  0  0  0  0  0  0
    7.0442   -3.8562    1.6331 H   0  0  0  0  0  0  0  0  0  0  0  0
    5.2402   -2.5326    3.0471 H   0  0  0  0  0  0  0  0  0  0  0  0
    3.8145   -2.0161    2.1594 H   0  0  0  0  0  0  0  0  0  0  0  0
    5.4204   -1.5149    1.6732 H   0  0  0  0  0  0  0  0  0  0  0  0
    2.3276   -4.0907   -1.1845 H   0  0  0  0  0  0  0  0  0  0  0  0
    1.8060   -5.0051    1.2653 H   0  0  0  0  0  0  0  0  0  0  0  0
    2.0214   -6.1021   -0.0915 H   0  0  0  0  0  0  0  0  0  0  0  0
    5.6436   -6.8350    0.4020 H   0  0  0  0  0  0  0  0  0  0  0  0
    4.6880   -6.0030   -0.7541 H   0  0  0  0  0  0  0  0  0  0  0  0
    4.2188   -7.5949   -0.2592 H   0  0  0  0  0  0  0  0  0  0  0  0
    3.1207   -6.3878    2.7597 H   0  0  0  0  0  0  0  0  0  0  0  0
    1.0415   -6.6842    2.5061 H   0  0  0  0  0  0  0  0  0  0  0  0
    1.4241   -8.3507    2.7567 H   0  0  0  0  0  0  0  0  0  0  0  0
    1.8886   -6.0529    4.7118 H   0  0  0  0  0  0  0  0  0  0  0  0
    1.1624   -7.5583    4.9440 H   0  0  0  0  0  0  0  0  0  0  0  0
    3.8441   -9.3006    6.4799 H   0  0  0  0  0  0  0  0  0  0  0  0
    2.1587   -8.6796    6.5903 H   0  0  0  0  0  0  0  0  0  0  0  0
    4.5770   -9.5592    4.4533 H   0  0  0  0  0  0  0  0  0  0  0  0
    4.0500   -9.2824    1.9901 H   0  0  0  0  0  0  0  0  0  0  0  0
    6.2484   -8.9323    2.7294 H   0  0  0  0  0  0  0  0  0  0  0  0
    5.9561   -7.2819    2.2975 H   0  0  0  0  0  0  0  0  0  0  0  0
    6.1754   -8.3989    5.0839 H   0  0  0  0  0  0  0  0  0  0  0  0
    6.8652   -7.0023    4.3711 H   0  0  0  0  0  0  0  0  0  0  0  0
    4.3766   -6.5437    4.0589 H   0  0  0  0  0  0  0  0  0  0  0  0
    3.4725   -4.5034    6.1184 H   0  0  0  0  0  0  0  0  0  0  0  0
    2.8649   -4.3233    4.4799 H   0  0  0  0  0  0  0  0  0  0  0  0
    4.0608   -3.2386    5.0574 H   0  0  0  0  0  0  0  0  0  0  0  0
    6.0861   -4.9214    6.4640 H   0  0  0  0  0  0  0  0  0  0  0  0
    6.2266   -3.6011    5.3074 H   0  0  0  0  0  0  0  0  0  0  0  0
    7.0900   -5.0689    5.0237 H   0  0  0  0  0  0  0  0  0  0  0  0
    3.5293   -4.3274    2.5198 H   0  0  0  0  0  0  0  0  0  0  0  0
  2  1  1  1
  1 31  1  0
  1 32  1  0
  1 33  1  0
  2 10  1  0
  2  3  1  0
  2  5  1  0
  3  4  1  0
  3 34  1  0
  3 35  1  0
  4 36  1  0
  5  6  1  0
  5 37  1  0
  5 38  1  0
  6  7  1  0
  6 39  1  0
  6 40  1  0
  7  8  1  0
  7 41  1  0
  7 42  1  0
  8 30  1  0
  8  9  1  1
  8 10  1  0
  9 43  1  0
  9 44  1  0
  9 45  1  0
 10 11  2  0
 11 12  1  0
 11 46  1  0
 12 13  1  0
 12 47  1  0
 12 48  1  0
 13 30  1  0
 13 14  1  6
 13 15  1  0
 14 49  1  0
 14 50  1  0
 14 51  1  0
 15 22  1  0
 15 16  1  0
 15 52  1  6
 16 17  1  0
 16 53  1  0
 16 54  1  0
 17 18  1  0
 17 55  1  0
 17 56  1  0
 18 21  1  0
 18 25  1  0
 18 19  1  1
 19 20  1  0
 19 57  1  0
 19 58  1  0
 20 21  1  0
 21 22  1  0
 21 59  1  1
 22 23  1  0
 22 60  1  6
 23 24  1  0
 23 61  1  0
 23 62  1  0
 24 25  1  0
 24 63  1  0
 24 64  1  0
 25 26  1  0
 25 65  1  1
 26 27  1  0
 26 28  1  0
 26 29  1  0
 27 66  1  0
 27 67  1  0
 27 68  1  0
 28 69  1  0
 28 70  1  0
 28 71  1  0
 29 30  1  0
 30 72  1  1
M  END
>  <i_m_ct_stereo_status>  (257) 
1

>  <s_m_source_file>  (257) 
/var/tmp/pbs.5076255.sched01/tmpwmgilt76/96rd2vfdyj.sdf

>  <i_m_source_file_index>  (257) 
15

>  <i_lp_mmshare_version>  (257) 
48012

>  <i_f3d_flags>  (257) 
0

>  <s_epik_input>  (257) 
W0NIMl0xW0NIMl1bQ0gyXVtDQEBdKFtDSDNdKShbQ0gyXVtPSF0pQyg9W0NIXVtDSDJdMilbQ0BAXTEoW0NIM10pW0NASF0oT0MoW0NIM10pKFtDSDNdKVtDQEhdM1tDSDJdW0NIMl00KVtDQEBdMihbQ0gzXSlbQ0BASF0oW0NIMl1bQ0gyXTUpW0NASF00W0NIXShbQ0BAXTM1NilPW0NIMl02

>  <s_epik_cmdline>  (257) 
J2VwaWtfcHl0aG9uJywgJy1waHQnLCAnMi4wJywgJy1waCcsICc3LjAnLCAnLXRuJywgJzgnLCAnLW1hJywgJzIwMCcsICctaW1hZScsICc8aW5maWxlLm1hZT4nLCAnLW9tYWUnLCAnPG91dGZpbGUubWFlPic=

>  <r_lp_tautomer_probability>  (257) 
1

>  <r_epik_Ionization_Penalty>  (257) 
4.31697e-07

>  <r_epik_Ionization_Penalty_Charging>  (257) 
0

>  <r_epik_Ionization_Penalty_Neutral>  (257) 
4.31697e-07

>  <r_epik_State_Penalty>  (257) 
-0

>  <r_epik_Charging_Adjusted_Penalty>  (257) 
0

>  <i_epik_Tot_Q>  (257) 
0

>  <i_epik_Tot_abs_Q>  (257) 
0

>  <s_lp_Force_Field>  (257) 
OPLS3e

>  <r_lp_Energy>  (257) 
255.389

>  <b_lp_Chiralities_Consistent>  (257) 
1

>  <s_lp_Variant>  (257) 
65:0-2

>  <s_i_glide_gridfile>  (257) 
pfpi4k_grid

>  <i_i_glide_lignum>  (257) 
15

>  <i_i_glide_rotatable_bonds>  (257) 
2

>  <r_i_docking_score>  (257) 
-2.29773

>  <r_i_glide_ligand_efficiency>  (257) 
-0.0765911

>  <r_i_glide_ligand_efficiency_sa>  (257) 
-0.237986

>  <r_i_glide_ligand_efficiency_ln>  (257) 
-0.52207

>  <r_i_glide_gscore>  (257) 
-2.29773

>  <r_i_glide_lipo>  (257) 
-0.407344

>  <r_i_glide_hbond>  (257) 
0

>  <r_i_glide_metal>  (257) 
-0

>  <r_i_glide_rewards>  (257) 
-0.582132

>  <r_i_glide_evdw>  (257) 
-22.282

>  <r_i_glide_ecoul>  (257) 
-2.05986

>  <r_i_glide_erotb>  (257) 
0.114823

>  <r_i_glide_esite>  (257) 
0

>  <r_i_glide_emodel>  (257) 
-27.3827

>  <r_i_glide_energy>  (257) 
-24.3418

>  <r_i_glide_einternal>  (257) 
0.149301

>  <r_i_glide_intrahb_reward>  (257) 
-0

>  <i_i_glide_confnum>  (257) 
2

>  <i_i_glide_posenum>  (257) 
7

>  <r_i_glide_eff_state_penalty>  (257) 
0

>  <ligand_id>  (257) 
65

>  <original_smiles>  (257) 
CC1(CO)CCCC2(C)C1=CCC1(C)C3CCC45COC4C3CCC5C(C)(C)OC21

>  <smiles>  (257) 
[H]OC([H])([H])C1(C([H])([H])[H])C2=C([H])C([H])([H])C3(C([H])([H])[H])C([H])(OC(C([H])([H])[H])(C([H])([H])[H])C4([H])C([H])([H])C([H])([H])C5([H])C6([H])OC([H])([H])C64C([H])([H])C([H])([H])C53[H])C2(C([H])([H])[H])C([H])([H])C([H])([H])C1([H])[H]

$$$$
65:1:2
     RDKit          3D

 72 77  0  0  1  0  0  0  0  0999 V2000
    3.0404   -0.5971   -2.9290 C   0  0  0  0  0  0  0  0  0  0  0  0
    3.5488   -2.0572   -2.8201 C   0  0  1  0  0  0  0  0  0  0  0  0
    3.0955   -2.7676   -4.1294 C   0  0  0  0  0  0  0  0  0  0  0  0
    3.7607   -4.0084   -4.2955 O   0  0  0  0  0  0  0  0  0  0  0  0
    5.0564   -1.9760   -2.9503 C   0  0  0  0  0  0  0  0  0  0  0  0
    5.7739   -1.4401   -1.7178 C   0  0  0  0  0  0  0  0  0  0  0  0
    5.4389   -2.2609   -0.4639 C   0  0  0  0  0  0  0  0  0  0  0  0
    3.9163   -2.3325   -0.2096 C   0  0  1  0  0  0  0  0  0  0  0  0
    3.5120   -0.9173    0.3079 C   0  0  0  0  0  0  0  0  0  0  0  0
    3.1725   -2.7634   -1.4915 C   0  0  0  0  0  0  0  0  0  0  0  0
    2.3326   -3.8341   -1.5012 C   0  0  0  0  0  0  0  0  0  0  0  0
    2.1979   -4.8315   -0.3563 C   0  0  0  0  0  0  0  0  0  0  0  0
    3.4125   -4.8697    0.5673 C   0  0  2  0  0  0  0  0  0  0  0  0
    4.5682   -5.5006   -0.2787 C   0  0  0  0  0  0  0  0  0  0  0  0
    2.9959   -5.8447    1.7627 C   0  0  1  0  0  0  0  0  0  0  0  0
    1.5974   -6.0824    2.3957 C   0  0  0  0  0  0  0  0  0  0  0  0
    1.5089   -5.3327    3.7934 C   0  0  0  0  0  0  0  0  0  0  0  0
    2.8674   -5.3674    4.5810 C   0  0  1  0  0  0  0  0  0  0  0  0
    2.6856   -6.2804    5.8030 C   0  0  0  0  0  0  0  0  0  0  0  0
    2.6804   -7.4034    4.8793 O   0  0  0  0  0  0  0  0  0  0  0  0
    3.6408   -6.6453    4.1830 C   0  0  1  0  0  0  0  0  0  0  0  0
    4.0864   -6.5361    2.7155 C   0  0  2  0  0  0  0  0  0  0  0  0
    5.4103   -5.6935    2.9064 C   0  0  0  0  0  0  0  0  0  0  0  0
    5.3757   -4.7187    4.1463 C   0  0  0  0  0  0  0  0  0  0  0  0
    3.9368   -4.1642    4.3516 C   0  0  2  0  0  0  0  0  0  0  0  0
    3.7858   -2.7787    3.5475 C   0  0  0  0  0  0  0  0  0  0  0  0
    2.3854   -2.1089    3.6177 C   0  0  0  0  0  0  0  0  0  0  0  0
    4.7352   -1.7289    4.1706 C   0  0  0  0  0  0  0  0  0  0  0  0
    4.3295   -2.8609    2.1548 O   0  0  0  0  0  0  0  0  0  0  0  0
    3.5756   -3.2952    0.9703 C   0  0  1  0  0  0  0  0  0  0  0  0
    2.7700   -0.3386   -3.9653 H   0  0  0  0  0  0  0  0  0  0  0  0
    3.7575    0.1505   -2.5914 H   0  0  0  0  0  0  0  0  0  0  0  0
    2.1904   -0.5130   -2.3031 H   0  0  0  0  0  0  0  0  0  0  0  0
    2.0093   -2.8642   -4.2301 H   0  0  0  0  0  0  0  0  0  0  0  0
    3.4105   -2.1716   -4.9876 H   0  0  0  0  0  0  0  0  0  0  0  0
    3.4421   -4.6050   -3.6229 H   0  0  0  0  0  0  0  0  0  0  0  0
    5.5501   -2.9239   -3.1752 H   0  0  0  0  0  0  0  0  0  0  0  0
    5.1584   -1.3472   -3.8278 H   0  0  0  0  0  0  0  0  0  0  0  0
    6.8331   -1.5728   -1.8879 H   0  0  0  0  0  0  0  0  0  0  0  0
    5.5915   -0.3736   -1.5810 H   0  0  0  0  0  0  0  0  0  0  0  0
    5.8645   -3.2512   -0.6037 H   0  0  0  0  0  0  0  0  0  0  0  0
    5.9375   -1.8193    0.4008 H   0  0  0  0  0  0  0  0  0  0  0  0
    3.8507   -0.7141    1.3293 H   0  0  0  0  0  0  0  0  0  0  0  0
    2.4509   -0.7823    0.3448 H   0  0  0  0  0  0  0  0  0  0  0  0
    3.8891   -0.1325   -0.3298 H   0  0  0  0  0  0  0  0  0  0  0  0
    1.7749   -4.0703   -2.3764 H   0  0  0  0  0  0  0  0  0  0  0  0
    1.4212   -4.4565    0.2598 H   0  0  0  0  0  0  0  0  0  0  0  0
    1.9354   -5.8579   -0.6952 H   0  0  0  0  0  0  0  0  0  0  0  0
    5.5768   -5.3514    0.1052 H   0  0  0  0  0  0  0  0  0  0  0  0
    4.6008   -5.0730   -1.2867 H   0  0  0  0  0  0  0  0  0  0  0  0
    4.3820   -6.5715   -0.3987 H   0  0  0  0  0  0  0  0  0  0  0  0
    2.6295   -4.8976    2.0424 H   0  0  0  0  0  0  0  0  0  0  0  0
    0.7543   -5.7831    1.7844 H   0  0  0  0  0  0  0  0  0  0  0  0
    1.4789   -7.1425    2.5581 H   0  0  0  0  0  0  0  0  0  0  0  0
    1.0889   -4.3441    3.7051 H   0  0  0  0  0  0  0  0  0  0  0  0
    0.7319   -5.8596    4.3653 H   0  0  0  0  0  0  0  0  0  0  0  0
    3.5250   -6.2689    6.4980 H   0  0  0  0  0  0  0  0  0  0  0  0
    1.7356   -6.1371    6.3296 H   0  0  0  0  0  0  0  0  0  0  0  0
    4.5510   -6.8790    4.7413 H   0  0  0  0  0  0  0  0  0  0  0  0
    4.3256   -7.5077    2.2845 H   0  0  0  0  0  0  0  0  0  0  0  0
    6.2552   -6.3739    2.9954 H   0  0  0  0  0  0  0  0  0  0  0  0
    5.6060   -5.0530    2.0618 H   0  0  0  0  0  0  0  0  0  0  0  0
    5.7225   -5.2130    5.0554 H   0  0  0  0  0  0  0  0  0  0  0  0
    6.1120   -3.9502    3.9492 H   0  0  0  0  0  0  0  0  0  0  0  0
    3.7033   -4.3113    3.3838 H   0  0  0  0  0  0  0  0  0  0  0  0
    2.0283   -2.0845    4.6446 H   0  0  0  0  0  0  0  0  0  0  0  0
    1.6242   -2.5628    2.9993 H   0  0  0  0  0  0  0  0  0  0  0  0
    2.4345   -1.0787    3.2716 H   0  0  0  0  0  0  0  0  0  0  0  0
    4.5927   -1.6491    5.2466 H   0  0  0  0  0  0  0  0  0  0  0  0
    4.5622   -0.7427    3.7429 H   0  0  0  0  0  0  0  0  0  0  0  0
    5.7814   -1.9351    3.9747 H   0  0  0  0  0  0  0  0  0  0  0  0
    2.5571   -2.9763    1.1791 H   0  0  0  0  0  0  0  0  0  0  0  0
  2  1  1  1
  1 31  1  0
  1 32  1  0
  1 33  1  0
  2 10  1  0
  2  3  1  0
  2  5  1  0
  3  4  1  0
  3 34  1  0
  3 35  1  0
  4 36  1  0
  5  6  1  0
  5 37  1  0
  5 38  1  0
  6  7  1  0
  6 39  1  0
  6 40  1  0
  7  8  1  0
  7 41  1  0
  7 42  1  0
  8 30  1  0
  8  9  1  1
  8 10  1  0
  9 43  1  0
  9 44  1  0
  9 45  1  0
 10 11  2  0
 11 12  1  0
 11 46  1  0
 12 13  1  0
 12 47  1  0
 12 48  1  0
 13 30  1  0
 13 14  1  6
 13 15  1  0
 14 49  1  0
 14 50  1  0
 14 51  1  0
 15 22  1  0
 15 16  1  0
 15 52  1  6
 16 17  1  0
 16 53  1  0
 16 54  1  0
 17 18  1  0
 17 55  1  0
 17 56  1  0
 18 21  1  0
 18 25  1  0
 18 19  1  1
 19 20  1  0
 19 57  1  0
 19 58  1  0
 20 21  1  0
 21 22  1  0
 21 59  1  1
 22 23  1  0
 22 60  1  6
 23 24  1  0
 23 61  1  0
 23 62  1  0
 24 25  1  0
 24 63  1  0
 24 64  1  0
 25 26  1  0
 25 65  1  1
 26 27  1  0
 26 28  1  0
 26 29  1  0
 27 66  1  0
 27 67  1  0
 27 68  1  0
 28 69  1  0
 28 70  1  0
 28 71  1  0
 29 30  1  0
 30 72  1  1
M  END
>  <i_m_ct_stereo_status>  (258) 
1

>  <s_m_source_file>  (258) 
/var/tmp/pbs.5076255.sched01/tmpwmgilt76/96rd2vfdyj.sdf

>  <i_m_source_file_index>  (258) 
15

>  <i_lp_mmshare_version>  (258) 
48012

>  <i_f3d_flags>  (258) 
0

>  <s_epik_input>  (258) 
W0NIMl0xW0NIMl1bQ0gyXVtDQEBdKFtDSDNdKShbQ0gyXVtPSF0pQyg9W0NIXVtDSDJdMilbQ0BAXTEoW0NIM10pW0NASF0oT0MoW0NIM10pKFtDSDNdKVtDQEhdM1tDSDJdW0NIMl00KVtDQEBdMihbQ0gzXSlbQ0BASF0oW0NIMl1bQ0gyXTUpW0NASF00W0NIXShbQ0BAXTM1NilPW0NIMl02

>  <s_epik_cmdline>  (258) 
J2VwaWtfcHl0aG9uJywgJy1waHQnLCAnMi4wJywgJy1waCcsICc3LjAnLCAnLXRuJywgJzgnLCAnLW1hJywgJzIwMCcsICctaW1hZScsICc8aW5maWxlLm1hZT4nLCAnLW9tYWUnLCAnPG91dGZpbGUubWFlPic=

>  <r_lp_tautomer_probability>  (258) 
1

>  <r_epik_Ionization_Penalty>  (258) 
4.31697e-07

>  <r_epik_Ionization_Penalty_Charging>  (258) 
0

>  <r_epik_Ionization_Penalty_Neutral>  (258) 
4.31697e-07

>  <r_epik_State_Penalty>  (258) 
-0

>  <r_epik_Charging_Adjusted_Penalty>  (258) 
0

>  <i_epik_Tot_Q>  (258) 
0

>  <i_epik_Tot_abs_Q>  (258) 
0

>  <s_lp_Force_Field>  (258) 
OPLS3e

>  <r_lp_Energy>  (258) 
255.389

>  <b_lp_Chiralities_Consistent>  (258) 
1

>  <s_lp_Variant>  (258) 
65:0-2

>  <s_i_glide_gridfile>  (258) 
pfpi4k_grid

>  <i_i_glide_lignum>  (258) 
15

>  <i_i_glide_rotatable_bonds>  (258) 
2

>  <r_i_docking_score>  (258) 
-2.06113

>  <r_i_glide_ligand_efficiency>  (258) 
-0.0687045

>  <r_i_glide_ligand_efficiency_sa>  (258) 
-0.213481

>  <r_i_glide_ligand_efficiency_ln>  (258) 
-0.468312

>  <r_i_glide_gscore>  (258) 
-2.06113

>  <r_i_glide_lipo>  (258) 
-0.0741387

>  <r_i_glide_hbond>  (258) 
-0.32

>  <r_i_glide_metal>  (258) 
-0

>  <r_i_glide_rewards>  (258) 
-0.582132

>  <r_i_glide_evdw>  (258) 
-9.6607

>  <r_i_glide_ecoul>  (258) 
-4.77767

>  <r_i_glide_erotb>  (258) 
0.114823

>  <r_i_glide_esite>  (258) 
0

>  <r_i_glide_emodel>  (258) 
-15.3947

>  <r_i_glide_energy>  (258) 
-14.4384

>  <r_i_glide_einternal>  (258) 
1.57924

>  <r_i_glide_intrahb_reward>  (258) 
-0

>  <i_i_glide_confnum>  (258) 
2

>  <i_i_glide_posenum>  (258) 
1

>  <r_i_glide_eff_state_penalty>  (258) 
0

>  <ligand_id>  (258) 
65

>  <original_smiles>  (258) 
CC1(CO)CCCC2(C)C1=CCC1(C)C3CCC45COC4C3CCC5C(C)(C)OC21

>  <smiles>  (258) 
[H]OC([H])([H])C1(C([H])([H])[H])C2=C([H])C([H])([H])C3(C([H])([H])[H])C([H])(OC(C([H])([H])[H])(C([H])([H])[H])C4([H])C([H])([H])C([H])([H])C5([H])C6([H])OC([H])([H])C64C([H])([H])C([H])([H])C53[H])C2(C([H])([H])[H])C([H])([H])C([H])([H])C1([H])[H]

$$$$
66:0:0
     RDKit          3D

 54 59  0  0  1  0  0  0  0  0999 V2000
    5.9288  -13.1330    5.2328 C   0  0  0  0  0  0  0  0  0  0  0  0
    5.1624  -12.6147    4.0270 C   0  0  0  0  0  0  0  0  0  0  0  0
    5.4086  -13.0326    2.8946 O   0  0  0  0  0  0  0  0  0  0  0  0
    4.2427  -11.6811    4.3492 O   0  0  0  0  0  0  0  0  0  0  0  0
    3.4581  -11.0554    3.3379 C   0  0  2  0  0  0  0  0  0  0  0  0
    4.3152   -9.7585    2.7106 C   0  0  1  0  0  0  0  0  0  0  0  0
    5.1560  -10.2449    1.6736 O   0  0  0  0  0  0  0  0  0  0  0  0
    3.4093   -8.4567    2.1422 C   0  0  1  0  0  0  0  0  0  0  0  0
    4.1104   -7.5793    1.0885 C   0  0  0  0  0  0  0  0  0  0  0  0
    2.4658   -9.3304    1.7265 C   0  0  0  0  0  0  0  0  0  0  0  0
    1.9842   -9.3719    3.3232 C   0  0  1  0  0  0  0  0  0  0  0  0
    0.7138   -8.9264    2.9044 C   0  0  2  0  0  0  0  0  0  0  0  0
   -0.5051   -8.2183    3.5238 C   0  0  0  0  0  0  0  0  0  0  0  0
    0.6324  -10.5396    2.9951 C   0  0  0  0  0  0  0  0  0  0  0  0
    1.9465  -10.7166    3.8250 C   0  0  1  0  0  0  0  0  0  0  0  0
    1.7486  -10.6490    5.3583 C   0  0  0  0  0  0  0  0  0  0  0  0
    1.5755   -9.1517    5.7201 C   0  0  1  0  0  0  0  0  0  0  0  0
    1.8429   -8.7659    7.2018 C   0  0  2  0  0  0  0  0  0  0  0  0
    0.9047   -9.4581    8.0165 O   0  0  0  0  0  0  0  0  0  0  0  0
    1.6677   -7.2685    7.5358 C   0  0  2  0  0  0  0  0  0  0  0  0
    0.5136   -6.4391    7.0173 C   0  0  0  0  0  0  0  0  0  0  0  0
    1.8347   -6.3099    6.4780 O   0  0  0  0  0  0  0  0  0  0  0  0
    2.4159   -8.4820    4.5942 C   0  0  1  0  0  0  0  0  0  0  0  0
    3.8643   -8.2707    5.1252 C   0  0  0  0  0  0  0  0  0  0  0  0
    2.0822   -7.2786    4.0060 O   0  0  0  0  0  0  0  0  0  0  0  0
    1.9307   -7.8043    2.7038 C   0  0  1  0  0  0  0  0  0  0  0  0
    6.4229  -12.3086    5.7455 H   0  0  0  0  0  0  0  0  0  0  0  0
    6.6866  -13.8460    4.9122 H   0  0  0  0  0  0  0  0  0  0  0  0
    5.2460  -13.6308    5.9204 H   0  0  0  0  0  0  0  0  0  0  0  0
    3.3363  -11.7920    2.5375 H   0  0  0  0  0  0  0  0  0  0  0  0
    5.0820   -9.4363    3.3996 H   0  0  0  0  0  0  0  0  0  0  0  0
    4.6915  -10.9191    1.1733 H   0  0  0  0  0  0  0  0  0  0  0  0
    3.4288   -6.8545    0.6426 H   0  0  0  0  0  0  0  0  0  0  0  0
    4.5347   -8.1698    0.2765 H   0  0  0  0  0  0  0  0  0  0  0  0
    4.9240   -7.0191    1.5483 H   0  0  0  0  0  0  0  0  0  0  0  0
    1.8074   -8.9741    0.9103 H   0  0  0  0  0  0  0  0  0  0  0  0
    2.7453  -10.2570    1.2255 H   0  0  0  0  0  0  0  0  0  0  0  0
   -1.1298   -7.8231    2.7287 H   0  0  0  0  0  0  0  0  0  0  0  0
   -0.2550   -7.3739    4.1535 H   0  0  0  0  0  0  0  0  0  0  0  0
   -1.1435   -8.8895    4.0982 H   0  0  0  0  0  0  0  0  0  0  0  0
   -0.2236  -10.8818    3.5796 H   0  0  0  0  0  0  0  0  0  0  0  0
    0.6116  -11.0532    2.0346 H   0  0  0  0  0  0  0  0  0  0  0  0
    0.8620  -11.2102    5.6578 H   0  0  0  0  0  0  0  0  0  0  0  0
    2.5791  -11.0768    5.9069 H   0  0  0  0  0  0  0  0  0  0  0  0
    0.5231   -8.9649    5.5800 H   0  0  0  0  0  0  0  0  0  0  0  0
    2.8482   -9.0819    7.5020 H   0  0  0  0  0  0  0  0  0  0  0  0
    1.0359  -10.4048    7.9365 H   0  0  0  0  0  0  0  0  0  0  0  0
    2.1637   -6.9611    8.4583 H   0  0  0  0  0  0  0  0  0  0  0  0
   -0.1972   -6.9233    6.3529 H   0  0  0  0  0  0  0  0  0  0  0  0
    0.1704   -5.5152    7.4865 H   0  0  0  0  0  0  0  0  0  0  0  0
    4.3377   -9.1984    5.4420 H   0  0  0  0  0  0  0  0  0  0  0  0
    3.8718   -7.6217    5.9922 H   0  0  0  0  0  0  0  0  0  0  0  0
    4.4925   -7.7269    4.4220 H   0  0  0  0  0  0  0  0  0  0  0  0
    1.5827   -6.9887    2.0600 H   0  0  0  0  0  0  0  0  0  0  0  0
  1  2  1  0
  1 27  1  0
  1 28  1  0
  1 29  1  0
  2  3  2  0
  2  4  1  0
  4  5  1  0
  5 15  1  0
  5  6  1  0
  5 30  1  6
  6  7  1  0
  6  8  1  0
  6 31  1  1
  7 32  1  0
  8 26  1  0
  8  9  1  6
  8 10  1  0
  9 33  1  0
  9 34  1  0
  9 35  1  0
 11 10  1  6
 10 36  1  0
 10 37  1  0
 11 15  1  0
 11 23  1  0
 11 12  1  0
 12 26  1  0
 12 13  1  1
 12 14  1  0
 13 38  1  0
 13 39  1  0
 13 40  1  0
 15 14  1  6
 14 41  1  0
 14 42  1  0
 15 16  1  0
 16 17  1  0
 16 43  1  0
 16 44  1  0
 17 18  1  0
 17 23  1  0
 17 45  1  6
 18 19  1  0
 18 20  1  0
 18 46  1  1
 19 47  1  0
 20 22  1  0
 20 21  1  0
 20 48  1  1
 21 22  1  0
 21 49  1  0
 21 50  1  0
 23 24  1  1
 23 25  1  0
 24 51  1  0
 24 52  1  0
 24 53  1  0
 25 26  1  0
 26 54  1  6
M  END
>  <i_m_ct_stereo_status>  (259) 
1

>  <s_m_source_file>  (259) 
/var/tmp/pbs.5076255.sched01/tmpwmgilt76/96rd2vfdyj.sdf

>  <i_m_source_file_index>  (259) 
16

>  <i_lp_mmshare_version>  (259) 
48012

>  <i_f3d_flags>  (259) 
0

>  <s_epik_input>  (259) 
W0NIM11DKD1PKU9bQ0BASF0oW0NAQF0xMltDQEBdMzQ1KVtDQEBIXShbT0hdKVtDQEBdKFtDSDNdKShbQ0gyXTMpW0NAQEhdKFtDQEBdNChbQ0gzXSlbQ0gyXTEpT1tDQEBdNShbQ0gzXSlbQ0BASF0oW0NIMl0yKVtDQEhdKFtPSF0pW0NAQEhdNltDSDJdTzY=

>  <s_epik_cmdline>  (259) 
J2VwaWtfcHl0aG9uJywgJy1waHQnLCAnMi4wJywgJy1waCcsICc3LjAnLCAnLXRuJywgJzgnLCAnLW1hJywgJzIwMCcsICctaW1hZScsICc8aW5maWxlLm1hZT4nLCAnLW9tYWUnLCAnPG91dGZpbGUubWFlPic=

>  <r_lp_tautomer_probability>  (259) 
1

>  <r_epik_Ionization_Penalty>  (259) 
1.24408e-07

>  <r_epik_Ionization_Penalty_Charging>  (259) 
0

>  <r_epik_Ionization_Penalty_Neutral>  (259) 
1.24408e-07

>  <r_epik_State_Penalty>  (259) 
-0

>  <r_epik_Charging_Adjusted_Penalty>  (259) 
0

>  <i_epik_Tot_Q>  (259) 
0

>  <i_epik_Tot_abs_Q>  (259) 
0

>  <s_epik_Chemistry_Notes>  (259) 
This compound has an ester and may undergo hydrolysis at high or low pH.

>  <s_lp_Force_Field>  (259) 
OPLS3e

>  <r_lp_Energy>  (259) 
312.848

>  <b_lp_Chiralities_Consistent>  (259) 
1

>  <s_lp_Variant>  (259) 
66:0-1

>  <s_i_glide_gridfile>  (259) 
pfpi4k_grid

>  <i_i_glide_lignum>  (259) 
16

>  <i_i_glide_rotatable_bonds>  (259) 
6

>  <r_i_docking_score>  (259) 
-3.10074

>  <r_i_glide_ligand_efficiency>  (259) 
-0.119259

>  <r_i_glide_ligand_efficiency_sa>  (259) 
-0.353305

>  <r_i_glide_ligand_efficiency_ln>  (259) 
-0.728199

>  <r_i_glide_gscore>  (259) 
-3.10074

>  <r_i_glide_lipo>  (259) 
-0.212556

>  <r_i_glide_hbond>  (259) 
-0.152

>  <r_i_glide_metal>  (259) 
-0

>  <r_i_glide_rewards>  (259) 
-0.924322

>  <r_i_glide_evdw>  (259) 
-17.5575

>  <r_i_glide_ecoul>  (259) 
-8.98153

>  <r_i_glide_erotb>  (259) 
0.434257

>  <r_i_glide_esite>  (259) 
-0.0210135

>  <r_i_glide_emodel>  (259) 
-30.7459

>  <r_i_glide_energy>  (259) 
-26.5391

>  <r_i_glide_einternal>  (259) 
3.55657

>  <r_i_glide_intrahb_reward>  (259) 
-0

>  <i_i_glide_confnum>  (259) 
1

>  <i_i_glide_posenum>  (259) 
39

>  <r_i_glide_eff_state_penalty>  (259) 
0

>  <ligand_id>  (259) 
66

>  <original_smiles>  (259) 
CC(=O)OC1C(O)C2(C)CC34C5(C)CC13CC(C(O)C1CO1)C4(C)OC25

>  <smiles>  (259) 
[H]OC([H])(C1([H])OC1([H])[H])C1([H])C([H])([H])C23C([H])([H])C4(C([H])([H])[H])C5([H])OC1(C([H])([H])[H])C42C([H])([H])C5(C([H])([H])[H])C([H])(O[H])C3([H])OC(=O)C([H])([H])[H]

$$$$
66:0:1
     RDKit          3D

 54 59  0  0  1  0  0  0  0  0999 V2000
    5.0709  -13.2168    2.8180 C   0  0  0  0  0  0  0  0  0  0  0  0
    4.9515  -12.6843    4.2478 C   0  0  0  0  0  0  0  0  0  0  0  0
    5.6235  -13.1737    5.1404 O   0  0  0  0  0  0  0  0  0  0  0  0
    4.0903  -11.6632    4.4554 O   0  0  0  0  0  0  0  0  0  0  0  0
    3.3435  -10.9869    3.4531 C   0  0  2  0  0  0  0  0  0  0  0  0
    4.2509   -9.6799    2.8658 C   0  0  1  0  0  0  0  0  0  0  0  0
    5.1420  -10.1531    1.8688 O   0  0  0  0  0  0  0  0  0  0  0  0
    3.3474   -8.3872    2.2406 C   0  0  1  0  0  0  0  0  0  0  0  0
    4.0998   -7.5475    1.1988 C   0  0  0  0  0  0  0  0  0  0  0  0
    2.4273   -9.2813    1.7831 C   0  0  0  0  0  0  0  0  0  0  0  0
    1.8798   -9.2987    3.3749 C   0  0  1  0  0  0  0  0  0  0  0  0
    0.6412   -8.8954    2.8370 C   0  0  2  0  0  0  0  0  0  0  0  0
   -0.6374   -8.1824    3.3105 C   0  0  0  0  0  0  0  0  0  0  0  0
    0.5482  -10.5080    3.0075 C   0  0  0  0  0  0  0  0  0  0  0  0
    1.8322  -10.6365    3.8945 C   0  0  1  0  0  0  0  0  0  0  0  0
    1.5714  -10.5741    5.4173 C   0  0  0  0  0  0  0  0  0  0  0  0
    1.3580   -9.0687    5.7378 C   0  0  1  0  0  0  0  0  0  0  0  0
    1.5497   -8.6393    7.2271 C   0  0  2  0  0  0  0  0  0  0  0  0
    0.6997   -9.4486    8.0247 O   0  0  0  0  0  0  0  0  0  0  0  0
    1.1628   -7.1701    7.5702 C   0  0  2  0  0  0  0  0  0  0  0  0
    0.3121   -6.3027    6.6894 C   0  0  0  0  0  0  0  0  0  0  0  0
    1.7509   -6.1382    6.7552 O   0  0  0  0  0  0  0  0  0  0  0  0
    2.2468   -8.4002    4.6529 C   0  0  1  0  0  0  0  0  0  0  0  0
    3.6701   -8.1842    5.2384 C   0  0  0  0  0  0  0  0  0  0  0  0
    1.8992   -7.2119    4.0314 O   0  0  0  0  0  0  0  0  0  0  0  0
    1.8353   -7.7645    2.7210 C   0  0  1  0  0  0  0  0  0  0  0  0
    4.1123  -13.5609    2.4083 H   0  0  0  0  0  0  0  0  0  0  0  0
    5.7488  -14.0894    2.7588 H   0  0  0  0  0  0  0  0  0  0  0  0
    5.4861  -12.4668    2.1389 H   0  0  0  0  0  0  0  0  0  0  0  0
    3.2028  -11.7022    2.6472 H   0  0  0  0  0  0  0  0  0  0  0  0
    4.9906   -9.3552    3.5886 H   0  0  0  0  0  0  0  0  0  0  0  0
    4.6751  -10.7898    1.3166 H   0  0  0  0  0  0  0  0  0  0  0  0
    3.4528   -6.8250    0.6942 H   0  0  0  0  0  0  0  0  0  0  0  0
    4.5534   -8.1566    0.4166 H   0  0  0  0  0  0  0  0  0  0  0  0
    4.9152   -6.9983    1.6819 H   0  0  0  0  0  0  0  0  0  0  0  0
    1.8027   -8.9803    0.9276 H   0  0  0  0  0  0  0  0  0  0  0  0
    2.7517  -10.2093    1.3175 H   0  0  0  0  0  0  0  0  0  0  0  0
   -1.2535   -7.9785    2.4271 H   0  0  0  0  0  0  0  0  0  0  0  0
   -0.4551   -7.2160    3.7821 H   0  0  0  0  0  0  0  0  0  0  0  0
   -1.2733   -8.7864    3.9638 H   0  0  0  0  0  0  0  0  0  0  0  0
   -0.3362  -10.8242    3.5460 H   0  0  0  0  0  0  0  0  0  0  0  0
    0.6100  -11.0796    2.0928 H   0  0  0  0  0  0  0  0  0  0  0  0
    0.6729  -11.1328    5.6730 H   0  0  0  0  0  0  0  0  0  0  0  0
    2.3807  -11.0156    6.0034 H   0  0  0  0  0  0  0  0  0  0  0  0
    0.3032   -8.9376    5.5175 H   0  0  0  0  0  0  0  0  0  0  0  0
    2.5858   -8.8301    7.5607 H   0  0  0  0  0  0  0  0  0  0  0  0
    0.9930  -10.3553    7.9404 H   0  0  0  0  0  0  0  0  0  0  0  0
    1.1806   -6.9764    8.6411 H   0  0  0  0  0  0  0  0  0  0  0  0
   -0.0747   -6.7087    5.7622 H   0  0  0  0  0  0  0  0  0  0  0  0
   -0.2088   -5.4027    7.0777 H   0  0  0  0  0  0  0  0  0  0  0  0
    4.1237   -9.1200    5.5750 H   0  0  0  0  0  0  0  0  0  0  0  0
    3.6500   -7.5307    6.0945 H   0  0  0  0  0  0  0  0  0  0  0  0
    4.3358   -7.6664    4.5635 H   0  0  0  0  0  0  0  0  0  0  0  0
    1.5142   -6.9586    2.0371 H   0  0  0  0  0  0  0  0  0  0  0  0
  1  2  1  0
  1 27  1  0
  1 28  1  0
  1 29  1  0
  2  3  2  0
  2  4  1  0
  4  5  1  0
  5 15  1  0
  5  6  1  0
  5 30  1  6
  6  7  1  0
  6  8  1  0
  6 31  1  1
  7 32  1  0
  8 26  1  0
  8  9  1  6
  8 10  1  0
  9 33  1  0
  9 34  1  0
  9 35  1  0
 11 10  1  6
 10 36  1  0
 10 37  1  0
 11 15  1  0
 11 23  1  0
 11 12  1  0
 12 26  1  0
 12 13  1  1
 12 14  1  0
 13 38  1  0
 13 39  1  0
 13 40  1  0
 15 14  1  6
 14 41  1  0
 14 42  1  0
 15 16  1  0
 16 17  1  0
 16 43  1  0
 16 44  1  0
 17 18  1  0
 17 23  1  0
 17 45  1  6
 18 19  1  0
 18 20  1  0
 18 46  1  1
 19 47  1  0
 20 22  1  0
 20 21  1  0
 20 48  1  1
 21 22  1  0
 21 49  1  0
 21 50  1  0
 23 24  1  1
 23 25  1  0
 24 51  1  0
 24 52  1  0
 24 53  1  0
 25 26  1  0
 26 54  1  6
M  END
>  <i_m_ct_stereo_status>  (260) 
1

>  <s_m_source_file>  (260) 
/var/tmp/pbs.5076255.sched01/tmpwmgilt76/96rd2vfdyj.sdf

>  <i_m_source_file_index>  (260) 
16

>  <i_lp_mmshare_version>  (260) 
48012

>  <i_f3d_flags>  (260) 
0

>  <s_epik_input>  (260) 
W0NIM11DKD1PKU9bQ0BASF0oW0NAQF0xMltDQEBdMzQ1KVtDQEBIXShbT0hdKVtDQEBdKFtDSDNdKShbQ0gyXTMpW0NAQEhdKFtDQEBdNChbQ0gzXSlbQ0gyXTEpT1tDQEBdNShbQ0gzXSlbQ0BASF0oW0NIMl0yKVtDQEhdKFtPSF0pW0NAQEhdNltDSDJdTzY=

>  <s_epik_cmdline>  (260) 
J2VwaWtfcHl0aG9uJywgJy1waHQnLCAnMi4wJywgJy1waCcsICc3LjAnLCAnLXRuJywgJzgnLCAnLW1hJywgJzIwMCcsICctaW1hZScsICc8aW5maWxlLm1hZT4nLCAnLW9tYWUnLCAnPG91dGZpbGUubWFlPic=

>  <r_lp_tautomer_probability>  (260) 
1

>  <r_epik_Ionization_Penalty>  (260) 
1.24408e-07

>  <r_epik_Ionization_Penalty_Charging>  (260) 
0

>  <r_epik_Ionization_Penalty_Neutral>  (260) 
1.24408e-07

>  <r_epik_State_Penalty>  (260) 
-0

>  <r_epik_Charging_Adjusted_Penalty>  (260) 
0

>  <i_epik_Tot_Q>  (260) 
0

>  <i_epik_Tot_abs_Q>  (260) 
0

>  <s_epik_Chemistry_Notes>  (260) 
This compound has an ester and may undergo hydrolysis at high or low pH.

>  <s_lp_Force_Field>  (260) 
OPLS3e

>  <r_lp_Energy>  (260) 
312.848

>  <b_lp_Chiralities_Consistent>  (260) 
1

>  <s_lp_Variant>  (260) 
66:0-1

>  <s_i_glide_gridfile>  (260) 
pfpi4k_grid

>  <i_i_glide_lignum>  (260) 
16

>  <i_i_glide_rotatable_bonds>  (260) 
6

>  <r_i_docking_score>  (260) 
-3.04647

>  <r_i_glide_ligand_efficiency>  (260) 
-0.117172

>  <r_i_glide_ligand_efficiency_sa>  (260) 
-0.347122

>  <r_i_glide_ligand_efficiency_ln>  (260) 
-0.715454

>  <r_i_glide_gscore>  (260) 
-3.04647

>  <r_i_glide_lipo>  (260) 
-0.191331

>  <r_i_glide_hbond>  (260) 
-0.152

>  <r_i_glide_metal>  (260) 
-0

>  <r_i_glide_rewards>  (260) 
-0.924322

>  <r_i_glide_evdw>  (260) 
-19.3232

>  <r_i_glide_ecoul>  (260) 
-8.20704

>  <r_i_glide_erotb>  (260) 
0.434257

>  <r_i_glide_esite>  (260) 
-0.0158587

>  <r_i_glide_emodel>  (260) 
-28.1206

>  <r_i_glide_energy>  (260) 
-27.5303

>  <r_i_glide_einternal>  (260) 
9.65164

>  <r_i_glide_intrahb_reward>  (260) 
-0

>  <i_i_glide_confnum>  (260) 
1

>  <i_i_glide_posenum>  (260) 
26

>  <r_i_glide_eff_state_penalty>  (260) 
0

>  <ligand_id>  (260) 
66

>  <original_smiles>  (260) 
CC(=O)OC1C(O)C2(C)CC34C5(C)CC13CC(C(O)C1CO1)C4(C)OC25

>  <smiles>  (260) 
[H]OC([H])(C1([H])OC1([H])[H])C1([H])C([H])([H])C23C([H])([H])C4(C([H])([H])[H])C5([H])OC1(C([H])([H])[H])C42C([H])([H])C5(C([H])([H])[H])C([H])(O[H])C3([H])OC(=O)C([H])([H])[H]

$$$$
66:0:2
     RDKit          3D

 54 59  0  0  1  0  0  0  0  0999 V2000
    4.7879  -12.8331    6.3272 C   0  0  0  0  0  0  0  0  0  0  0  0
    4.3541  -12.4142    4.9285 C   0  0  0  0  0  0  0  0  0  0  0  0
    4.6914  -13.0582    3.9381 O   0  0  0  0  0  0  0  0  0  0  0  0
    3.5982  -11.2964    4.9352 O   0  0  0  0  0  0  0  0  0  0  0  0
    3.0242  -10.8115    3.7272 C   0  0  2  0  0  0  0  0  0  0  0  0
    4.0031   -9.6195    3.0607 C   0  0  1  0  0  0  0  0  0  0  0  0
    4.9769  -10.2520    2.2264 O   0  0  0  0  0  0  0  0  0  0  0  0
    3.2186   -8.4060    2.1866 C   0  0  1  0  0  0  0  0  0  0  0  0
    4.0862   -7.6978    1.1282 C   0  0  0  0  0  0  0  0  0  0  0  0
    2.3391   -9.3348    1.7534 C   0  0  0  0  0  0  0  0  0  0  0  0
    1.6188   -9.1566    3.2399 C   0  0  1  0  0  0  0  0  0  0  0  0
    0.4262   -8.8016    2.5724 C   0  0  2  0  0  0  0  0  0  0  0  0
   -0.8610   -8.0068    2.8537 C   0  0  0  0  0  0  0  0  0  0  0  0
    0.3157  -10.3819    2.8627 C   0  0  0  0  0  0  0  0  0  0  0  0
    1.4681  -10.4122    3.9122 C   0  0  1  0  0  0  0  0  0  0  0  0
    1.0560  -10.1342    5.3811 C   0  0  0  0  0  0  0  0  0  0  0  0
    0.8327   -8.6076    5.4798 C   0  0  1  0  0  0  0  0  0  0  0  0
    0.8565   -7.9835    6.9119 C   0  0  2  0  0  0  0  0  0  0  0  0
   -0.0637   -8.6843    7.7304 O   0  0  0  0  0  0  0  0  0  0  0  0
    0.4379   -6.5069    6.9760 C   0  0  2  0  0  0  0  0  0  0  0  0
   -0.6334   -5.8712    6.1144 C   0  0  0  0  0  0  0  0  0  0  0  0
    0.7587   -5.6661    5.8549 O   0  0  0  0  0  0  0  0  0  0  0  0
    1.8471   -8.0895    4.4098 C   0  0  1  0  0  0  0  0  0  0  0  0
    3.1806   -7.7672    5.1258 C   0  0  0  0  0  0  0  0  0  0  0  0
    1.6144   -6.9899    3.6041 O   0  0  0  0  0  0  0  0  0  0  0  0
    1.6689   -7.7028    2.3944 C   0  0  1  0  0  0  0  0  0  0  0  0
    5.3695  -12.0455    6.8051 H   0  0  0  0  0  0  0  0  0  0  0  0
    5.3978  -13.7362    6.2727 H   0  0  0  0  0  0  0  0  0  0  0  0
    3.9088  -13.0485    6.9343 H   0  0  0  0  0  0  0  0  0  0  0  0
    3.0073  -11.6380    3.0186 H   0  0  0  0  0  0  0  0  0  0  0  0
    4.6524   -9.1971    3.8184 H   0  0  0  0  0  0  0  0  0  0  0  0
    4.5650  -10.8559    1.6129 H   0  0  0  0  0  0  0  0  0  0  0  0
    3.4953   -7.0521    0.4819 H   0  0  0  0  0  0  0  0  0  0  0  0
    4.6156   -8.4040    0.4893 H   0  0  0  0  0  0  0  0  0  0  0  0
    4.8318   -7.0727    1.6209 H   0  0  0  0  0  0  0  0  0  0  0  0
    1.8110   -9.1102    0.8164 H   0  0  0  0  0  0  0  0  0  0  0  0
    2.6811  -10.3216    1.4342 H   0  0  0  0  0  0  0  0  0  0  0  0
   -1.3486   -7.7608    1.9116 H   0  0  0  0  0  0  0  0  0  0  0  0
   -0.6974   -7.0653    3.3490 H   0  0  0  0  0  0  0  0  0  0  0  0
   -1.5883   -8.5781    3.4244 H   0  0  0  0  0  0  0  0  0  0  0  0
   -0.6314  -10.6366    3.3300 H   0  0  0  0  0  0  0  0  0  0  0  0
    0.4583  -11.0493    2.0182 H   0  0  0  0  0  0  0  0  0  0  0  0
    0.1356  -10.6593    5.6420 H   0  0  0  0  0  0  0  0  0  0  0  0
    1.7890  -10.4588    6.1170 H   0  0  0  0  0  0  0  0  0  0  0  0
   -0.1916   -8.5101    5.1471 H   0  0  0  0  0  0  0  0  0  0  0  0
    1.8434   -8.1007    7.3735 H   0  0  0  0  0  0  0  0  0  0  0  0
    0.1618   -9.5982    7.6967 H   0  0  0  0  0  0  0  0  0  0  0  0
    0.6349   -6.0359    7.9364 H   0  0  0  0  0  0  0  0  0  0  0  0
   -1.1623   -6.4879    5.4004 H   0  0  0  0  0  0  0  0  0  0  0  0
   -1.1398   -4.9588    6.4084 H   0  0  0  0  0  0  0  0  0  0  0  0
    3.5871   -8.6275    5.6597 H   0  0  0  0  0  0  0  0  0  0  0  0
    3.0384   -6.9823    5.8650 H   0  0  0  0  0  0  0  0  0  0  0  0
    3.9269   -7.3388    4.4676 H   0  0  0  0  0  0  0  0  0  0  0  0
    1.4487   -6.9892    1.5960 H   0  0  0  0  0  0  0  0  0  0  0  0
  1  2  1  0
  1 27  1  0
  1 28  1  0
  1 29  1  0
  2  3  2  0
  2  4  1  0
  4  5  1  0
  5 15  1  0
  5  6  1  0
  5 30  1  6
  6  7  1  0
  6  8  1  0
  6 31  1  1
  7 32  1  0
  8 26  1  0
  8  9  1  6
  8 10  1  0
  9 33  1  0
  9 34  1  0
  9 35  1  0
 11 10  1  6
 10 36  1  0
 10 37  1  0
 11 15  1  0
 11 23  1  0
 11 12  1  0
 12 26  1  0
 12 13  1  1
 12 14  1  0
 13 38  1  0
 13 39  1  0
 13 40  1  0
 15 14  1  6
 14 41  1  0
 14 42  1  0
 15 16  1  0
 16 17  1  0
 16 43  1  0
 16 44  1  0
 17 18  1  0
 17 23  1  0
 17 45  1  6
 18 19  1  0
 18 20  1  0
 18 46  1  1
 19 47  1  0
 20 22  1  0
 20 21  1  0
 20 48  1  1
 21 22  1  0
 21 49  1  0
 21 50  1  0
 23 24  1  1
 23 25  1  0
 24 51  1  0
 24 52  1  0
 24 53  1  0
 25 26  1  0
 26 54  1  6
M  END
>  <i_m_ct_stereo_status>  (261) 
1

>  <s_m_source_file>  (261) 
/var/tmp/pbs.5076255.sched01/tmpwmgilt76/96rd2vfdyj.sdf

>  <i_m_source_file_index>  (261) 
16

>  <i_lp_mmshare_version>  (261) 
48012

>  <i_f3d_flags>  (261) 
0

>  <s_epik_input>  (261) 
W0NIM11DKD1PKU9bQ0BASF0oW0NAQF0xMltDQEBdMzQ1KVtDQEBIXShbT0hdKVtDQEBdKFtDSDNdKShbQ0gyXTMpW0NAQEhdKFtDQEBdNChbQ0gzXSlbQ0gyXTEpT1tDQEBdNShbQ0gzXSlbQ0BASF0oW0NIMl0yKVtDQEhdKFtPSF0pW0NAQEhdNltDSDJdTzY=

>  <s_epik_cmdline>  (261) 
J2VwaWtfcHl0aG9uJywgJy1waHQnLCAnMi4wJywgJy1waCcsICc3LjAnLCAnLXRuJywgJzgnLCAnLW1hJywgJzIwMCcsICctaW1hZScsICc8aW5maWxlLm1hZT4nLCAnLW9tYWUnLCAnPG91dGZpbGUubWFlPic=

>  <r_lp_tautomer_probability>  (261) 
1

>  <r_epik_Ionization_Penalty>  (261) 
1.24408e-07

>  <r_epik_Ionization_Penalty_Charging>  (261) 
0

>  <r_epik_Ionization_Penalty_Neutral>  (261) 
1.24408e-07

>  <r_epik_State_Penalty>  (261) 
-0

>  <r_epik_Charging_Adjusted_Penalty>  (261) 
0

>  <i_epik_Tot_Q>  (261) 
0

>  <i_epik_Tot_abs_Q>  (261) 
0

>  <s_epik_Chemistry_Notes>  (261) 
This compound has an ester and may undergo hydrolysis at high or low pH.

>  <s_lp_Force_Field>  (261) 
OPLS3e

>  <r_lp_Energy>  (261) 
312.848

>  <b_lp_Chiralities_Consistent>  (261) 
1

>  <s_lp_Variant>  (261) 
66:0-1

>  <s_i_glide_gridfile>  (261) 
pfpi4k_grid

>  <i_i_glide_lignum>  (261) 
16

>  <i_i_glide_rotatable_bonds>  (261) 
6

>  <r_i_docking_score>  (261) 
-2.46229

>  <r_i_glide_ligand_efficiency>  (261) 
-0.0947034

>  <r_i_glide_ligand_efficiency_sa>  (261) 
-0.280558

>  <r_i_glide_ligand_efficiency_ln>  (261) 
-0.57826

>  <r_i_glide_gscore>  (261) 
-2.46229

>  <r_i_glide_lipo>  (261) 
-0.227812

>  <r_i_glide_hbond>  (261) 
0

>  <r_i_glide_metal>  (261) 
-0

>  <r_i_glide_rewards>  (261) 
-0.924322

>  <r_i_glide_evdw>  (261) 
-20.2955

>  <r_i_glide_ecoul>  (261) 
-4.64724

>  <r_i_glide_erotb>  (261) 
0.434257

>  <r_i_glide_esite>  (261) 
-0.0325521

>  <r_i_glide_emodel>  (261) 
-27.8799

>  <r_i_glide_energy>  (261) 
-24.9427

>  <r_i_glide_einternal>  (261) 
3.85418

>  <r_i_glide_intrahb_reward>  (261) 
-0

>  <i_i_glide_confnum>  (261) 
1

>  <i_i_glide_posenum>  (261) 
7

>  <r_i_glide_eff_state_penalty>  (261) 
0

>  <ligand_id>  (261) 
66

>  <original_smiles>  (261) 
CC(=O)OC1C(O)C2(C)CC34C5(C)CC13CC(C(O)C1CO1)C4(C)OC25

>  <smiles>  (261) 
[H]OC([H])(C1([H])OC1([H])[H])C1([H])C([H])([H])C23C([H])([H])C4(C([H])([H])[H])C5([H])OC1(C([H])([H])[H])C42C([H])([H])C5(C([H])([H])[H])C([H])(O[H])C3([H])OC(=O)C([H])([H])[H]

$$$$
67:0:0
     RDKit          3D

 82 86  0  0  1  0  0  0  0  0999 V2000
    3.8796   -0.9752   -2.2239 C   0  0  0  0  0  0  0  0  0  0  0  0
    4.5332   -2.2936   -1.7919 C   0  0  0  0  0  0  0  0  0  0  0  0
    4.5992   -3.2068   -3.0378 C   0  0  0  0  0  0  0  0  0  0  0  0
    5.9324   -1.9740   -1.2276 C   0  0  0  0  0  0  0  0  0  0  0  0
    6.6380   -3.2017   -0.6443 C   0  0  0  0  0  0  0  0  0  0  0  0
    5.7839   -3.9770    0.3838 C   0  0  1  0  0  0  0  0  0  0  0  0
    5.7542   -3.3072    1.7529 C   0  0  0  0  0  0  0  0  0  0  0  0
    5.0847   -4.2356    2.7697 C   0  0  0  0  0  0  0  0  0  0  0  0
    3.6118   -4.6773    2.4413 C   0  0  1  0  0  0  0  0  0  0  0  0
    2.6873   -3.4749    2.7734 C   0  0  0  0  0  0  0  0  0  0  0  0
    3.4411   -4.9238    0.9284 C   0  0  0  0  0  0  0  0  0  0  0  0
    2.4559   -5.7156    0.4905 C   0  0  0  0  0  0  0  0  0  0  0  0
    1.4430   -6.4263    1.3446 C   0  0  0  0  0  0  0  0  0  0  0  0
    1.7249   -6.5142    2.8808 C   0  0  2  0  0  0  0  0  0  0  0  0
    3.1660   -5.9755    3.2887 C   0  0  2  0  0  0  0  0  0  0  0  0
    3.2073   -5.5693    4.7978 C   0  0  0  0  0  0  0  0  0  0  0  0
    4.1337   -7.1732    3.0761 C   0  0  0  0  0  0  0  0  0  0  0  0
    3.6948   -8.5031    3.7361 C   0  0  0  0  0  0  0  0  0  0  0  0
    2.3130   -9.0859    3.3056 C   0  0  1  0  0  0  0  0  0  0  0  0
    2.5108   -9.4967    1.8169 C   0  0  0  0  0  0  0  0  0  0  0  0
    1.9924  -10.4200    4.1565 C   0  0  0  0  0  0  0  0  0  0  0  0
    0.8693  -11.2885    3.5287 C   0  0  0  0  0  0  0  0  0  0  0  0
    3.2006  -11.4025    4.2336 C   0  0  0  0  0  0  0  0  0  0  0  0
    1.5402  -10.1264    5.6210 C   0  0  1  0  0  0  0  0  0  0  0  0
    2.6154   -9.8417    6.5013 O   0  0  0  0  0  0  0  0  0  0  0  0
    0.4626   -9.0420    5.7304 C   0  0  1  0  0  0  0  0  0  0  0  0
    0.2053   -8.7665    7.0954 O   0  0  0  0  0  0  0  0  0  0  0  0
    0.8890   -7.7538    5.0094 C   0  0  0  0  0  0  0  0  0  0  0  0
    1.2255   -7.9151    3.4896 C   0  0  1  0  0  0  0  0  0  0  0  0
   -0.1676   -8.2072    2.8294 C   0  0  0  0  0  0  0  0  0  0  0  0
    4.3404   -4.2222   -0.0981 C   0  0  1  0  0  0  0  0  0  0  0  0
    3.6968   -2.9301   -0.6572 C   0  0  0  0  0  0  0  0  0  0  0  0
    4.4342   -0.4816   -3.0268 H   0  0  0  0  0  0  0  0  0  0  0  0
    3.8452   -0.2882   -1.3780 H   0  0  0  0  0  0  0  0  0  0  0  0
    2.8528   -1.1262   -2.5652 H   0  0  0  0  0  0  0  0  0  0  0  0
    5.1472   -4.1327   -2.8521 H   0  0  0  0  0  0  0  0  0  0  0  0
    5.0861   -2.7029   -3.8757 H   0  0  0  0  0  0  0  0  0  0  0  0
    3.5919   -3.4870   -3.3615 H   0  0  0  0  0  0  0  0  0  0  0  0
    6.5554   -1.5504   -2.0108 H   0  0  0  0  0  0  0  0  0  0  0  0
    5.8532   -1.2150   -0.4503 H   0  0  0  0  0  0  0  0  0  0  0  0
    6.9064   -3.8546   -1.4699 H   0  0  0  0  0  0  0  0  0  0  0  0
    7.5882   -2.9079   -0.1970 H   0  0  0  0  0  0  0  0  0  0  0  0
    6.2654   -4.9481    0.5151 H   0  0  0  0  0  0  0  0  0  0  0  0
    6.7747   -3.1104    2.0780 H   0  0  0  0  0  0  0  0  0  0  0  0
    5.2532   -2.3382    1.7212 H   0  0  0  0  0  0  0  0  0  0  0  0
    5.7442   -5.0937    2.8604 H   0  0  0  0  0  0  0  0  0  0  0  0
    5.1369   -3.7208    3.7292 H   0  0  0  0  0  0  0  0  0  0  0  0
    2.7141   -3.1928    3.8246 H   0  0  0  0  0  0  0  0  0  0  0  0
    1.6495   -3.6806    2.5159 H   0  0  0  0  0  0  0  0  0  0  0  0
    2.9718   -2.5851    2.2181 H   0  0  0  0  0  0  0  0  0  0  0  0
    2.3073   -5.8258   -0.5722 H   0  0  0  0  0  0  0  0  0  0  0  0
    0.4941   -5.9217    1.1921 H   0  0  0  0  0  0  0  0  0  0  0  0
    1.3187   -7.3947    0.8773 H   0  0  0  0  0  0  0  0  0  0  0  0
    1.0349   -5.7746    3.2925 H   0  0  0  0  0  0  0  0  0  0  0  0
    3.5328   -6.3725    5.4513 H   0  0  0  0  0  0  0  0  0  0  0  0
    2.2376   -5.2138    5.1448 H   0  0  0  0  0  0  0  0  0  0  0  0
    3.9098   -4.7747    5.0246 H   0  0  0  0  0  0  0  0  0  0  0  0
    4.3109   -7.3255    2.0112 H   0  0  0  0  0  0  0  0  0  0  0  0
    5.1117   -6.9530    3.4967 H   0  0  0  0  0  0  0  0  0  0  0  0
    4.4830   -9.2183    3.5058 H   0  0  0  0  0  0  0  0  0  0  0  0
    3.7331   -8.3897    4.8158 H   0  0  0  0  0  0  0  0  0  0  0  0
    1.5981   -9.8521    1.3460 H   0  0  0  0  0  0  0  0  0  0  0  0
    3.2394  -10.2947    1.7094 H   0  0  0  0  0  0  0  0  0  0  0  0
    2.9004   -8.7024    1.1920 H   0  0  0  0  0  0  0  0  0  0  0  0
    0.6859  -12.1837    4.1275 H   0  0  0  0  0  0  0  0  0  0  0  0
    1.1292  -11.6485    2.5376 H   0  0  0  0  0  0  0  0  0  0  0  0
   -0.0855  -10.7825    3.4600 H   0  0  0  0  0  0  0  0  0  0  0  0
    2.9363  -12.2996    4.7965 H   0  0  0  0  0  0  0  0  0  0  0  0
    4.0693  -10.9794    4.7385 H   0  0  0  0  0  0  0  0  0  0  0  0
    3.5249  -11.7449    3.2514 H   0  0  0  0  0  0  0  0  0  0  0  0
    1.1064  -11.0382    6.0276 H   0  0  0  0  0  0  0  0  0  0  0  0
    2.6483  -10.5496    7.1291 H   0  0  0  0  0  0  0  0  0  0  0  0
   -0.4704   -9.4444    5.3430 H   0  0  0  0  0  0  0  0  0  0  0  0
    0.1604   -9.5972    7.5420 H   0  0  0  0  0  0  0  0  0  0  0  0
    0.1244   -6.9893    5.1490 H   0  0  0  0  0  0  0  0  0  0  0  0
    1.7502   -7.4210    5.5685 H   0  0  0  0  0  0  0  0  0  0  0  0
   -0.8278   -8.8454    3.4042 H   0  0  0  0  0  0  0  0  0  0  0  0
   -0.1087   -8.6673    1.8463 H   0  0  0  0  0  0  0  0  0  0  0  0
   -0.7417   -7.2891    2.7137 H   0  0  0  0  0  0  0  0  0  0  0  0
    4.4117   -4.9270   -0.9256 H   0  0  0  0  0  0  0  0  0  0  0  0
    3.5987   -2.1972    0.1433 H   0  0  0  0  0  0  0  0  0  0  0  0
    2.6793   -3.1244   -1.0038 H   0  0  0  0  0  0  0  0  0  0  0  0
  1  2  1  0
  1 33  1  0
  1 34  1  0
  1 35  1  0
  2 32  1  0
  2  3  1  0
  2  4  1  0
  3 36  1  0
  3 37  1  0
  3 38  1  0
  4  5  1  0
  4 39  1  0
  4 40  1  0
  5  6  1  0
  5 41  1  0
  5 42  1  0
  6 31  1  0
  6  7  1  0
  6 43  1  1
  7  8  1  0
  7 44  1  0
  7 45  1  0
  8  9  1  0
  8 46  1  0
  8 47  1  0
  9 15  1  0
  9 10  1  1
  9 11  1  0
 10 48  1  0
 10 49  1  0
 10 50  1  0
 11 12  2  0
 11 31  1  0
 12 13  1  0
 12 51  1  0
 13 14  1  0
 13 52  1  0
 13 53  1  0
 14 29  1  0
 14 15  1  0
 14 54  1  1
 15 16  1  1
 15 17  1  0
 16 55  1  0
 16 56  1  0
 16 57  1  0
 17 18  1  0
 17 58  1  0
 17 59  1  0
 18 19  1  0
 18 60  1  0
 18 61  1  0
 19 29  1  0
 19 20  1  6
 19 21  1  0
 20 62  1  0
 20 63  1  0
 20 64  1  0
 21 22  1  0
 21 23  1  0
 21 24  1  0
 22 65  1  0
 22 66  1  0
 22 67  1  0
 23 68  1  0
 23 69  1  0
 23 70  1  0
 24 25  1  0
 24 26  1  0
 24 71  1  1
 25 72  1  0
 26 27  1  0
 26 28  1  0
 26 73  1  6
 27 74  1  0
 28 29  1  0
 28 75  1  0
 28 76  1  0
 29 30  1  6
 30 77  1  0
 30 78  1  0
 30 79  1  0
 31 32  1  0
 31 80  1  6
 32 81  1  0
 32 82  1  0
M  END
>  <i_m_ct_stereo_status>  (262) 
1

>  <s_m_source_file>  (262) 
/var/tmp/pbs.5076255.sched01/tmpwmgilt76/96rd2vfdyj.sdf

>  <i_m_source_file_index>  (262) 
17

>  <i_lp_mmshare_version>  (262) 
48012

>  <i_f3d_flags>  (262) 
0

>  <s_epik_input>  (262) 
W0NIM11DKFtDSDNdKShbQ0gyXTEpW0NIMl1bQ0gyXVtDQEBIXShbQ0gyXVtDSDJdMilbQ0BIXTFDKFtDQF0yM1tDSDNdKT1bQ0hdW0NIMl1bQ0BASF00W0NAQF0zKFtDSDNdKVtDSDJdW0NIMl1bQ0BdNShbQ0gzXSlbQ0BAXTQoW0NIM10pW0NIMl1bQ0BIXShbT0hdKVtDQEhdKFtPSF0pQzUoW0NIM10pW0NIM10=

>  <s_epik_cmdline>  (262) 
J2VwaWtfcHl0aG9uJywgJy1waHQnLCAnMi4wJywgJy1waCcsICc3LjAnLCAnLXRuJywgJzgnLCAnLW1hJywgJzIwMCcsICctaW1hZScsICc8aW5maWxlLm1hZT4nLCAnLW9tYWUnLCAnPG91dGZpbGUubWFlPic=

>  <r_lp_tautomer_probability>  (262) 
1

>  <r_epik_Ionization_Penalty>  (262) 
1.46928e-06

>  <r_epik_Ionization_Penalty_Charging>  (262) 
0

>  <r_epik_Ionization_Penalty_Neutral>  (262) 
1.46928e-06

>  <r_epik_State_Penalty>  (262) 
-0

>  <r_epik_Charging_Adjusted_Penalty>  (262) 
0

>  <i_epik_Tot_Q>  (262) 
0

>  <i_epik_Tot_abs_Q>  (262) 
0

>  <s_lp_Force_Field>  (262) 
OPLS3e

>  <r_lp_Energy>  (262) 
109.35

>  <b_lp_Chiralities_Consistent>  (262) 
1

>  <s_lp_Variant>  (262) 
67:0-1

>  <s_i_glide_gridfile>  (262) 
pfpi4k_grid

>  <i_i_glide_lignum>  (262) 
17

>  <i_i_glide_rotatable_bonds>  (262) 
2

>  <r_i_docking_score>  (262) 
-3.28873

>  <r_i_glide_ligand_efficiency>  (262) 
-0.102773

>  <r_i_glide_ligand_efficiency_sa>  (262) 
-0.326283

>  <r_i_glide_ligand_efficiency_ln>  (262) 
-0.736435

>  <r_i_glide_gscore>  (262) 
-3.28873

>  <r_i_glide_lipo>  (262) 
-0.543339

>  <r_i_glide_hbond>  (262) 
0

>  <r_i_glide_metal>  (262) 
-0

>  <r_i_glide_rewards>  (262) 
-0.390567

>  <r_i_glide_evdw>  (262) 
-35.4882

>  <r_i_glide_ecoul>  (262) 
-3.86941

>  <r_i_glide_erotb>  (262) 
0

>  <r_i_glide_esite>  (262) 
0

>  <r_i_glide_emodel>  (262) 
-46.4331

>  <r_i_glide_energy>  (262) 
-39.3576

>  <r_i_glide_einternal>  (262) 
2.06914

>  <r_i_glide_intrahb_reward>  (262) 
-0

>  <i_i_glide_confnum>  (262) 
2

>  <i_i_glide_posenum>  (262) 
8

>  <r_i_glide_eff_state_penalty>  (262) 
0

>  <ligand_id>  (262) 
67

>  <original_smiles>  (262) 
CC1(C)CCC2CCC3(C)C(=CCC4C3(C)CCC3(C)C(C)(C)C(O)C(O)CC43C)C2C1

>  <smiles>  (262) 
[H]OC1([H])C([H])([H])C2(C([H])([H])[H])C3([H])C([H])([H])C([H])=C4C5([H])C([H])([H])C(C([H])([H])[H])(C([H])([H])[H])C([H])([H])C([H])([H])C5([H])C([H])([H])C([H])([H])C4(C([H])([H])[H])C3(C([H])([H])[H])C([H])([H])C([H])([H])C2(C([H])([H])[H])C(C([H])([H])[H])(C([H])([H])[H])C1([H])O[H]

$$$$
67:0:1
     RDKit          3D

 82 86  0  0  1  0  0  0  0  0999 V2000
    3.7184   -1.0068   -2.4752 C   0  0  0  0  0  0  0  0  0  0  0  0
    4.3787   -2.3103   -2.0154 C   0  0  0  0  0  0  0  0  0  0  0  0
    4.4325   -3.2436   -3.2410 C   0  0  0  0  0  0  0  0  0  0  0  0
    5.7860   -1.9690   -1.4887 C   0  0  0  0  0  0  0  0  0  0  0  0
    6.5109   -3.1747   -0.8857 C   0  0  0  0  0  0  0  0  0  0  0  0
    5.6820   -3.9271    0.1754 C   0  0  1  0  0  0  0  0  0  0  0  0
    5.6713   -3.2305    1.5334 C   0  0  0  0  0  0  0  0  0  0  0  0
    5.0258   -4.1456    2.5784 C   0  0  0  0  0  0  0  0  0  0  0  0
    3.5521   -4.6052    2.2845 C   0  0  1  0  0  0  0  0  0  0  0  0
    2.6222   -3.4073    2.6089 C   0  0  0  0  0  0  0  0  0  0  0  0
    3.3540   -4.8808    0.7837 C   0  0  0  0  0  0  0  0  0  0  0  0
    2.3666   -5.6887    0.3863 C   0  0  0  0  0  0  0  0  0  0  0  0
    1.3813   -6.4002    1.2642 C   0  0  0  0  0  0  0  0  0  0  0  0
    1.6894   -6.4553    2.7922 C   0  0  2  0  0  0  0  0  0  0  0  0
    3.1325   -5.8922    3.1616 C   0  0  2  0  0  0  0  0  0  0  0  0
    3.1937   -5.4556    4.6594 C   0  0  0  0  0  0  0  0  0  0  0  0
    4.1079   -7.0853    2.9556 C   0  0  0  0  0  0  0  0  0  0  0  0
    3.6930   -8.4083    3.6461 C   0  0  0  0  0  0  0  0  0  0  0  0
    2.3102   -9.0142    3.2555 C   0  0  1  0  0  0  0  0  0  0  0  0
    2.4899   -9.4572    1.7734 C   0  0  0  0  0  0  0  0  0  0  0  0
    2.0134  -10.3297    4.1429 C   0  0  0  0  0  0  0  0  0  0  0  0
    0.8957  -11.2240    3.5449 C   0  0  0  0  0  0  0  0  0  0  0  0
    3.2322  -11.2982    4.2185 C   0  0  0  0  0  0  0  0  0  0  0  0
    1.5669  -10.0073    5.6092 C   0  0  1  0  0  0  0  0  0  0  0  0
    2.6381   -9.6655    6.4756 O   0  0  0  0  0  0  0  0  0  0  0  0
    0.4771   -8.9360    5.7043 C   0  0  1  0  0  0  0  0  0  0  0  0
    0.2346   -8.6348    7.0653 O   0  0  0  0  0  0  0  0  0  0  0  0
    0.8979   -7.6610    4.9535 C   0  0  0  0  0  0  0  0  0  0  0  0
    1.2154   -7.8495    3.4323 C   0  0  1  0  0  0  0  0  0  0  0  0
   -0.1835   -8.1649    2.7972 C   0  0  0  0  0  0  0  0  0  0  0  0
    4.2321   -4.1975   -0.2749 C   0  0  1  0  0  0  0  0  0  0  0  0
    3.5645   -2.9286   -0.8556 C   0  0  0  0  0  0  0  0  0  0  0  0
    4.2473   -0.5330   -3.3075 H   0  0  0  0  0  0  0  0  0  0  0  0
    3.7363   -0.3005   -1.6482 H   0  0  0  0  0  0  0  0  0  0  0  0
    2.6808   -1.1684   -2.7821 H   0  0  0  0  0  0  0  0  0  0  0  0
    4.9913   -4.1620   -3.0471 H   0  0  0  0  0  0  0  0  0  0  0  0
    4.9086   -2.7465   -4.0884 H   0  0  0  0  0  0  0  0  0  0  0  0
    3.4221   -3.5323   -3.5466 H   0  0  0  0  0  0  0  0  0  0  0  0
    6.3809   -1.5542   -2.3002 H   0  0  0  0  0  0  0  0  0  0  0  0
    5.7150   -1.1896   -0.7276 H   0  0  0  0  0  0  0  0  0  0  0  0
    6.7631   -3.8572   -1.6922 H   0  0  0  0  0  0  0  0  0  0  0  0
    7.4648   -2.8634   -0.4665 H   0  0  0  0  0  0  0  0  0  0  0  0
    6.1741   -4.8897    0.3196 H   0  0  0  0  0  0  0  0  0  0  0  0
    6.6966   -3.0167    1.8349 H   0  0  0  0  0  0  0  0  0  0  0  0
    5.1580   -2.2677    1.4898 H   0  0  0  0  0  0  0  0  0  0  0  0
    5.6941   -4.9965    2.6716 H   0  0  0  0  0  0  0  0  0  0  0  0
    5.0889   -3.6096    3.5243 H   0  0  0  0  0  0  0  0  0  0  0  0
    2.6661   -3.1015    3.6510 H   0  0  0  0  0  0  0  0  0  0  0  0
    1.5830   -3.6316    2.3807 H   0  0  0  0  0  0  0  0  0  0  0  0
    2.8834   -2.5288    2.0265 H   0  0  0  0  0  0  0  0  0  0  0  0
    2.1975   -5.8148   -0.6709 H   0  0  0  0  0  0  0  0  0  0  0  0
    0.4227   -5.9158    1.1177 H   0  0  0  0  0  0  0  0  0  0  0  0
    1.2695   -7.3768    0.8133 H   0  0  0  0  0  0  0  0  0  0  0  0
    0.9982   -5.7132    3.1992 H   0  0  0  0  0  0  0  0  0  0  0  0
    3.5373   -6.2435    5.3214 H   0  0  0  0  0  0  0  0  0  0  0  0
    2.2258   -5.1006    5.0116 H   0  0  0  0  0  0  0  0  0  0  0  0
    3.8926   -4.6501    4.8578 H   0  0  0  0  0  0  0  0  0  0  0  0
    4.2712   -7.2532    1.8906 H   0  0  0  0  0  0  0  0  0  0  0  0
    5.0883   -6.8467    3.3596 H   0  0  0  0  0  0  0  0  0  0  0  0
    4.4838   -9.1191    3.4113 H   0  0  0  0  0  0  0  0  0  0  0  0
    3.7496   -8.2755    4.7223 H   0  0  0  0  0  0  0  0  0  0  0  0
    1.5752   -9.8288    1.3234 H   0  0  0  0  0  0  0  0  0  0  0  0
    3.2223  -10.2496    1.6727 H   0  0  0  0  0  0  0  0  0  0  0  0
    2.8635   -8.6723    1.1252 H   0  0  0  0  0  0  0  0  0  0  0  0
    0.7322  -12.1081    4.1632 H   0  0  0  0  0  0  0  0  0  0  0  0
    1.1470  -11.6008    2.5583 H   0  0  0  0  0  0  0  0  0  0  0  0
   -0.0654  -10.7315    3.4785 H   0  0  0  0  0  0  0  0  0  0  0  0
    2.9855  -12.1887    4.7966 H   0  0  0  0  0  0  0  0  0  0  0  0
    4.1056  -10.8575    4.6982 H   0  0  0  0  0  0  0  0  0  0  0  0
    3.5427  -11.6575    3.2368 H   0  0  0  0  0  0  0  0  0  0  0  0
    1.1538  -10.9138    6.0474 H   0  0  0  0  0  0  0  0  0  0  0  0
    2.8675  -10.4568    6.9397 H   0  0  0  0  0  0  0  0  0  0  0  0
   -0.4508   -9.3546    5.3231 H   0  0  0  0  0  0  0  0  0  0  0  0
    1.0911   -8.5582    7.4691 H   0  0  0  0  0  0  0  0  0  0  0  0
    0.1298   -6.9004    5.0850 H   0  0  0  0  0  0  0  0  0  0  0  0
    1.7655   -7.3058    5.4897 H   0  0  0  0  0  0  0  0  0  0  0  0
   -0.8287   -8.8000    3.3899 H   0  0  0  0  0  0  0  0  0  0  0  0
   -0.1352   -8.6425    1.8223 H   0  0  0  0  0  0  0  0  0  0  0  0
   -0.7695   -7.2552    2.6761 H   0  0  0  0  0  0  0  0  0  0  0  0
    4.2978   -4.9204   -1.0867 H   0  0  0  0  0  0  0  0  0  0  0  0
    3.4670   -2.1783   -0.0725 H   0  0  0  0  0  0  0  0  0  0  0  0
    2.5468   -3.1416   -1.1870 H   0  0  0  0  0  0  0  0  0  0  0  0
  1  2  1  0
  1 33  1  0
  1 34  1  0
  1 35  1  0
  2 32  1  0
  2  3  1  0
  2  4  1  0
  3 36  1  0
  3 37  1  0
  3 38  1  0
  4  5  1  0
  4 39  1  0
  4 40  1  0
  5  6  1  0
  5 41  1  0
  5 42  1  0
  6 31  1  0
  6  7  1  0
  6 43  1  1
  7  8  1  0
  7 44  1  0
  7 45  1  0
  8  9  1  0
  8 46  1  0
  8 47  1  0
  9 15  1  0
  9 10  1  1
  9 11  1  0
 10 48  1  0
 10 49  1  0
 10 50  1  0
 11 12  2  0
 11 31  1  0
 12 13  1  0
 12 51  1  0
 13 14  1  0
 13 52  1  0
 13 53  1  0
 14 29  1  0
 14 15  1  0
 14 54  1  1
 15 16  1  1
 15 17  1  0
 16 55  1  0
 16 56  1  0
 16 57  1  0
 17 18  1  0
 17 58  1  0
 17 59  1  0
 18 19  1  0
 18 60  1  0
 18 61  1  0
 19 29  1  0
 19 20  1  6
 19 21  1  0
 20 62  1  0
 20 63  1  0
 20 64  1  0
 21 22  1  0
 21 23  1  0
 21 24  1  0
 22 65  1  0
 22 66  1  0
 22 67  1  0
 23 68  1  0
 23 69  1  0
 23 70  1  0
 24 25  1  0
 24 26  1  0
 24 71  1  1
 25 72  1  0
 26 27  1  0
 26 28  1  0
 26 73  1  6
 27 74  1  0
 28 29  1  0
 28 75  1  0
 28 76  1  0
 29 30  1  6
 30 77  1  0
 30 78  1  0
 30 79  1  0
 31 32  1  0
 31 80  1  6
 32 81  1  0
 32 82  1  0
M  END
>  <i_m_ct_stereo_status>  (263) 
1

>  <s_m_source_file>  (263) 
/var/tmp/pbs.5076255.sched01/tmpwmgilt76/96rd2vfdyj.sdf

>  <i_m_source_file_index>  (263) 
17

>  <i_lp_mmshare_version>  (263) 
48012

>  <i_f3d_flags>  (263) 
0

>  <s_epik_input>  (263) 
W0NIM11DKFtDSDNdKShbQ0gyXTEpW0NIMl1bQ0gyXVtDQEBIXShbQ0gyXVtDSDJdMilbQ0BIXTFDKFtDQF0yM1tDSDNdKT1bQ0hdW0NIMl1bQ0BASF00W0NAQF0zKFtDSDNdKVtDSDJdW0NIMl1bQ0BdNShbQ0gzXSlbQ0BAXTQoW0NIM10pW0NIMl1bQ0BIXShbT0hdKVtDQEhdKFtPSF0pQzUoW0NIM10pW0NIM10=

>  <s_epik_cmdline>  (263) 
J2VwaWtfcHl0aG9uJywgJy1waHQnLCAnMi4wJywgJy1waCcsICc3LjAnLCAnLXRuJywgJzgnLCAnLW1hJywgJzIwMCcsICctaW1hZScsICc8aW5maWxlLm1hZT4nLCAnLW9tYWUnLCAnPG91dGZpbGUubWFlPic=

>  <r_lp_tautomer_probability>  (263) 
1

>  <r_epik_Ionization_Penalty>  (263) 
1.46928e-06

>  <r_epik_Ionization_Penalty_Charging>  (263) 
0

>  <r_epik_Ionization_Penalty_Neutral>  (263) 
1.46928e-06

>  <r_epik_State_Penalty>  (263) 
-0

>  <r_epik_Charging_Adjusted_Penalty>  (263) 
0

>  <i_epik_Tot_Q>  (263) 
0

>  <i_epik_Tot_abs_Q>  (263) 
0

>  <s_lp_Force_Field>  (263) 
OPLS3e

>  <r_lp_Energy>  (263) 
109.35

>  <b_lp_Chiralities_Consistent>  (263) 
1

>  <s_lp_Variant>  (263) 
67:0-1

>  <s_i_glide_gridfile>  (263) 
pfpi4k_grid

>  <i_i_glide_lignum>  (263) 
17

>  <i_i_glide_rotatable_bonds>  (263) 
2

>  <r_i_docking_score>  (263) 
-3.16957

>  <r_i_glide_ligand_efficiency>  (263) 
-0.0990489

>  <r_i_glide_ligand_efficiency_sa>  (263) 
-0.314461

>  <r_i_glide_ligand_efficiency_ln>  (263) 
-0.709752

>  <r_i_glide_gscore>  (263) 
-3.16957

>  <r_i_glide_lipo>  (263) 
-0.553943

>  <r_i_glide_hbond>  (263) 
0

>  <r_i_glide_metal>  (263) 
-0

>  <r_i_glide_rewards>  (263) 
-0.390567

>  <r_i_glide_evdw>  (263) 
-35.6845

>  <r_i_glide_ecoul>  (263) 
-2.93887

>  <r_i_glide_erotb>  (263) 
0

>  <r_i_glide_esite>  (263) 
0

>  <r_i_glide_emodel>  (263) 
-45.3695

>  <r_i_glide_energy>  (263) 
-38.6233

>  <r_i_glide_einternal>  (263) 
1.42193

>  <r_i_glide_intrahb_reward>  (263) 
-0

>  <i_i_glide_confnum>  (263) 
2

>  <i_i_glide_posenum>  (263) 
26

>  <r_i_glide_eff_state_penalty>  (263) 
0

>  <ligand_id>  (263) 
67

>  <original_smiles>  (263) 
CC1(C)CCC2CCC3(C)C(=CCC4C3(C)CCC3(C)C(C)(C)C(O)C(O)CC43C)C2C1

>  <smiles>  (263) 
[H]OC1([H])C([H])([H])C2(C([H])([H])[H])C3([H])C([H])([H])C([H])=C4C5([H])C([H])([H])C(C([H])([H])[H])(C([H])([H])[H])C([H])([H])C([H])([H])C5([H])C([H])([H])C([H])([H])C4(C([H])([H])[H])C3(C([H])([H])[H])C([H])([H])C([H])([H])C2(C([H])([H])[H])C(C([H])([H])[H])(C([H])([H])[H])C1([H])O[H]

$$$$
67:0:2
     RDKit          3D

 82 86  0  0  1  0  0  0  0  0999 V2000
    3.6640   -1.1178   -2.5639 C   0  0  0  0  0  0  0  0  0  0  0  0
    4.3613   -2.3760   -2.0302 C   0  0  0  0  0  0  0  0  0  0  0  0
    4.4526   -3.3697   -3.2070 C   0  0  0  0  0  0  0  0  0  0  0  0
    5.7523   -1.9748   -1.4994 C   0  0  0  0  0  0  0  0  0  0  0  0
    6.5039   -3.1376   -0.8401 C   0  0  0  0  0  0  0  0  0  0  0  0
    5.6822   -3.8543    0.2504 C   0  0  1  0  0  0  0  0  0  0  0  0
    5.6433   -3.0932    1.5707 C   0  0  0  0  0  0  0  0  0  0  0  0
    5.0109   -3.9690    2.6546 C   0  0  0  0  0  0  0  0  0  0  0  0
    3.5527   -4.4809    2.3704 C   0  0  1  0  0  0  0  0  0  0  0  0
    2.5923   -3.2906    2.6305 C   0  0  0  0  0  0  0  0  0  0  0  0
    3.3787   -4.8351    0.8834 C   0  0  0  0  0  0  0  0  0  0  0  0
    2.4158   -5.6907    0.5106 C   0  0  0  0  0  0  0  0  0  0  0  0
    1.4431   -6.3820    1.4204 C   0  0  0  0  0  0  0  0  0  0  0  0
    1.7321   -6.3476    2.9557 C   0  0  2  0  0  0  0  0  0  0  0  0
    3.1565   -5.7299    3.3113 C   0  0  2  0  0  0  0  0  0  0  0  0
    3.1928   -5.2133    4.7832 C   0  0  0  0  0  0  0  0  0  0  0  0
    4.1621   -6.9066    3.1722 C   0  0  0  0  0  0  0  0  0  0  0  0
    3.7760   -8.2025    3.9218 C   0  0  0  0  0  0  0  0  0  0  0  0
    2.4086   -8.8617    3.5593 C   0  0  1  0  0  0  0  0  0  0  0  0
    2.6040   -9.3860    2.1030 C   0  0  0  0  0  0  0  0  0  0  0  0
    2.1334  -10.1335    4.5220 C   0  0  0  0  0  0  0  0  0  0  0  0
    1.0478  -11.0916    3.9541 C   0  0  0  0  0  0  0  0  0  0  0  0
    3.3746  -11.0669    4.6530 C   0  0  0  0  0  0  0  0  0  0  0  0
    1.6757   -9.7452    5.9735 C   0  0  1  0  0  0  0  0  0  0  0  0
    2.7355   -9.2674    6.7991 O   0  0  0  0  0  0  0  0  0  0  0  0
    0.5538   -8.7020    5.9864 C   0  0  1  0  0  0  0  0  0  0  0  0
    0.2702   -8.3168    7.3180 O   0  0  0  0  0  0  0  0  0  0  0  0
    0.9454   -7.4551    5.1701 C   0  0  0  0  0  0  0  0  0  0  0  0
    1.2860   -7.7148    3.6653 C   0  0  1  0  0  0  0  0  0  0  0  0
   -0.0970   -8.1002    3.0382 C   0  0  0  0  0  0  0  0  0  0  0  0
    4.2471   -4.1831   -0.2006 C   0  0  1  0  0  0  0  0  0  0  0  0
    3.5513   -2.9642   -0.8519 C   0  0  0  0  0  0  0  0  0  0  0  0
    4.1952   -0.6657   -3.4061 H   0  0  0  0  0  0  0  0  0  0  0  0
    3.6246   -0.3741   -1.7739 H   0  0  0  0  0  0  0  0  0  0  0  0
    2.6403   -1.3327   -2.8828 H   0  0  0  0  0  0  0  0  0  0  0  0
    5.0262   -4.2618   -2.9554 H   0  0  0  0  0  0  0  0  0  0  0  0
    4.9277   -2.9108   -4.0748 H   0  0  0  0  0  0  0  0  0  0  0  0
    3.4526   -3.7003   -3.5036 H   0  0  0  0  0  0  0  0  0  0  0  0
    6.3534   -1.5847   -2.3197 H   0  0  0  0  0  0  0  0  0  0  0  0
    5.6481   -1.1694   -0.7692 H   0  0  0  0  0  0  0  0  0  0  0  0
    6.7785   -3.8497   -1.6107 H   0  0  0  0  0  0  0  0  0  0  0  0
    7.4464   -2.7822   -0.4213 H   0  0  0  0  0  0  0  0  0  0  0  0
    6.1994   -4.7923    0.4490 H   0  0  0  0  0  0  0  0  0  0  0  0
    6.6595   -2.8394    1.8737 H   0  0  0  0  0  0  0  0  0  0  0  0
    5.1003   -2.1518    1.4745 H   0  0  0  0  0  0  0  0  0  0  0  0
    5.6975   -4.7978    2.7975 H   0  0  0  0  0  0  0  0  0  0  0  0
    5.0482   -3.3838    3.5711 H   0  0  0  0  0  0  0  0  0  0  0  0
    2.6230   -2.9329    3.6554 H   0  0  0  0  0  0  0  0  0  0  0  0
    1.5599   -3.5536    2.4061 H   0  0  0  0  0  0  0  0  0  0  0  0
    2.8384   -2.4379    2.0029 H   0  0  0  0  0  0  0  0  0  0  0  0
    2.2588   -5.8713   -0.5377 H   0  0  0  0  0  0  0  0  0  0  0  0
    0.4791   -5.9227    1.2439 H   0  0  0  0  0  0  0  0  0  0  0  0
    1.3523   -7.3817    1.0164 H   0  0  0  0  0  0  0  0  0  0  0  0
    1.0158   -5.6057    3.3176 H   0  0  0  0  0  0  0  0  0  0  0  0
    3.5512   -5.9554    5.4875 H   0  0  0  0  0  0  0  0  0  0  0  0
    2.2146   -4.8646    5.1098 H   0  0  0  0  0  0  0  0  0  0  0  0
    3.8713   -4.3818    4.9453 H   0  0  0  0  0  0  0  0  0  0  0  0
    4.3394   -7.1249    2.1197 H   0  0  0  0  0  0  0  0  0  0  0  0
    5.1291   -6.6227    3.5774 H   0  0  0  0  0  0  0  0  0  0  0  0
    4.5851   -8.9067    3.7308 H   0  0  0  0  0  0  0  0  0  0  0  0
    3.8260   -8.0022    4.9838 H   0  0  0  0  0  0  0  0  0  0  0  0
    1.6974   -9.8000    1.6651 H   0  0  0  0  0  0  0  0  0  0  0  0
    3.3577  -10.1675    2.0437 H   0  0  0  0  0  0  0  0  0  0  0  0
    2.9634   -8.6257    1.4204 H   0  0  0  0  0  0  0  0  0  0  0  0
    0.9001  -11.9453    4.6186 H   0  0  0  0  0  0  0  0  0  0  0  0
    1.3223  -11.5168    2.9915 H   0  0  0  0  0  0  0  0  0  0  0  0
    0.0716  -10.6363    3.8468 H   0  0  0  0  0  0  0  0  0  0  0  0
    3.1403  -11.9297    5.2765 H   0  0  0  0  0  0  0  0  0  0  0  0
    4.2310  -10.5820    5.1167 H   0  0  0  0  0  0  0  0  0  0  0  0
    3.7031  -11.4691    3.6939 H   0  0  0  0  0  0  0  0  0  0  0  0
    1.2964  -10.6428    6.4610 H   0  0  0  0  0  0  0  0  0  0  0  0
    3.1969   -8.5837    6.3434 H   0  0  0  0  0  0  0  0  0  0  0  0
   -0.3559   -9.1680    5.6162 H   0  0  0  0  0  0  0  0  0  0  0  0
    1.1122   -8.2076    7.7522 H   0  0  0  0  0  0  0  0  0  0  0  0
    0.1545   -6.7099    5.2545 H   0  0  0  0  0  0  0  0  0  0  0  0
    1.7960   -7.0477    5.6949 H   0  0  0  0  0  0  0  0  0  0  0  0
   -0.7282   -8.7191    3.6617 H   0  0  0  0  0  0  0  0  0  0  0  0
   -0.0307   -8.6307    2.0911 H   0  0  0  0  0  0  0  0  0  0  0  0
   -0.7028   -7.2116    2.8657 H   0  0  0  0  0  0  0  0  0  0  0  0
    4.3385   -4.9501   -0.9705 H   0  0  0  0  0  0  0  0  0  0  0  0
    3.4263   -2.1858   -0.1010 H   0  0  0  0  0  0  0  0  0  0  0  0
    2.5412   -3.2210   -1.1774 H   0  0  0  0  0  0  0  0  0  0  0  0
  1  2  1  0
  1 33  1  0
  1 34  1  0
  1 35  1  0
  2 32  1  0
  2  3  1  0
  2  4  1  0
  3 36  1  0
  3 37  1  0
  3 38  1  0
  4  5  1  0
  4 39  1  0
  4 40  1  0
  5  6  1  0
  5 41  1  0
  5 42  1  0
  6 31  1  0
  6  7  1  0
  6 43  1  1
  7  8  1  0
  7 44  1  0
  7 45  1  0
  8  9  1  0
  8 46  1  0
  8 47  1  0
  9 15  1  0
  9 10  1  1
  9 11  1  0
 10 48  1  0
 10 49  1  0
 10 50  1  0
 11 12  2  0
 11 31  1  0
 12 13  1  0
 12 51  1  0
 13 14  1  0
 13 52  1  0
 13 53  1  0
 14 29  1  0
 14 15  1  0
 14 54  1  1
 15 16  1  1
 15 17  1  0
 16 55  1  0
 16 56  1  0
 16 57  1  0
 17 18  1  0
 17 58  1  0
 17 59  1  0
 18 19  1  0
 18 60  1  0
 18 61  1  0
 19 29  1  0
 19 20  1  6
 19 21  1  0
 20 62  1  0
 20 63  1  0
 20 64  1  0
 21 22  1  0
 21 23  1  0
 21 24  1  0
 22 65  1  0
 22 66  1  0
 22 67  1  0
 23 68  1  0
 23 69  1  0
 23 70  1  0
 24 25  1  0
 24 26  1  0
 24 71  1  1
 25 72  1  0
 26 27  1  0
 26 28  1  0
 26 73  1  6
 27 74  1  0
 28 29  1  0
 28 75  1  0
 28 76  1  0
 29 30  1  6
 30 77  1  0
 30 78  1  0
 30 79  1  0
 31 32  1  0
 31 80  1  6
 32 81  1  0
 32 82  1  0
M  END
>  <i_m_ct_stereo_status>  (264) 
1

>  <s_m_source_file>  (264) 
/var/tmp/pbs.5076255.sched01/tmpwmgilt76/96rd2vfdyj.sdf

>  <i_m_source_file_index>  (264) 
17

>  <i_lp_mmshare_version>  (264) 
48012

>  <i_f3d_flags>  (264) 
0

>  <s_epik_input>  (264) 
W0NIM11DKFtDSDNdKShbQ0gyXTEpW0NIMl1bQ0gyXVtDQEBIXShbQ0gyXVtDSDJdMilbQ0BIXTFDKFtDQF0yM1tDSDNdKT1bQ0hdW0NIMl1bQ0BASF00W0NAQF0zKFtDSDNdKVtDSDJdW0NIMl1bQ0BdNShbQ0gzXSlbQ0BAXTQoW0NIM10pW0NIMl1bQ0BIXShbT0hdKVtDQEhdKFtPSF0pQzUoW0NIM10pW0NIM10=

>  <s_epik_cmdline>  (264) 
J2VwaWtfcHl0aG9uJywgJy1waHQnLCAnMi4wJywgJy1waCcsICc3LjAnLCAnLXRuJywgJzgnLCAnLW1hJywgJzIwMCcsICctaW1hZScsICc8aW5maWxlLm1hZT4nLCAnLW9tYWUnLCAnPG91dGZpbGUubWFlPic=

>  <r_lp_tautomer_probability>  (264) 
1

>  <r_epik_Ionization_Penalty>  (264) 
1.46928e-06

>  <r_epik_Ionization_Penalty_Charging>  (264) 
0

>  <r_epik_Ionization_Penalty_Neutral>  (264) 
1.46928e-06

>  <r_epik_State_Penalty>  (264) 
-0

>  <r_epik_Charging_Adjusted_Penalty>  (264) 
0

>  <i_epik_Tot_Q>  (264) 
0

>  <i_epik_Tot_abs_Q>  (264) 
0

>  <s_lp_Force_Field>  (264) 
OPLS3e

>  <r_lp_Energy>  (264) 
109.35

>  <b_lp_Chiralities_Consistent>  (264) 
1

>  <s_lp_Variant>  (264) 
67:0-1

>  <s_i_glide_gridfile>  (264) 
pfpi4k_grid

>  <i_i_glide_lignum>  (264) 
17

>  <i_i_glide_rotatable_bonds>  (264) 
2

>  <r_i_docking_score>  (264) 
-2.88411

>  <r_i_glide_ligand_efficiency>  (264) 
-0.0901284

>  <r_i_glide_ligand_efficiency_sa>  (264) 
-0.28614

>  <r_i_glide_ligand_efficiency_ln>  (264) 
-0.645831

>  <r_i_glide_gscore>  (264) 
-2.88411

>  <r_i_glide_lipo>  (264) 
-0.505689

>  <r_i_glide_hbond>  (264) 
0

>  <r_i_glide_metal>  (264) 
-0

>  <r_i_glide_rewards>  (264) 
-0.390567

>  <r_i_glide_evdw>  (264) 
-35.8626

>  <r_i_glide_ecoul>  (264) 
-1.29817

>  <r_i_glide_erotb>  (264) 
0

>  <r_i_glide_esite>  (264) 
0

>  <r_i_glide_emodel>  (264) 
-44.1003

>  <r_i_glide_energy>  (264) 
-37.1607

>  <r_i_glide_einternal>  (264) 
0.14903

>  <r_i_glide_intrahb_reward>  (264) 
-0

>  <i_i_glide_confnum>  (264) 
2

>  <i_i_glide_posenum>  (264) 
22

>  <r_i_glide_eff_state_penalty>  (264) 
0

>  <ligand_id>  (264) 
67

>  <original_smiles>  (264) 
CC1(C)CCC2CCC3(C)C(=CCC4C3(C)CCC3(C)C(C)(C)C(O)C(O)CC43C)C2C1

>  <smiles>  (264) 
[H]OC1([H])C([H])([H])C2(C([H])([H])[H])C3([H])C([H])([H])C([H])=C4C5([H])C([H])([H])C(C([H])([H])[H])(C([H])([H])[H])C([H])([H])C([H])([H])C5([H])C([H])([H])C([H])([H])C4(C([H])([H])[H])C3(C([H])([H])[H])C([H])([H])C([H])([H])C2(C([H])([H])[H])C(C([H])([H])[H])(C([H])([H])[H])C1([H])O[H]

$$$$
68:0:0
     RDKit          3D

 33 38  0  0  1  0  0  0  0  0999 V2000
    3.6860   -3.4502   -3.8303 C   0  0  0  0  0  0  0  0  0  0  0  0
    3.8031   -3.4651   -2.3630 N   0  0  1  0  0  0  0  0  0  0  0  0
    5.2458   -3.3544   -1.8446 C   0  0  2  0  0  0  0  0  0  0  0  0
    5.4944   -4.5660   -0.9190 C   0  0  0  0  0  0  0  0  0  0  0  0
    4.6165   -4.7314    0.3088 C   0  0  0  0  0  0  0  0  0  0  0  0
    5.0586   -5.2138    1.3942 N   0  0  0  0  0  0  0  0  0  0  0  0
    4.0707   -5.0645    2.3789 O   0  0  0  0  0  0  0  0  0  0  0  0
    3.0110   -4.4153    1.8346 C   0  0  0  0  0  0  0  0  0  0  0  0
    1.9963   -4.0708    2.4239 O   0  0  0  0  0  0  0  0  0  0  0  0
    3.1871   -4.2437    0.3291 C   0  0  2  0  0  0  0  0  0  0  0  0
    2.2253   -5.0897   -0.3008 O   0  0  0  0  0  0  0  0  0  0  0  0
    2.9873   -2.7747   -0.1798 C   0  0  1  0  0  0  0  0  0  0  0  0
    4.2535   -1.9063   -0.2268 C   0  0  2  0  0  0  0  0  0  0  0  0
    4.4723   -0.7028   -0.4641 C   0  0  1  0  0  0  0  0  0  0  0  0
    5.5514   -1.8809   -1.1515 C   0  0  1  0  0  0  0  0  0  0  0  0
    4.7068   -1.2073   -1.9131 C   0  0  1  0  0  0  0  0  0  0  0  0
    3.3514   -1.1266   -1.5251 C   0  0  1  0  0  0  0  0  0  0  0  0
    2.8191   -2.5723   -1.6216 C   0  0  1  0  0  0  0  0  0  0  0  0
    3.9810   -2.5049   -4.2674 H   0  0  0  0  0  0  0  0  0  0  0  0
    2.6672   -3.6798   -4.1262 H   0  0  0  0  0  0  0  0  0  0  0  0
    4.3166   -4.2314   -4.2518 H   0  0  0  0  0  0  0  0  0  0  0  0
    5.9292   -3.4639   -2.6745 H   0  0  0  0  0  0  0  0  0  0  0  0
    5.3384   -5.4598   -1.4974 H   0  0  0  0  0  0  0  0  0  0  0  0
    6.5314   -4.5565   -0.5901 H   0  0  0  0  0  0  0  0  0  0  0  0
    2.4803   -5.3315   -1.1926 H   0  0  0  0  0  0  0  0  0  0  0  0
    2.2095   -2.2766    0.3924 H   0  0  0  0  0  0  0  0  0  0  0  0
    4.7912   -2.0206    0.7548 H   0  0  0  0  0  0  0  0  0  0  0  0
    4.4033   -0.2021    0.5126 H   0  0  0  0  0  0  0  0  0  0  0  0
    6.5597   -1.5149   -1.2819 H   0  0  0  0  0  0  0  0  0  0  0  0
    5.1458   -0.2361   -2.3054 H   0  0  0  0  0  0  0  0  0  0  0  0
    2.8547   -0.3809   -2.1377 H   0  0  0  0  0  0  0  0  0  0  0  0
    1.7947   -2.6547   -1.9698 H   0  0  0  0  0  0  0  0  0  0  0  0
    3.5610   -4.4115   -2.1816 H   0  0  0  0  0  0  0  0  0  0  0  0
  1  2  1  0
  1 19  1  0
  1 20  1  0
  1 21  1  0
  2 18  1  0
  2  3  1  0
  2 33  1  1
  3 15  1  0
  3  4  1  0
  3 22  1  6
  4  5  1  0
  4 23  1  0
  4 24  1  0
  5 10  1  0
  5  6  2  0
  6  7  1  0
  7  8  1  0
  8  9  2  0
  8 10  1  0
 10 11  1  6
 10 12  1  0
 11 25  1  0
 12 18  1  0
 12 13  1  0
 12 26  1  1
 13 16  1  0
 13 14  1  0
 13 27  1  1
 14 17  1  0
 14 15  1  0
 14 28  1  1
 15 16  1  0
 15 29  1  6
 16 17  1  0
 16 30  1  1
 17 18  1  0
 17 31  1  6
 18 32  1  6
M  CHG  1   2   1
M  END
>  <i_m_ct_stereo_status>  (265) 
1

>  <s_m_source_file>  (265) 
/var/tmp/pbs.5076255.sched01/tmpwmgilt76/96rd2vfdyj.sdf

>  <i_m_source_file_index>  (265) 
18

>  <i_lp_mmshare_version>  (265) 
48012

>  <i_f3d_flags>  (265) 
0

>  <s_epik_input>  (265) 
W0NIM11OMVtDQEhdKFtDQEBIXTJbQ0hdMzQpW0NAQEhdNVtDSF0zW0NASF0yW0NASF00W0NASF0xW0NIMl1DKFtDQF01NltPSF0pPU5PQzY9Tw==

>  <s_epik_cmdline>  (265) 
J2VwaWtfcHl0aG9uJywgJy1waHQnLCAnMi4wJywgJy1waCcsICc3LjAnLCAnLXRuJywgJzgnLCAnLW1hJywgJzIwMCcsICctaW1hZScsICc8aW5maWxlLm1hZT4nLCAnLW9tYWUnLCAnPG91dGZpbGUubWFlPic=

>  <r_epik_Ionization_Penalty>  (265) 
0.122603

>  <r_epik_Ionization_Penalty_Charging>  (265) 
0.105582

>  <r_epik_Ionization_Penalty_Neutral>  (265) 
0.0170216

>  <r_epik_State_Penalty>  (265) 
0.106937

>  <r_epik_Charging_Adjusted_Penalty>  (265) 
0.212519

>  <i_epik_Tot_Q>  (265) 
1

>  <i_epik_Tot_abs_Q>  (265) 
1

>  <s_epik_Chemistry_Notes>  (265) 
This compound has an imine and may undergo hydrolysis.

>  <s_lp_Force_Field>  (265) 
OPLS3e

>  <r_lp_Energy>  (265) 
392.819

>  <b_lp_Chiralities_Consistent>  (265) 
1

>  <s_lp_Variant>  (265) 
68:0-1

>  <s_i_glide_gridfile>  (265) 
pfpi4k_grid

>  <i_i_glide_lignum>  (265) 
18

>  <i_i_glide_rotatable_bonds>  (265) 
1

>  <r_i_docking_score>  (265) 
-4.21946

>  <r_i_glide_ligand_efficiency>  (265) 
-0.234415

>  <r_i_glide_ligand_efficiency_sa>  (265) 
-0.61434

>  <r_i_glide_ligand_efficiency_ln>  (265) 
-1.08459

>  <r_i_glide_gscore>  (265) 
-4.21946

>  <r_i_glide_lipo>  (265) 
-0.230439

>  <r_i_glide_hbond>  (265) 
0

>  <r_i_glide_metal>  (265) 
-0

>  <r_i_glide_rewards>  (265) 
-1.78285

>  <r_i_glide_evdw>  (265) 
-14.3456

>  <r_i_glide_ecoul>  (265) 
-9.69029

>  <r_i_glide_erotb>  (265) 
0

>  <r_i_glide_esite>  (265) 
-0.0353461

>  <r_i_glide_emodel>  (265) 
-29.6807

>  <r_i_glide_energy>  (265) 
-24.0359

>  <r_i_glide_einternal>  (265) 
0.415547

>  <r_i_glide_intrahb_reward>  (265) 
-0

>  <i_i_glide_confnum>  (265) 
1

>  <i_i_glide_posenum>  (265) 
20

>  <r_i_glide_eff_state_penalty>  (265) 
0

>  <ligand_id>  (265) 
68

>  <original_smiles>  (265) 
CN1C2CC3=NOC(=O)C3(O)C3C4C5C2C4C5C31

>  <smiles>  (265) 
[H]OC12C(=O)ON=C1C([H])([H])C1([H])C3([H])C4([H])C5([H])C3([H])C4([H])C([H])(C25[H])[N+]1([H])C([H])([H])[H]

$$$$
68:0:1
     RDKit          3D

 33 38  0  0  1  0  0  0  0  0999 V2000
    3.7223   -2.7280   -1.9557 C   0  0  0  0  0  0  0  0  0  0  0  0
    3.6924   -3.5793   -0.7583 N   0  0  1  0  0  0  0  0  0  0  0  0
    5.0911   -4.0054   -0.2619 C   0  0  2  0  0  0  0  0  0  0  0  0
    5.0900   -5.5486   -0.1848 C   0  0  0  0  0  0  0  0  0  0  0  0
    4.0675   -6.2014    0.7483 C   0  0  0  0  0  0  0  0  0  0  0  0
    4.3113   -7.2681    1.3904 N   0  0  0  0  0  0  0  0  0  0  0  0
    3.2555   -7.4978    2.2963 O   0  0  0  0  0  0  0  0  0  0  0  0
    2.3625   -6.4777    2.1995 C   0  0  0  0  0  0  0  0  0  0  0  0
    1.3516   -6.3136    2.8692 O   0  0  0  0  0  0  0  0  0  0  0  0
    2.7280   -5.5595    1.0495 C   0  0  2  0  0  0  0  0  0  0  0  0
    1.7142   -5.7454    0.0649 O   0  0  0  0  0  0  0  0  0  0  0  0
    2.7793   -4.0385    1.4505 C   0  0  1  0  0  0  0  0  0  0  0  0
    4.1539   -3.5361    1.8886 C   0  0  2  0  0  0  0  0  0  0  0  0
    4.5805   -2.4598    2.3815 C   0  0  1  0  0  0  0  0  0  0  0  0
    5.5335   -3.2263    1.1399 C   0  0  1  0  0  0  0  0  0  0  0  0
    4.8617   -2.1105    0.8730 C   0  0  1  0  0  0  0  0  0  0  0  0
    3.5104   -2.0188    1.2800 C   0  0  1  0  0  0  0  0  0  0  0  0
    2.7939   -3.0537    0.3691 C   0  0  1  0  0  0  0  0  0  0  0  0
    4.1941   -1.7665   -1.7798 H   0  0  0  0  0  0  0  0  0  0  0  0
    2.7151   -2.5517   -2.3268 H   0  0  0  0  0  0  0  0  0  0  0  0
    4.2728   -3.2286   -2.7495 H   0  0  0  0  0  0  0  0  0  0  0  0
    5.8201   -3.7439   -1.0153 H   0  0  0  0  0  0  0  0  0  0  0  0
    4.9060   -5.9356   -1.1813 H   0  0  0  0  0  0  0  0  0  0  0  0
    6.0863   -5.8902    0.0962 H   0  0  0  0  0  0  0  0  0  0  0  0
    2.0315   -5.5237   -0.7994 H   0  0  0  0  0  0  0  0  0  0  0  0
    2.0113   -3.7971    2.1851 H   0  0  0  0  0  0  0  0  0  0  0  0
    4.5781   -4.2592    2.6329 H   0  0  0  0  0  0  0  0  0  0  0  0
    4.4956   -2.5793    3.4632 H   0  0  0  0  0  0  0  0  0  0  0  0
    6.5942   -3.0108    1.2373 H   0  0  0  0  0  0  0  0  0  0  0  0
    5.4828   -1.1899    1.0899 H   0  0  0  0  0  0  0  0  0  0  0  0
    3.1699   -0.9849    1.2894 H   0  0  0  0  0  0  0  0  0  0  0  0
    1.8132   -2.7345    0.0458 H   0  0  0  0  0  0  0  0  0  0  0  0
    3.3049   -4.4246   -1.1098 H   0  0  0  0  0  0  0  0  0  0  0  0
  1  2  1  0
  1 19  1  0
  1 20  1  0
  1 21  1  0
  2 18  1  0
  2  3  1  0
  2 33  1  6
  3 15  1  0
  3  4  1  0
  3 22  1  6
  4  5  1  0
  4 23  1  0
  4 24  1  0
  5 10  1  0
  5  6  2  0
  6  7  1  0
  7  8  1  0
  8  9  2  0
  8 10  1  0
 10 11  1  6
 10 12  1  0
 11 25  1  0
 12 18  1  0
 12 13  1  0
 12 26  1  1
 13 16  1  0
 13 14  1  0
 13 27  1  1
 14 17  1  0
 14 15  1  0
 14 28  1  1
 15 16  1  0
 15 29  1  1
 16 17  1  0
 16 30  1  1
 17 18  1  0
 17 31  1  1
 18 32  1  6
M  CHG  1   2   1
M  END
>  <i_m_ct_stereo_status>  (266) 
1

>  <s_m_source_file>  (266) 
/var/tmp/pbs.5076255.sched01/tmpwmgilt76/96rd2vfdyj.sdf

>  <i_m_source_file_index>  (266) 
18

>  <i_lp_mmshare_version>  (266) 
48012

>  <i_f3d_flags>  (266) 
0

>  <s_epik_input>  (266) 
W0NIM11OMVtDQEhdKFtDQEBIXTJbQ0hdMzQpW0NAQEhdNVtDSF0zW0NASF0yW0NASF00W0NASF0xW0NIMl1DKFtDQF01NltPSF0pPU5PQzY9Tw==

>  <s_epik_cmdline>  (266) 
J2VwaWtfcHl0aG9uJywgJy1waHQnLCAnMi4wJywgJy1waCcsICc3LjAnLCAnLXRuJywgJzgnLCAnLW1hJywgJzIwMCcsICctaW1hZScsICc8aW5maWxlLm1hZT4nLCAnLW9tYWUnLCAnPG91dGZpbGUubWFlPic=

>  <r_epik_Ionization_Penalty>  (266) 
0.122603

>  <r_epik_Ionization_Penalty_Charging>  (266) 
0.105582

>  <r_epik_Ionization_Penalty_Neutral>  (266) 
0.0170216

>  <r_epik_State_Penalty>  (266) 
0.106937

>  <r_epik_Charging_Adjusted_Penalty>  (266) 
0.212519

>  <i_epik_Tot_Q>  (266) 
1

>  <i_epik_Tot_abs_Q>  (266) 
1

>  <s_epik_Chemistry_Notes>  (266) 
This compound has an imine and may undergo hydrolysis.

>  <s_lp_Force_Field>  (266) 
OPLS3e

>  <r_lp_Energy>  (266) 
392.819

>  <b_lp_Chiralities_Consistent>  (266) 
1

>  <s_lp_Variant>  (266) 
68:0-1

>  <s_i_glide_gridfile>  (266) 
pfpi4k_grid

>  <i_i_glide_lignum>  (266) 
18

>  <i_i_glide_rotatable_bonds>  (266) 
1

>  <r_i_docking_score>  (266) 
-4.12062

>  <r_i_glide_ligand_efficiency>  (266) 
-0.228924

>  <r_i_glide_ligand_efficiency_sa>  (266) 
-0.599949

>  <r_i_glide_ligand_efficiency_ln>  (266) 
-1.05919

>  <r_i_glide_gscore>  (266) 
-4.12062

>  <r_i_glide_lipo>  (266) 
-0.180352

>  <r_i_glide_hbond>  (266) 
0

>  <r_i_glide_metal>  (266) 
-0

>  <r_i_glide_rewards>  (266) 
-1.85874

>  <r_i_glide_evdw>  (266) 
-14.4693

>  <r_i_glide_ecoul>  (266) 
-8.98944

>  <r_i_glide_erotb>  (266) 
0

>  <r_i_glide_esite>  (266) 
-0.00964608

>  <r_i_glide_emodel>  (266) 
-29.2156

>  <r_i_glide_energy>  (266) 
-23.4588

>  <r_i_glide_einternal>  (266) 
0.486615

>  <r_i_glide_intrahb_reward>  (266) 
-0

>  <i_i_glide_confnum>  (266) 
1

>  <i_i_glide_posenum>  (266) 
30

>  <r_i_glide_eff_state_penalty>  (266) 
0

>  <ligand_id>  (266) 
68

>  <original_smiles>  (266) 
CN1C2CC3=NOC(=O)C3(O)C3C4C5C2C4C5C31

>  <smiles>  (266) 
[H]OC12C(=O)ON=C1C([H])([H])C1([H])C3([H])C4([H])C5([H])C3([H])C4([H])C([H])(C25[H])[N+]1([H])C([H])([H])[H]

$$$$
68:0:2
     RDKit          3D

 33 38  0  0  1  0  0  0  0  0999 V2000
    3.8988   -0.6712   -2.3242 C   0  0  0  0  0  0  0  0  0  0  0  0
    4.1126   -1.6899   -1.2876 N   0  0  1  0  0  0  0  0  0  0  0  0
    5.5466   -2.2519   -1.2835 C   0  0  2  0  0  0  0  0  0  0  0  0
    5.4063   -3.7756   -1.4474 C   0  0  0  0  0  0  0  0  0  0  0  0
    4.6530   -4.5273   -0.3528 C   0  0  0  0  0  0  0  0  0  0  0  0
    4.9900   -5.6856    0.0428 N   0  0  0  0  0  0  0  0  0  0  0  0
    4.1821   -6.0346    1.1347 O   0  0  0  0  0  0  0  0  0  0  0  0
    3.3793   -4.9832    1.4334 C   0  0  0  0  0  0  0  0  0  0  0  0
    2.6157   -4.8943    2.3822 O   0  0  0  0  0  0  0  0  0  0  0  0
    3.5002   -3.8883    0.3808 C   0  0  2  0  0  0  0  0  0  0  0  0
    2.2831   -3.8619   -0.3599 O   0  0  0  0  0  0  0  0  0  0  0  0
    3.8002   -2.4662    0.9870 C   0  0  1  0  0  0  0  0  0  0  0  0
    5.2914   -2.1120    1.0868 C   0  0  2  0  0  0  0  0  0  0  0  0
    5.9345   -1.1591    1.5891 C   0  0  1  0  0  0  0  0  0  0  0  0
    6.4323   -1.7523    0.0327 C   0  0  1  0  0  0  0  0  0  0  0  0
    5.8244   -0.5801    0.1381 C   0  0  1  0  0  0  0  0  0  0  0  0
    4.6525   -0.4845    0.9177 C   0  0  1  0  0  0  0  0  0  0  0  0
    3.6149   -1.3074    0.1089 C   0  0  1  0  0  0  0  0  0  0  0  0
    4.5105    0.2069   -2.1575 H   0  0  0  0  0  0  0  0  0  0  0  0
    2.8496   -0.3806   -2.3718 H   0  0  0  0  0  0  0  0  0  0  0  0
    4.1695   -1.0470   -3.3077 H   0  0  0  0  0  0  0  0  0  0  0  0
    6.0680   -1.9065   -2.1632 H   0  0  0  0  0  0  0  0  0  0  0  0
    4.9250   -3.9931   -2.3992 H   0  0  0  0  0  0  0  0  0  0  0  0
    6.4040   -4.1856   -1.5008 H   0  0  0  0  0  0  0  0  0  0  0  0
    2.1220   -3.0003   -0.7175 H   0  0  0  0  0  0  0  0  0  0  0  0
    3.2929   -2.3172    1.9399 H   0  0  0  0  0  0  0  0  0  0  0  0
    5.8317   -2.9728    1.5720 H   0  0  0  0  0  0  0  0  0  0  0  0
    6.1356   -1.4565    2.6254 H   0  0  0  0  0  0  0  0  0  0  0  0
    7.4963   -1.6115   -0.1331 H   0  0  0  0  0  0  0  0  0  0  0  0
    6.5726    0.2539    0.2971 H   0  0  0  0  0  0  0  0  0  0  0  0
    4.4324    0.5435    1.1853 H   0  0  0  0  0  0  0  0  0  0  0  0
    2.6127   -0.8779    0.1484 H   0  0  0  0  0  0  0  0  0  0  0  0
    3.5664   -2.4549   -1.6097 H   0  0  0  0  0  0  0  0  0  0  0  0
  1  2  1  0
  1 19  1  0
  1 20  1  0
  1 21  1  0
  2 18  1  0
  2  3  1  0
  2 33  1  6
  3 15  1  0
  3  4  1  0
  3 22  1  6
  4  5  1  0
  4 23  1  0
  4 24  1  0
  5 10  1  0
  5  6  2  0
  6  7  1  0
  7  8  1  0
  8  9  2  0
  8 10  1  0
 10 11  1  6
 10 12  1  0
 11 25  1  0
 12 18  1  0
 12 13  1  0
 12 26  1  1
 13 16  1  0
 13 14  1  0
 13 27  1  6
 14 17  1  0
 14 15  1  0
 14 28  1  1
 15 16  1  0
 15 29  1  1
 16 17  1  0
 16 30  1  1
 17 18  1  0
 17 31  1  1
 18 32  1  6
M  CHG  1   2   1
M  END
>  <i_m_ct_stereo_status>  (267) 
1

>  <s_m_source_file>  (267) 
/var/tmp/pbs.5076255.sched01/tmpwmgilt76/96rd2vfdyj.sdf

>  <i_m_source_file_index>  (267) 
18

>  <i_lp_mmshare_version>  (267) 
48012

>  <i_f3d_flags>  (267) 
0

>  <s_epik_input>  (267) 
W0NIM11OMVtDQEhdKFtDQEBIXTJbQ0hdMzQpW0NAQEhdNVtDSF0zW0NASF0yW0NASF00W0NASF0xW0NIMl1DKFtDQF01NltPSF0pPU5PQzY9Tw==

>  <s_epik_cmdline>  (267) 
J2VwaWtfcHl0aG9uJywgJy1waHQnLCAnMi4wJywgJy1waCcsICc3LjAnLCAnLXRuJywgJzgnLCAnLW1hJywgJzIwMCcsICctaW1hZScsICc8aW5maWxlLm1hZT4nLCAnLW9tYWUnLCAnPG91dGZpbGUubWFlPic=

>  <r_epik_Ionization_Penalty>  (267) 
0.122603

>  <r_epik_Ionization_Penalty_Charging>  (267) 
0.105582

>  <r_epik_Ionization_Penalty_Neutral>  (267) 
0.0170216

>  <r_epik_State_Penalty>  (267) 
0.106937

>  <r_epik_Charging_Adjusted_Penalty>  (267) 
0.212519

>  <i_epik_Tot_Q>  (267) 
1

>  <i_epik_Tot_abs_Q>  (267) 
1

>  <s_epik_Chemistry_Notes>  (267) 
This compound has an imine and may undergo hydrolysis.

>  <s_lp_Force_Field>  (267) 
OPLS3e

>  <r_lp_Energy>  (267) 
392.819

>  <b_lp_Chiralities_Consistent>  (267) 
1

>  <s_lp_Variant>  (267) 
68:0-1

>  <s_i_glide_gridfile>  (267) 
pfpi4k_grid

>  <i_i_glide_lignum>  (267) 
18

>  <i_i_glide_rotatable_bonds>  (267) 
1

>  <r_i_docking_score>  (267) 
-3.5766

>  <r_i_glide_ligand_efficiency>  (267) 
-0.1987

>  <r_i_glide_ligand_efficiency_sa>  (267) 
-0.520741

>  <r_i_glide_ligand_efficiency_ln>  (267) 
-0.919346

>  <r_i_glide_gscore>  (267) 
-3.5766

>  <r_i_glide_lipo>  (267) 
-0.43318

>  <r_i_glide_hbond>  (267) 
0

>  <r_i_glide_metal>  (267) 
-0

>  <r_i_glide_rewards>  (267) 
-1.73268

>  <r_i_glide_evdw>  (267) 
-15.9278

>  <r_i_glide_ecoul>  (267) 
-3.80768

>  <r_i_glide_erotb>  (267) 
0

>  <r_i_glide_esite>  (267) 
-0.0431926

>  <r_i_glide_emodel>  (267) 
-24.7787

>  <r_i_glide_energy>  (267) 
-19.7355

>  <r_i_glide_einternal>  (267) 
0.412329

>  <r_i_glide_intrahb_reward>  (267) 
-0

>  <i_i_glide_confnum>  (267) 
2

>  <i_i_glide_posenum>  (267) 
7

>  <r_i_glide_eff_state_penalty>  (267) 
0

>  <ligand_id>  (267) 
68

>  <original_smiles>  (267) 
CN1C2CC3=NOC(=O)C3(O)C3C4C5C2C4C5C31

>  <smiles>  (267) 
[H]OC12C(=O)ON=C1C([H])([H])C1([H])C3([H])C4([H])C5([H])C3([H])C4([H])C([H])(C25[H])[N+]1([H])C([H])([H])[H]

$$$$
68:1:0
     RDKit          3D

 32 37  0  0  1  0  0  0  0  0999 V2000
    6.8793   -1.5182    0.0795 C   0  0  0  0  0  0  0  0  0  0  0  0
    5.9619   -1.8846   -0.9993 N   0  0  0  0  0  0  0  0  0  0  0  0
    4.5812   -1.2458   -1.0263 C   0  0  2  0  0  0  0  0  0  0  0  0
    3.8958   -1.4255    0.3562 C   0  0  0  0  0  0  0  0  0  0  0  0
    3.6205   -2.8648    0.7969 C   0  0  0  0  0  0  0  0  0  0  0  0
    2.6082   -3.1884    1.4777 N   0  0  0  0  0  0  0  0  0  0  0  0
    2.5293   -4.5958    1.5282 O   0  0  0  0  0  0  0  0  0  0  0  0
    3.5422   -5.1196    0.8176 C   0  0  0  0  0  0  0  0  0  0  0  0
    3.7149   -6.3165    0.5927 O   0  0  0  0  0  0  0  0  0  0  0  0
    4.5026   -4.0271    0.3842 C   0  0  2  0  0  0  0  0  0  0  0  0
    5.6626   -4.1659    1.1821 O   0  0  0  0  0  0  0  0  0  0  0  0
    4.8793   -4.0886   -1.1334 C   0  0  1  0  0  0  0  0  0  0  0  0
    3.9302   -3.3212   -2.0528 C   0  0  2  0  0  0  0  0  0  0  0  0
    3.8242   -3.2381   -3.2899 C   0  0  1  0  0  0  0  0  0  0  0  0
    3.6887   -1.7750   -2.3389 C   0  0  1  0  0  0  0  0  0  0  0  0
    4.7287   -1.9892   -3.1332 C   0  0  1  0  0  0  0  0  0  0  0  0
    5.3988   -3.2438   -3.0511 C   0  0  1  0  0  0  0  0  0  0  0  0
    6.0133   -3.2724   -1.6103 C   0  0  1  0  0  0  0  0  0  0  0  0
    6.9166   -0.4287    0.1618 H   0  0  0  0  0  0  0  0  0  0  0  0
    7.8892   -1.8766   -0.1399 H   0  0  0  0  0  0  0  0  0  0  0  0
    6.5745   -1.8960    1.0581 H   0  0  0  0  0  0  0  0  0  0  0  0
    4.7391   -0.1783   -1.1539 H   0  0  0  0  0  0  0  0  0  0  0  0
    4.4760   -0.9345    1.1365 H   0  0  0  0  0  0  0  0  0  0  0  0
    2.9403   -0.9044    0.3237 H   0  0  0  0  0  0  0  0  0  0  0  0
    6.2878   -3.5246    0.8863 H   0  0  0  0  0  0  0  0  0  0  0  0
    4.9976   -5.1258   -1.4562 H   0  0  0  0  0  0  0  0  0  0  0  0
    2.8679   -3.5940   -1.7882 H   0  0  0  0  0  0  0  0  0  0  0  0
    3.1294   -4.0138   -3.6168 H   0  0  0  0  0  0  0  0  0  0  0  0
    3.0028   -1.0366   -2.7582 H   0  0  0  0  0  0  0  0  0  0  0  0
    4.5531   -1.5549   -4.1643 H   0  0  0  0  0  0  0  0  0  0  0  0
    6.0431   -3.4536   -3.9077 H   0  0  0  0  0  0  0  0  0  0  0  0
    6.9930   -3.7514   -1.5531 H   0  0  0  0  0  0  0  0  0  0  0  0
  1  2  1  0
  1 19  1  0
  1 20  1  0
  1 21  1  0
  2 18  1  0
  2  3  1  0
  3 15  1  0
  3  4  1  0
  3 22  1  6
  4  5  1  0
  4 23  1  0
  4 24  1  0
  5 10  1  0
  5  6  2  0
  6  7  1  0
  7  8  1  0
  8  9  2  0
  8 10  1  0
 10 11  1  1
 10 12  1  0
 11 25  1  0
 12 18  1  0
 12 13  1  0
 12 26  1  6
 13 16  1  0
 13 14  1  0
 13 27  1  1
 14 17  1  0
 14 15  1  0
 14 28  1  6
 15 16  1  0
 15 29  1  6
 16 17  1  0
 16 30  1  6
 17 18  1  0
 17 31  1  6
 18 32  1  6
M  END
>  <i_m_ct_stereo_status>  (268) 
1

>  <s_m_source_file>  (268) 
/var/tmp/pbs.5076255.sched01/tmpwmgilt76/96rd2vfdyj.sdf

>  <i_m_source_file_index>  (268) 
19

>  <i_lp_mmshare_version>  (268) 
48012

>  <i_f3d_flags>  (268) 
0

>  <s_epik_input>  (268) 
W0NIM11OMVtDQEhdKFtDQEBIXTJbQ0hdMzQpW0NAQEhdNVtDSF0zW0NASF0yW0NASF00W0NASF0xW0NIMl1DKFtDQF01NltPSF0pPU5PQzY9Tw==

>  <s_epik_cmdline>  (268) 
J2VwaWtfcHl0aG9uJywgJy1waHQnLCAnMi4wJywgJy1waCcsICc3LjAnLCAnLXRuJywgJzgnLCAnLW1hJywgJzIwMCcsICctaW1hZScsICc8aW5maWxlLm1hZT4nLCAnLW9tYWUnLCAnPG91dGZpbGUubWFlPic=

>  <r_epik_Ionization_Penalty>  (268) 
1.07402

>  <r_epik_Ionization_Penalty_Charging>  (268) 
0

>  <r_epik_Ionization_Penalty_Neutral>  (268) 
1.07402

>  <r_epik_State_Penalty>  (268) 
1.14026

>  <r_epik_Charging_Adjusted_Penalty>  (268) 
1.14026

>  <i_epik_Tot_Q>  (268) 
0

>  <i_epik_Tot_abs_Q>  (268) 
0

>  <s_epik_Chemistry_Notes>  (268) 
This compound has an imine and may undergo hydrolysis.

>  <s_lp_Force_Field>  (268) 
OPLS3e

>  <r_lp_Energy>  (268) 
404.662

>  <b_lp_Chiralities_Consistent>  (268) 
1

>  <s_lp_Variant>  (268) 
68:0-2

>  <s_i_glide_gridfile>  (268) 
pfpi4k_grid

>  <i_i_glide_lignum>  (268) 
19

>  <i_i_glide_rotatable_bonds>  (268) 
1

>  <r_i_docking_score>  (268) 
-3.70033

>  <r_i_glide_ligand_efficiency>  (268) 
-0.205574

>  <r_i_glide_ligand_efficiency_sa>  (268) 
-0.538756

>  <r_i_glide_ligand_efficiency_ln>  (268) 
-0.951151

>  <r_i_glide_gscore>  (268) 
-3.70033

>  <r_i_glide_lipo>  (268) 
-0.536828

>  <r_i_glide_hbond>  (268) 
-0.0439177

>  <r_i_glide_metal>  (268) 
-0

>  <r_i_glide_rewards>  (268) 
-1.73003

>  <r_i_glide_evdw>  (268) 
-20.3564

>  <r_i_glide_ecoul>  (268) 
-2.17859

>  <r_i_glide_erotb>  (268) 
0

>  <r_i_glide_esite>  (268) 
-0.0449448

>  <r_i_glide_emodel>  (268) 
-27.946

>  <r_i_glide_energy>  (268) 
-22.535

>  <r_i_glide_einternal>  (268) 
0.00133812

>  <r_i_glide_intrahb_reward>  (268) 
-0

>  <i_i_glide_confnum>  (268) 
2

>  <i_i_glide_posenum>  (268) 
1

>  <r_i_glide_eff_state_penalty>  (268) 
0

>  <ligand_id>  (268) 
68

>  <original_smiles>  (268) 
CN1C2CC3=NOC(=O)C3(O)C3C4C5C2C4C5C31

>  <smiles>  (268) 
[H]OC12C(=O)ON=C1C([H])([H])C1([H])N(C([H])([H])[H])C3([H])C2([H])C2([H])C4([H])C1([H])C2([H])C34[H]

$$$$
68:1:1
     RDKit          3D

 32 37  0  0  1  0  0  0  0  0999 V2000
    7.2052   -2.3994   -0.5311 C   0  0  0  0  0  0  0  0  0  0  0  0
    6.0203   -2.3252   -1.3919 N   0  0  0  0  0  0  0  0  0  0  0  0
    5.1647   -1.0679   -1.3582 C   0  0  2  0  0  0  0  0  0  0  0  0
    4.8040   -0.7091    0.1136 C   0  0  0  0  0  0  0  0  0  0  0  0
    3.9580   -1.7261    0.8800 C   0  0  0  0  0  0  0  0  0  0  0  0
    3.0776   -1.3882    1.7202 N   0  0  0  0  0  0  0  0  0  0  0  0
    2.3457   -2.5365    2.0851 O   0  0  0  0  0  0  0  0  0  0  0  0
    2.7981   -3.5887    1.3780 C   0  0  0  0  0  0  0  0  0  0  0  0
    2.3147   -4.7208    1.3830 O   0  0  0  0  0  0  0  0  0  0  0  0
    4.0476   -3.2164    0.6042 C   0  0  2  0  0  0  0  0  0  0  0  0
    5.1220   -3.8798    1.2516 O   0  0  0  0  0  0  0  0  0  0  0  0
    3.9913   -3.6295   -0.9040 C   0  0  1  0  0  0  0  0  0  0  0  0
    3.3712   -2.5934   -1.8366 C   0  0  2  0  0  0  0  0  0  0  0  0
    3.0442   -2.6148   -3.0379 C   0  0  1  0  0  0  0  0  0  0  0  0
    3.8613   -1.1960   -2.4074 C   0  0  1  0  0  0  0  0  0  0  0  0
    4.4570   -2.0069   -3.2689 C   0  0  1  0  0  0  0  0  0  0  0  0
    4.4245   -3.4098   -3.0162 C   0  0  1  0  0  0  0  0  0  0  0  0
    5.2390   -3.5941   -1.6889 C   0  0  1  0  0  0  0  0  0  0  0  0
    7.8175   -1.5049   -0.6570 H   0  0  0  0  0  0  0  0  0  0  0  0
    7.8198   -3.2590   -0.8124 H   0  0  0  0  0  0  0  0  0  0  0  0
    6.9592   -2.4652    0.5308 H   0  0  0  0  0  0  0  0  0  0  0  0
    5.7921   -0.2573   -1.7251 H   0  0  0  0  0  0  0  0  0  0  0  0
    5.7087   -0.5154    0.6914 H   0  0  0  0  0  0  0  0  0  0  0  0
    4.2428    0.2240    0.0997 H   0  0  0  0  0  0  0  0  0  0  0  0
    4.9995   -4.8097    1.1215 H   0  0  0  0  0  0  0  0  0  0  0  0
    3.5145   -4.6064   -1.0102 H   0  0  0  0  0  0  0  0  0  0  0  0
    2.4018   -2.2503   -1.3833 H   0  0  0  0  0  0  0  0  0  0  0  0
    2.0080   -2.9633   -3.0759 H   0  0  0  0  0  0  0  0  0  0  0  0
    3.5547   -0.2615   -2.8802 H   0  0  0  0  0  0  0  0  0  0  0  0
    4.2898   -1.6678   -4.3370 H   0  0  0  0  0  0  0  0  0  0  0  0
    4.7015   -3.9983   -3.8961 H   0  0  0  0  0  0  0  0  0  0  0  0
    5.8077   -4.5243   -1.6396 H   0  0  0  0  0  0  0  0  0  0  0  0
  1  2  1  0
  1 19  1  0
  1 20  1  0
  1 21  1  0
  2 18  1  0
  2  3  1  0
  3 15  1  0
  3  4  1  0
  3 22  1  6
  4  5  1  0
  4 23  1  0
  4 24  1  0
  5 10  1  0
  5  6  2  0
  6  7  1  0
  7  8  1  0
  8  9  2  0
  8 10  1  0
 10 11  1  1
 10 12  1  0
 11 25  1  0
 12 18  1  0
 12 13  1  0
 12 26  1  1
 13 16  1  0
 13 14  1  0
 13 27  1  1
 14 17  1  0
 14 15  1  0
 14 28  1  1
 15 16  1  0
 15 29  1  6
 16 17  1  0
 16 30  1  6
 17 18  1  0
 17 31  1  6
 18 32  1  6
M  END
>  <i_m_ct_stereo_status>  (269) 
1

>  <s_m_source_file>  (269) 
/var/tmp/pbs.5076255.sched01/tmpwmgilt76/96rd2vfdyj.sdf

>  <i_m_source_file_index>  (269) 
19

>  <i_lp_mmshare_version>  (269) 
48012

>  <i_f3d_flags>  (269) 
0

>  <s_epik_input>  (269) 
W0NIM11OMVtDQEhdKFtDQEBIXTJbQ0hdMzQpW0NAQEhdNVtDSF0zW0NASF0yW0NASF00W0NASF0xW0NIMl1DKFtDQF01NltPSF0pPU5PQzY9Tw==

>  <s_epik_cmdline>  (269) 
J2VwaWtfcHl0aG9uJywgJy1waHQnLCAnMi4wJywgJy1waCcsICc3LjAnLCAnLXRuJywgJzgnLCAnLW1hJywgJzIwMCcsICctaW1hZScsICc8aW5maWxlLm1hZT4nLCAnLW9tYWUnLCAnPG91dGZpbGUubWFlPic=

>  <r_epik_Ionization_Penalty>  (269) 
1.07402

>  <r_epik_Ionization_Penalty_Charging>  (269) 
0

>  <r_epik_Ionization_Penalty_Neutral>  (269) 
1.07402

>  <r_epik_State_Penalty>  (269) 
1.14026

>  <r_epik_Charging_Adjusted_Penalty>  (269) 
1.14026

>  <i_epik_Tot_Q>  (269) 
0

>  <i_epik_Tot_abs_Q>  (269) 
0

>  <s_epik_Chemistry_Notes>  (269) 
This compound has an imine and may undergo hydrolysis.

>  <s_lp_Force_Field>  (269) 
OPLS3e

>  <r_lp_Energy>  (269) 
404.662

>  <b_lp_Chiralities_Consistent>  (269) 
1

>  <s_lp_Variant>  (269) 
68:0-2

>  <s_i_glide_gridfile>  (269) 
pfpi4k_grid

>  <i_i_glide_lignum>  (269) 
19

>  <i_i_glide_rotatable_bonds>  (269) 
1

>  <r_i_docking_score>  (269) 
-3.27766

>  <r_i_glide_ligand_efficiency>  (269) 
-0.182092

>  <r_i_glide_ligand_efficiency_sa>  (269) 
-0.477216

>  <r_i_glide_ligand_efficiency_ln>  (269) 
-0.842504

>  <r_i_glide_gscore>  (269) 
-3.27766

>  <r_i_glide_lipo>  (269) 
-0.307571

>  <r_i_glide_hbond>  (269) 
0

>  <r_i_glide_metal>  (269) 
-0

>  <r_i_glide_rewards>  (269) 
-1.73003

>  <r_i_glide_evdw>  (269) 
-19.7233

>  <r_i_glide_ecoul>  (269) 
-1.23755

>  <r_i_glide_erotb>  (269) 
0

>  <r_i_glide_esite>  (269) 
-0.0682534

>  <r_i_glide_emodel>  (269) 
-24.791

>  <r_i_glide_energy>  (269) 
-20.9608

>  <r_i_glide_einternal>  (269) 
1.82068

>  <r_i_glide_intrahb_reward>  (269) 
-0

>  <i_i_glide_confnum>  (269) 
1

>  <i_i_glide_posenum>  (269) 
9

>  <r_i_glide_eff_state_penalty>  (269) 
0

>  <ligand_id>  (269) 
68

>  <original_smiles>  (269) 
CN1C2CC3=NOC(=O)C3(O)C3C4C5C2C4C5C31

>  <smiles>  (269) 
[H]OC12C(=O)ON=C1C([H])([H])C1([H])N(C([H])([H])[H])C3([H])C2([H])C2([H])C4([H])C1([H])C2([H])C34[H]

$$$$
68:1:2
     RDKit          3D

 32 37  0  0  1  0  0  0  0  0999 V2000
    7.2101   -2.4576   -0.5595 C   0  0  0  0  0  0  0  0  0  0  0  0
    6.0087   -2.3500   -1.3882 N   0  0  0  0  0  0  0  0  0  0  0  0
    5.1629   -1.0863   -1.3074 C   0  0  2  0  0  0  0  0  0  0  0  0
    4.8165   -0.7842    0.1778 C   0  0  0  0  0  0  0  0  0  0  0  0
    3.9676   -1.8275    0.9051 C   0  0  0  0  0  0  0  0  0  0  0  0
    3.1012   -1.5208    1.7754 N   0  0  0  0  0  0  0  0  0  0  0  0
    2.3698   -2.6795    2.1041 O   0  0  0  0  0  0  0  0  0  0  0  0
    2.8041   -3.7048    1.3468 C   0  0  0  0  0  0  0  0  0  0  0  0
    2.2951   -4.8262    1.3016 O   0  0  0  0  0  0  0  0  0  0  0  0
    4.0475   -3.3056    0.5740 C   0  0  2  0  0  0  0  0  0  0  0  0
    5.1362   -3.9746    1.1860 O   0  0  0  0  0  0  0  0  0  0  0  0
    3.9825   -3.6674   -0.9505 C   0  0  1  0  0  0  0  0  0  0  0  0
    3.3596   -2.5879   -1.8334 C   0  0  2  0  0  0  0  0  0  0  0  0
    3.0215   -2.5505   -3.0305 C   0  0  1  0  0  0  0  0  0  0  0  0
    3.8501   -1.1640   -2.3483 C   0  0  1  0  0  0  0  0  0  0  0  0
    4.4369   -1.9432   -3.2466 C   0  0  1  0  0  0  0  0  0  0  0  0
    4.3973   -3.3545   -3.0565 C   0  0  1  0  0  0  0  0  0  0  0  0
    5.2249   -3.5982   -1.7453 C   0  0  1  0  0  0  0  0  0  0  0  0
    7.8233   -1.5617   -0.6660 H   0  0  0  0  0  0  0  0  0  0  0  0
    7.8184   -3.3078   -0.8825 H   0  0  0  0  0  0  0  0  0  0  0  0
    6.9910   -2.5534    0.5062 H   0  0  0  0  0  0  0  0  0  0  0  0
    5.7953   -0.2690   -1.6495 H   0  0  0  0  0  0  0  0  0  0  0  0
    5.7287   -0.6189    0.7547 H   0  0  0  0  0  0  0  0  0  0  0  0
    4.2651    0.1544    0.2066 H   0  0  0  0  0  0  0  0  0  0  0  0
    5.8977   -3.8276    0.6472 H   0  0  0  0  0  0  0  0  0  0  0  0
    3.4956   -4.6333   -1.0906 H   0  0  0  0  0  0  0  0  0  0  0  0
    2.3987   -2.2523   -1.3566 H   0  0  0  0  0  0  0  0  0  0  0  0
    1.9813   -2.8868   -3.0766 H   0  0  0  0  0  0  0  0  0  0  0  0
    3.5454   -0.2110   -2.7810 H   0  0  0  0  0  0  0  0  0  0  0  0
    4.2633   -1.5579   -4.2973 H   0  0  0  0  0  0  0  0  0  0  0  0
    4.6589   -3.9049   -3.9637 H   0  0  0  0  0  0  0  0  0  0  0  0
    5.8104   -4.5193   -1.7508 H   0  0  0  0  0  0  0  0  0  0  0  0
  1  2  1  0
  1 19  1  0
  1 20  1  0
  1 21  1  0
  2 18  1  0
  2  3  1  0
  3 15  1  0
  3  4  1  0
  3 22  1  6
  4  5  1  0
  4 23  1  0
  4 24  1  0
  5 10  1  0
  5  6  2  0
  6  7  1  0
  7  8  1  0
  8  9  2  0
  8 10  1  0
 10 11  1  1
 10 12  1  0
 11 25  1  0
 12 18  1  0
 12 13  1  0
 12 26  1  1
 13 16  1  0
 13 14  1  0
 13 27  1  1
 14 17  1  0
 14 15  1  0
 14 28  1  1
 15 16  1  0
 15 29  1  6
 16 17  1  0
 16 30  1  6
 17 18  1  0
 17 31  1  6
 18 32  1  6
M  END
>  <i_m_ct_stereo_status>  (270) 
1

>  <s_m_source_file>  (270) 
/var/tmp/pbs.5076255.sched01/tmpwmgilt76/96rd2vfdyj.sdf

>  <i_m_source_file_index>  (270) 
19

>  <i_lp_mmshare_version>  (270) 
48012

>  <i_f3d_flags>  (270) 
0

>  <s_epik_input>  (270) 
W0NIM11OMVtDQEhdKFtDQEBIXTJbQ0hdMzQpW0NAQEhdNVtDSF0zW0NASF0yW0NASF00W0NASF0xW0NIMl1DKFtDQF01NltPSF0pPU5PQzY9Tw==

>  <s_epik_cmdline>  (270) 
J2VwaWtfcHl0aG9uJywgJy1waHQnLCAnMi4wJywgJy1waCcsICc3LjAnLCAnLXRuJywgJzgnLCAnLW1hJywgJzIwMCcsICctaW1hZScsICc8aW5maWxlLm1hZT4nLCAnLW9tYWUnLCAnPG91dGZpbGUubWFlPic=

>  <r_epik_Ionization_Penalty>  (270) 
1.07402

>  <r_epik_Ionization_Penalty_Charging>  (270) 
0

>  <r_epik_Ionization_Penalty_Neutral>  (270) 
1.07402

>  <r_epik_State_Penalty>  (270) 
1.14026

>  <r_epik_Charging_Adjusted_Penalty>  (270) 
1.14026

>  <i_epik_Tot_Q>  (270) 
0

>  <i_epik_Tot_abs_Q>  (270) 
0

>  <s_epik_Chemistry_Notes>  (270) 
This compound has an imine and may undergo hydrolysis.

>  <s_lp_Force_Field>  (270) 
OPLS3e

>  <r_lp_Energy>  (270) 
404.662

>  <b_lp_Chiralities_Consistent>  (270) 
1

>  <s_lp_Variant>  (270) 
68:0-2

>  <s_i_glide_gridfile>  (270) 
pfpi4k_grid

>  <i_i_glide_lignum>  (270) 
19

>  <i_i_glide_rotatable_bonds>  (270) 
1

>  <r_i_docking_score>  (270) 
-3.27015

>  <r_i_glide_ligand_efficiency>  (270) 
-0.181675

>  <r_i_glide_ligand_efficiency_sa>  (270) 
-0.476123

>  <r_i_glide_ligand_efficiency_ln>  (270) 
-0.840575

>  <r_i_glide_gscore>  (270) 
-3.27015

>  <r_i_glide_lipo>  (270) 
-0.336576

>  <r_i_glide_hbond>  (270) 
-0.00111686

>  <r_i_glide_metal>  (270) 
-0

>  <r_i_glide_rewards>  (270) 
-1.73003

>  <r_i_glide_evdw>  (270) 
-19.4799

>  <r_i_glide_ecoul>  (270) 
-1.12674

>  <r_i_glide_erotb>  (270) 
0

>  <r_i_glide_esite>  (270) 
-0.0594165

>  <r_i_glide_emodel>  (270) 
-25.3822

>  <r_i_glide_energy>  (270) 
-20.6067

>  <r_i_glide_einternal>  (270) 
0.0119691

>  <r_i_glide_intrahb_reward>  (270) 
-0

>  <i_i_glide_confnum>  (270) 
2

>  <i_i_glide_posenum>  (270) 
13

>  <r_i_glide_eff_state_penalty>  (270) 
0

>  <ligand_id>  (270) 
68

>  <original_smiles>  (270) 
CN1C2CC3=NOC(=O)C3(O)C3C4C5C2C4C5C31

>  <smiles>  (270) 
[H]OC12C(=O)ON=C1C([H])([H])C1([H])N(C([H])([H])[H])C3([H])C2([H])C2([H])C4([H])C1([H])C2([H])C34[H]

$$$$
68:2:0
     RDKit          3D

 32 37  0  0  1  0  0  0  0  0999 V2000
    2.9815   -1.8398   -2.5554 C   0  0  0  0  0  0  0  0  0  0  0  0
    3.5047   -1.8937   -1.1723 N   0  0  1  0  0  0  0  0  0  0  0  0
    3.4123   -3.2976   -0.5384 C   0  0  2  0  0  0  0  0  0  0  0  0
    2.7214   -3.1191    0.8408 C   0  0  0  0  0  0  0  0  0  0  0  0
    3.4236   -2.2996    1.9233 C   0  0  0  0  0  0  0  0  0  0  0  0
    3.3679   -2.5879    3.1484 N   0  0  0  0  0  0  0  0  0  0  0  0
    4.2397   -1.7232    3.8470 O   0  0  0  0  0  0  0  0  0  0  0  0
    4.8943   -0.9336    2.9565 C   0  0  0  0  0  0  0  0  0  0  0  0
    5.8093   -0.1633    3.2101 O   0  0  0  0  0  0  0  0  0  0  0  0
    4.2964   -1.1001    1.5794 C   0  0  2  0  0  0  0  0  0  0  0  0
    3.5975   -0.0433    1.2779 O   0  0  0  0  0  0  0  0  0  0  0  0
    5.3372   -1.3819    0.4206 C   0  0  1  0  0  0  0  0  0  0  0  0
    5.6571   -2.8602    0.1839 C   0  0  2  0  0  0  0  0  0  0  0  0
    6.5122   -3.4499   -0.5084 C   0  0  1  0  0  0  0  0  0  0  0  0
    4.8884   -4.0842   -0.4982 C   0  0  1  0  0  0  0  0  0  0  0  0
    5.3737   -3.4881   -1.5770 C   0  0  1  0  0  0  0  0  0  0  0  0
    6.0396   -2.2510   -1.4367 C   0  0  1  0  0  0  0  0  0  0  0  0
    4.9024   -1.2705   -0.9986 C   0  0  1  0  0  0  0  0  0  0  0  0
    3.5554   -2.4572   -3.2473 H   0  0  0  0  0  0  0  0  0  0  0  0
    2.9805   -0.8085   -2.9110 H   0  0  0  0  0  0  0  0  0  0  0  0
    1.9538   -2.2070   -2.5692 H   0  0  0  0  0  0  0  0  0  0  0  0
    2.7425   -3.9074   -1.1336 H   0  0  0  0  0  0  0  0  0  0  0  0
    1.7773   -2.6220    0.6507 H   0  0  0  0  0  0  0  0  0  0  0  0
    2.4940   -4.0973    1.2579 H   0  0  0  0  0  0  0  0  0  0  0  0
    6.2399   -0.7923    0.5840 H   0  0  0  0  0  0  0  0  0  0  0  0
    5.8722   -3.3546    1.1766 H   0  0  0  0  0  0  0  0  0  0  0  0
    7.3897   -3.5931    0.1230 H   0  0  0  0  0  0  0  0  0  0  0  0
    4.8329   -5.1605   -0.6370 H   0  0  0  0  0  0  0  0  0  0  0  0
    5.8712   -4.2484   -2.2696 H   0  0  0  0  0  0  0  0  0  0  0  0
    6.6241   -2.0333   -2.3233 H   0  0  0  0  0  0  0  0  0  0  0  0
    4.9935   -0.2567   -1.4010 H   0  0  0  0  0  0  0  0  0  0  0  0
    2.8766   -1.3125   -0.6197 H   0  0  0  0  0  0  0  0  0  0  0  0
  1  2  1  0
  1 19  1  0
  1 20  1  0
  1 21  1  0
  2 18  1  0
  2  3  1  0
  2 32  1  1
  3 15  1  0
  3  4  1  0
  3 22  1  6
  4  5  1  0
  4 23  1  0
  4 24  1  0
  5 10  1  0
  5  6  2  0
  6  7  1  0
  7  8  1  0
  8  9  2  0
  8 10  1  0
 10 11  1  6
 10 12  1  0
 12 18  1  0
 12 13  1  0
 12 25  1  6
 13 16  1  0
 13 14  1  0
 13 26  1  1
 14 17  1  0
 14 15  1  0
 14 27  1  1
 15 16  1  0
 15 28  1  6
 16 17  1  0
 16 29  1  1
 17 18  1  0
 17 30  1  6
 18 31  1  6
M  CHG  2   2   1  11  -1
M  END
>  <i_m_ct_stereo_status>  (271) 
1

>  <s_m_source_file>  (271) 
/var/tmp/pbs.5076255.sched01/tmpwmgilt76/96rd2vfdyj.sdf

>  <i_m_source_file_index>  (271) 
20

>  <i_lp_mmshare_version>  (271) 
48012

>  <i_f3d_flags>  (271) 
0

>  <s_epik_input>  (271) 
W0NIM11OMVtDQEhdKFtDQEBIXTJbQ0hdMzQpW0NAQEhdNVtDSF0zW0NASF0yW0NASF00W0NASF0xW0NIMl1DKFtDQF01NltPSF0pPU5PQzY9Tw==

>  <s_epik_cmdline>  (271) 
J2VwaWtfcHl0aG9uJywgJy1waHQnLCAnMi4wJywgJy1waCcsICc3LjAnLCAnLXRuJywgJzgnLCAnLW1hJywgJzIwMCcsICctaW1hZScsICc8aW5maWxlLm1hZT4nLCAnLW9tYWUnLCAnPG91dGZpbGUubWFlPic=

>  <r_epik_Ionization_Penalty>  (271) 
2.11411

>  <r_epik_Ionization_Penalty_Charging>  (271) 
2.11411

>  <r_epik_Ionization_Penalty_Neutral>  (271) 
2.04125e-09

>  <r_epik_State_Penalty>  (271) 
2.34215

>  <r_epik_Charging_Adjusted_Penalty>  (271) 
4.45626

>  <i_epik_Tot_Q>  (271) 
0

>  <i_epik_Tot_abs_Q>  (271) 
2

>  <s_epik_Chemistry_Notes>  (271) 
This compound has an imine and may undergo hydrolysis.

>  <s_lp_Force_Field>  (271) 
OPLS3e

>  <r_lp_Energy>  (271) 
396.713

>  <b_lp_Chiralities_Consistent>  (271) 
1

>  <s_lp_Variant>  (271) 
68:0-3

>  <s_i_glide_gridfile>  (271) 
pfpi4k_grid

>  <i_i_glide_lignum>  (271) 
20

>  <i_i_glide_rotatable_bonds>  (271) 
0

>  <r_i_docking_score>  (271) 
-3.88381

>  <r_i_glide_ligand_efficiency>  (271) 
-0.215767

>  <r_i_glide_ligand_efficiency_sa>  (271) 
-0.56547

>  <r_i_glide_ligand_efficiency_ln>  (271) 
-0.998313

>  <r_i_glide_gscore>  (271) 
-3.88381

>  <r_i_glide_lipo>  (271) 
-0.432534

>  <r_i_glide_hbond>  (271) 
-0.124198

>  <r_i_glide_metal>  (271) 
-0

>  <r_i_glide_rewards>  (271) 
-1.86189

>  <r_i_glide_evdw>  (271) 
-18.9672

>  <r_i_glide_ecoul>  (271) 
-2.88715

>  <r_i_glide_erotb>  (271) 
0

>  <r_i_glide_esite>  (271) 
-0.0837504

>  <r_i_glide_emodel>  (271) 
-27.6455

>  <r_i_glide_energy>  (271) 
-21.8544

>  <r_i_glide_einternal>  (271) 
0

>  <r_i_glide_intrahb_reward>  (271) 
-0

>  <i_i_glide_confnum>  (271) 
1

>  <i_i_glide_posenum>  (271) 
1

>  <r_i_glide_eff_state_penalty>  (271) 
0

>  <ligand_id>  (271) 
68

>  <original_smiles>  (271) 
CN1C2CC3=NOC(=O)C3(O)C3C4C5C2C4C5C31

>  <smiles>  (271) 
[H]C1([H])C2=NOC(=O)C2([O-])C2([H])C3([H])C4([H])C5([H])C3([H])C4([H])C2([H])[N+]([H])(C([H])([H])[H])C15[H]

$$$$
68:2:1
     RDKit          3D

 32 37  0  0  1  0  0  0  0  0999 V2000
    2.1735   -3.7008   -3.3442 C   0  0  0  0  0  0  0  0  0  0  0  0
    3.3724   -3.1599   -2.6974 N   0  0  1  0  0  0  0  0  0  0  0  0
    4.4872   -2.8342   -3.7004 C   0  0  2  0  0  0  0  0  0  0  0  0
    5.7680   -3.4963   -3.1394 C   0  0  0  0  0  0  0  0  0  0  0  0
    6.3332   -3.0153   -1.7896 C   0  0  0  0  0  0  0  0  0  0  0  0
    7.5751   -2.9202   -1.5563 N   0  0  0  0  0  0  0  0  0  0  0  0
    7.7546   -2.3012   -0.3034 O   0  0  0  0  0  0  0  0  0  0  0  0
    6.5468   -1.9651    0.2033 C   0  0  0  0  0  0  0  0  0  0  0  0
    6.3477   -1.3035    1.2159 O   0  0  0  0  0  0  0  0  0  0  0  0
    5.4399   -2.5365   -0.6638 C   0  0  2  0  0  0  0  0  0  0  0  0
    4.8688   -3.5424   -0.0500 O   0  0  0  0  0  0  0  0  0  0  0  0
    4.3348   -1.5060   -1.1281 C   0  0  1  0  0  0  0  0  0  0  0  0
    4.6303   -0.7936   -2.4482 C   0  0  2  0  0  0  0  0  0  0  0  0
    4.1082    0.1471   -3.0718 C   0  0  1  0  0  0  0  0  0  0  0  0
    4.5969   -1.2115   -4.0143 C   0  0  1  0  0  0  0  0  0  0  0  0
    3.3085   -0.9436   -3.7989 C   0  0  1  0  0  0  0  0  0  0  0  0
    2.8817   -0.6698   -2.4879 C   0  0  1  0  0  0  0  0  0  0  0  0
    3.0847   -2.0125   -1.7253 C   0  0  1  0  0  0  0  0  0  0  0  0
    1.6788   -2.9926   -4.0122 H   0  0  0  0  0  0  0  0  0  0  0  0
    1.4736   -3.9837   -2.5608 H   0  0  0  0  0  0  0  0  0  0  0  0
    2.4056   -4.5765   -3.9485 H   0  0  0  0  0  0  0  0  0  0  0  0
    4.2672   -3.3275   -4.6398 H   0  0  0  0  0  0  0  0  0  0  0  0
    5.5193   -4.5508   -3.0381 H   0  0  0  0  0  0  0  0  0  0  0  0
    6.5567   -3.4307   -3.8753 H   0  0  0  0  0  0  0  0  0  0  0  0
    4.1194   -0.7908   -0.3287 H   0  0  0  0  0  0  0  0  0  0  0  0
    5.6714   -0.3813   -2.3970 H   0  0  0  0  0  0  0  0  0  0  0  0
    4.5627    1.0818   -2.8166 H   0  0  0  0  0  0  0  0  0  0  0  0
    4.8469   -0.9460   -5.0361 H   0  0  0  0  0  0  0  0  0  0  0  0
    2.8675   -0.2727   -4.6083 H   0  0  0  0  0  0  0  0  0  0  0  0
    1.9585   -0.1182   -2.3987 H   0  0  0  0  0  0  0  0  0  0  0  0
    2.3314   -2.2546   -0.9831 H   0  0  0  0  0  0  0  0  0  0  0  0
    3.7422   -3.8983   -2.1002 H   0  0  0  0  0  0  0  0  0  0  0  0
  1  2  1  0
  1 19  1  0
  1 20  1  0
  1 21  1  0
  2 18  1  0
  2  3  1  0
  2 32  1  1
  3 15  1  0
  3  4  1  0
  3 22  1  6
  4  5  1  0
  4 23  1  0
  4 24  1  0
  5 10  1  0
  5  6  2  0
  6  7  1  0
  7  8  1  0
  8  9  2  0
  8 10  1  0
 10 11  1  1
 10 12  1  0
 12 18  1  0
 12 13  1  0
 12 25  1  1
 13 16  1  0
 13 14  1  0
 13 26  1  6
 14 17  1  0
 14 15  1  0
 14 27  1  6
 15 16  1  0
 15 28  1  6
 16 17  1  0
 16 29  1  6
 17 18  1  0
 17 30  1  6
 18 31  1  1
M  CHG  2   2   1  11  -1
M  END
>  <i_m_ct_stereo_status>  (272) 
1

>  <s_m_source_file>  (272) 
/var/tmp/pbs.5076255.sched01/tmpwmgilt76/96rd2vfdyj.sdf

>  <i_m_source_file_index>  (272) 
20

>  <i_lp_mmshare_version>  (272) 
48012

>  <i_f3d_flags>  (272) 
0

>  <s_epik_input>  (272) 
W0NIM11OMVtDQEhdKFtDQEBIXTJbQ0hdMzQpW0NAQEhdNVtDSF0zW0NASF0yW0NASF00W0NASF0xW0NIMl1DKFtDQF01NltPSF0pPU5PQzY9Tw==

>  <s_epik_cmdline>  (272) 
J2VwaWtfcHl0aG9uJywgJy1waHQnLCAnMi4wJywgJy1waCcsICc3LjAnLCAnLXRuJywgJzgnLCAnLW1hJywgJzIwMCcsICctaW1hZScsICc8aW5maWxlLm1hZT4nLCAnLW9tYWUnLCAnPG91dGZpbGUubWFlPic=

>  <r_epik_Ionization_Penalty>  (272) 
2.11411

>  <r_epik_Ionization_Penalty_Charging>  (272) 
2.11411

>  <r_epik_Ionization_Penalty_Neutral>  (272) 
2.04125e-09

>  <r_epik_State_Penalty>  (272) 
2.34215

>  <r_epik_Charging_Adjusted_Penalty>  (272) 
4.45626

>  <i_epik_Tot_Q>  (272) 
0

>  <i_epik_Tot_abs_Q>  (272) 
2

>  <s_epik_Chemistry_Notes>  (272) 
This compound has an imine and may undergo hydrolysis.

>  <s_lp_Force_Field>  (272) 
OPLS3e

>  <r_lp_Energy>  (272) 
396.713

>  <b_lp_Chiralities_Consistent>  (272) 
1

>  <s_lp_Variant>  (272) 
68:0-3

>  <s_i_glide_gridfile>  (272) 
pfpi4k_grid

>  <i_i_glide_lignum>  (272) 
20

>  <i_i_glide_rotatable_bonds>  (272) 
0

>  <r_i_docking_score>  (272) 
-3.7801

>  <r_i_glide_ligand_efficiency>  (272) 
-0.210006

>  <r_i_glide_ligand_efficiency_sa>  (272) 
-0.55037

>  <r_i_glide_ligand_efficiency_ln>  (272) 
-0.971656

>  <r_i_glide_gscore>  (272) 
-3.7801

>  <r_i_glide_lipo>  (272) 
-0.723159

>  <r_i_glide_hbond>  (272) 
0

>  <r_i_glide_metal>  (272) 
-0

>  <r_i_glide_rewards>  (272) 
-1.8159

>  <r_i_glide_evdw>  (272) 
-14.876

>  <r_i_glide_ecoul>  (272) 
-2.59431

>  <r_i_glide_erotb>  (272) 
0

>  <r_i_glide_esite>  (272) 
-0.108096

>  <r_i_glide_emodel>  (272) 
-22.1933

>  <r_i_glide_energy>  (272) 
-17.4703

>  <r_i_glide_einternal>  (272) 
0

>  <r_i_glide_intrahb_reward>  (272) 
-0

>  <i_i_glide_confnum>  (272) 
1

>  <i_i_glide_posenum>  (272) 
2

>  <r_i_glide_eff_state_penalty>  (272) 
0

>  <ligand_id>  (272) 
68

>  <original_smiles>  (272) 
CN1C2CC3=NOC(=O)C3(O)C3C4C5C2C4C5C31

>  <smiles>  (272) 
[H]C1([H])C2=NOC(=O)C2([O-])C2([H])C3([H])C4([H])C5([H])C3([H])C4([H])C2([H])[N+]([H])(C([H])([H])[H])C15[H]

$$$$
68:2:2
     RDKit          3D

 32 37  0  0  1  0  0  0  0  0999 V2000
    4.8207   -1.3373   -2.2415 C   0  0  0  0  0  0  0  0  0  0  0  0
    4.6242   -1.6930   -0.8369 N   0  0  1  0  0  0  0  0  0  0  0  0
    4.2746   -3.1681   -0.6469 C   0  0  2  0  0  0  0  0  0  0  0  0
    2.9796   -3.2211    0.2124 C   0  0  0  0  0  0  0  0  0  0  0  0
    3.0378   -2.6610    1.6402 C   0  0  0  0  0  0  0  0  0  0  0  0
    2.4045   -3.1916    2.6068 N   0  0  0  0  0  0  0  0  0  0  0  0
    2.7770   -2.5558    3.8093 O   0  0  0  0  0  0  0  0  0  0  0  0
    3.7572   -1.6433    3.5239 C   0  0  0  0  0  0  0  0  0  0  0  0
    4.4105   -0.9984    4.3372 O   0  0  0  0  0  0  0  0  0  0  0  0
    3.9362   -1.5139    2.0260 C   0  0  2  0  0  0  0  0  0  0  0  0
    3.4506   -0.3544    1.6297 O   0  0  0  0  0  0  0  0  0  0  0  0
    5.4082   -1.6261    1.4916 C   0  0  1  0  0  0  0  0  0  0  0  0
    5.8574   -3.0508    1.1420 C   0  0  2  0  0  0  0  0  0  0  0  0
    6.9534   -3.5751    0.8374 C   0  0  1  0  0  0  0  0  0  0  0  0
    5.5441   -4.0593   -0.0512 C   0  0  1  0  0  0  0  0  0  0  0  0
    6.4933   -3.3019   -0.5999 C   0  0  1  0  0  0  0  0  0  0  0  0
    6.9524   -2.1656    0.0877 C   0  0  1  0  0  0  0  0  0  0  0  0
    5.7204   -1.2166    0.1060 C   0  0  1  0  0  0  0  0  0  0  0  0
    5.6624   -1.8509   -2.6967 H   0  0  0  0  0  0  0  0  0  0  0  0
    4.9863   -0.2674   -2.3634 H   0  0  0  0  0  0  0  0  0  0  0  0
    3.9536   -1.5931   -2.8522 H   0  0  0  0  0  0  0  0  0  0  0  0
    4.0032   -3.6184   -1.5956 H   0  0  0  0  0  0  0  0  0  0  0  0
    2.2155   -2.6589   -0.3193 H   0  0  0  0  0  0  0  0  0  0  0  0
    2.6136   -4.2499    0.2624 H   0  0  0  0  0  0  0  0  0  0  0  0
    6.0991   -1.1562    2.1953 H   0  0  0  0  0  0  0  0  0  0  0  0
    5.5818   -3.7449    1.9785 H   0  0  0  0  0  0  0  0  0  0  0  0
    7.4443   -3.9117    1.7699 H   0  0  0  0  0  0  0  0  0  0  0  0
    5.6274   -5.0831   -0.4081 H   0  0  0  0  0  0  0  0  0  0  0  0
    7.3085   -3.9071   -1.1014 H   0  0  0  0  0  0  0  0  0  0  0  0
    7.9133   -1.8288   -0.3098 H   0  0  0  0  0  0  0  0  0  0  0  0
    5.9760   -0.1628    0.0267 H   0  0  0  0  0  0  0  0  0  0  0  0
    3.8136   -1.2041   -0.5260 H   0  0  0  0  0  0  0  0  0  0  0  0
  1  2  1  0
  1 19  1  0
  1 20  1  0
  1 21  1  0
  2 18  1  0
  2  3  1  0
  2 32  1  1
  3 15  1  0
  3  4  1  0
  3 22  1  6
  4  5  1  0
  4 23  1  0
  4 24  1  0
  5 10  1  0
  5  6  2  0
  6  7  1  0
  7  8  1  0
  8  9  2  0
  8 10  1  0
 10 11  1  6
 10 12  1  0
 12 18  1  0
 12 13  1  0
 12 25  1  1
 13 16  1  0
 13 14  1  0
 13 26  1  6
 14 17  1  0
 14 15  1  0
 14 27  1  1
 15 16  1  0
 15 28  1  6
 16 17  1  0
 16 29  1  1
 17 18  1  0
 17 30  1  6
 18 31  1  1
M  CHG  2   2   1  11  -1
M  END
>  <i_m_ct_stereo_status>  (273) 
1

>  <s_m_source_file>  (273) 
/var/tmp/pbs.5076255.sched01/tmpwmgilt76/96rd2vfdyj.sdf

>  <i_m_source_file_index>  (273) 
20

>  <i_lp_mmshare_version>  (273) 
48012

>  <i_f3d_flags>  (273) 
0

>  <s_epik_input>  (273) 
W0NIM11OMVtDQEhdKFtDQEBIXTJbQ0hdMzQpW0NAQEhdNVtDSF0zW0NASF0yW0NASF00W0NASF0xW0NIMl1DKFtDQF01NltPSF0pPU5PQzY9Tw==

>  <s_epik_cmdline>  (273) 
J2VwaWtfcHl0aG9uJywgJy1waHQnLCAnMi4wJywgJy1waCcsICc3LjAnLCAnLXRuJywgJzgnLCAnLW1hJywgJzIwMCcsICctaW1hZScsICc8aW5maWxlLm1hZT4nLCAnLW9tYWUnLCAnPG91dGZpbGUubWFlPic=

>  <r_epik_Ionization_Penalty>  (273) 
2.11411

>  <r_epik_Ionization_Penalty_Charging>  (273) 
2.11411

>  <r_epik_Ionization_Penalty_Neutral>  (273) 
2.04125e-09

>  <r_epik_State_Penalty>  (273) 
2.34215

>  <r_epik_Charging_Adjusted_Penalty>  (273) 
4.45626

>  <i_epik_Tot_Q>  (273) 
0

>  <i_epik_Tot_abs_Q>  (273) 
2

>  <s_epik_Chemistry_Notes>  (273) 
This compound has an imine and may undergo hydrolysis.

>  <s_lp_Force_Field>  (273) 
OPLS3e

>  <r_lp_Energy>  (273) 
396.713

>  <b_lp_Chiralities_Consistent>  (273) 
1

>  <s_lp_Variant>  (273) 
68:0-3

>  <s_i_glide_gridfile>  (273) 
pfpi4k_grid

>  <i_i_glide_lignum>  (273) 
20

>  <i_i_glide_rotatable_bonds>  (273) 
0

>  <r_i_docking_score>  (273) 
-3.18358

>  <r_i_glide_ligand_efficiency>  (273) 
-0.176866

>  <r_i_glide_ligand_efficiency_sa>  (273) 
-0.463519

>  <r_i_glide_ligand_efficiency_ln>  (273) 
-0.818323

>  <r_i_glide_gscore>  (273) 
-3.18358

>  <r_i_glide_lipo>  (273) 
-0.496677

>  <r_i_glide_hbond>  (273) 
0

>  <r_i_glide_metal>  (273) 
-0

>  <r_i_glide_rewards>  (273) 
-1.73047

>  <r_i_glide_evdw>  (273) 
-16.4793

>  <r_i_glide_ecoul>  (273) 
-0.578825

>  <r_i_glide_erotb>  (273) 
0

>  <r_i_glide_esite>  (273) 
-0.0456464

>  <r_i_glide_emodel>  (273) 
-21.6624

>  <r_i_glide_energy>  (273) 
-17.0581

>  <r_i_glide_einternal>  (273) 
0

>  <r_i_glide_intrahb_reward>  (273) 
-0

>  <i_i_glide_confnum>  (273) 
2

>  <i_i_glide_posenum>  (273) 
4

>  <r_i_glide_eff_state_penalty>  (273) 
0

>  <ligand_id>  (273) 
68

>  <original_smiles>  (273) 
CN1C2CC3=NOC(=O)C3(O)C3C4C5C2C4C5C31

>  <smiles>  (273) 
[H]C1([H])C2=NOC(=O)C2([O-])C2([H])C3([H])C4([H])C5([H])C3([H])C4([H])C2([H])[N+]([H])(C([H])([H])[H])C15[H]

$$$$
69:0:0
     RDKit          3D

 84 91  0  0  1  0  0  0  0  0999 V2000
    7.0174   -8.2880    1.4134 C   0  0  0  0  0  0  0  0  0  0  0  0
    6.5728   -8.8138    2.7686 C   0  0  0  0  0  0  0  0  0  0  0  0
    7.3851   -9.1558    3.6246 O   0  0  0  0  0  0  0  0  0  0  0  0
    5.2345   -8.8555    2.8712 O   0  0  0  0  0  0  0  0  0  0  0  0
    4.5630   -9.3508    4.0242 C   0  0  2  0  0  0  0  0  0  0  0  0
    3.2469  -10.2699    3.6352 C   0  0  0  0  0  0  0  0  0  0  0  0
    1.7191   -9.8347    3.1135 C   0  0  1  0  0  0  0  0  0  0  0  0
    0.7773  -11.0545    3.0138 C   0  0  0  0  0  0  0  0  0  0  0  0
    0.9268   -8.4251    3.5171 C   0  0  2  0  0  0  0  0  0  0  0  0
    0.5278   -7.9588    2.1000 C   0  0  0  0  0  0  0  0  0  0  0  0
    0.9409   -6.9652    1.3197 C   0  0  0  0  0  0  0  0  0  0  0  0
    1.9206   -6.1171    1.6792 O   0  0  0  0  0  0  0  0  0  0  0  0
    3.0400   -6.6523    2.2847 C   0  0  2  0  0  0  0  0  0  0  0  0
    3.7876   -7.2794    1.2743 O   0  0  0  0  0  0  0  0  0  0  0  0
    2.8705   -7.6879    3.2803 O   0  0  0  0  0  0  0  0  0  0  0  0
    2.0318   -7.9040    4.4943 C   0  0  2  0  0  0  0  0  0  0  0  0
    1.9429   -8.9945    5.7948 C   0  0  1  0  0  0  0  0  0  0  0  0
    1.4088  -10.1994    5.6368 F   0  0  0  0  0  0  0  0  0  0  0  0
    2.9975   -9.1806    6.9463 C   0  0  0  0  0  0  0  0  0  0  0  0
    4.3928   -9.1886    6.4582 C   0  0  2  0  0  0  0  0  0  0  0  0
    5.4515   -8.1477    6.4564 C   0  0  1  0  0  0  0  0  0  0  0  0
    6.7558   -8.6843    6.3607 O   0  0  0  0  0  0  0  0  0  0  0  0
    4.5401   -8.2796    5.2428 C   0  0  1  0  0  0  0  0  0  0  0  0
    3.8808   -6.8872    5.2319 O   0  0  0  0  0  0  0  0  0  0  0  0
    2.4345   -6.6387    5.2809 C   0  0  2  0  0  0  0  0  0  0  0  0
    2.0465   -6.6061    6.6394 O   0  0  0  0  0  0  0  0  0  0  0  0
    1.8813   -5.2616    4.7454 C   0  0  2  0  0  0  0  0  0  0  0  0
    1.5546   -4.2378    5.9060 C   0  0  0  0  0  0  0  0  0  0  0  0
    0.4081   -5.5364    4.1937 C   0  0  0  0  0  0  0  0  0  0  0  0
   -0.5125   -6.6858    4.7956 C   0  0  0  0  0  0  0  0  0  0  0  0
   -0.4198   -8.1944    4.3008 C   0  0  1  0  0  0  0  0  0  0  0  0
   -1.7354   -8.6358    3.6048 C   0  0  0  0  0  0  0  0  0  0  0  0
    2.9278   -4.5523    3.7795 C   0  0  1  0  0  0  0  0  0  0  0  0
    3.8778   -3.4996    4.4542 C   0  0  1  0  0  0  0  0  0  0  0  0
    4.7840   -4.1687    5.3123 O   0  0  0  0  0  0  0  0  0  0  0  0
    4.6254   -2.6437    3.4449 C   0  0  0  0  0  0  0  0  0  0  0  0
    5.0929   -1.3522    3.8029 C   0  0  0  0  0  0  0  0  0  0  0  0
    4.8863   -0.8415    5.0553 O   0  0  0  0  0  0  0  0  0  0  0  0
    5.8079   -0.5767    2.8787 C   0  0  0  0  0  0  0  0  0  0  0  0
    6.0486   -1.0624    1.5827 C   0  0  0  0  0  0  0  0  0  0  0  0
    5.5888   -2.3348    1.2178 C   0  0  0  0  0  0  0  0  0  0  0  0
    4.8825   -3.1361    2.1461 C   0  0  0  0  0  0  0  0  0  0  0  0
    4.4143   -4.4817    1.7280 C   0  0  0  0  0  0  0  0  0  0  0  0
    4.5009   -4.8309    0.5547 O   0  0  0  0  0  0  0  0  0  0  0  0
    3.8186   -5.4156    2.8271 C   0  0  2  0  0  0  0  0  0  0  0  0
    6.6437   -8.9568    0.6362 H   0  0  0  0  0  0  0  0  0  0  0  0
    8.1076   -8.2522    1.3435 H   0  0  0  0  0  0  0  0  0  0  0  0
    6.6308   -7.2833    1.2338 H   0  0  0  0  0  0  0  0  0  0  0  0
    5.2519  -10.1256    4.3639 H   0  0  0  0  0  0  0  0  0  0  0  0
    3.6159  -10.9318    2.8485 H   0  0  0  0  0  0  0  0  0  0  0  0
    3.1426  -10.9836    4.4510 H   0  0  0  0  0  0  0  0  0  0  0  0
    1.9913   -9.7056    2.0633 H   0  0  0  0  0  0  0  0  0  0  0  0
    0.2514  -11.2880    3.9415 H   0  0  0  0  0  0  0  0  0  0  0  0
    1.3327  -11.9554    2.7442 H   0  0  0  0  0  0  0  0  0  0  0  0
    0.0244  -10.9095    2.2346 H   0  0  0  0  0  0  0  0  0  0  0  0
   -0.2108   -8.6009    1.6513 H   0  0  0  0  0  0  0  0  0  0  0  0
    0.5650   -6.7779    0.3272 H   0  0  0  0  0  0  0  0  0  0  0  0
    4.6323   -7.4916    1.6466 H   0  0  0  0  0  0  0  0  0  0  0  0
    1.1021   -8.6631    6.3958 H   0  0  0  0  0  0  0  0  0  0  0  0
    2.9364   -8.4795    7.7780 H   0  0  0  0  0  0  0  0  0  0  0  0
    2.8161  -10.1438    7.4335 H   0  0  0  0  0  0  0  0  0  0  0  0
    4.7831  -10.2049    6.4089 H   0  0  0  0  0  0  0  0  0  0  0  0
    5.3575   -7.3225    7.1614 H   0  0  0  0  0  0  0  0  0  0  0  0
    6.8033   -9.2731    5.6150 H   0  0  0  0  0  0  0  0  0  0  0  0
    2.3077   -7.4214    7.0329 H   0  0  0  0  0  0  0  0  0  0  0  0
    1.2459   -3.2754    5.5016 H   0  0  0  0  0  0  0  0  0  0  0  0
    2.3856   -4.0619    6.5890 H   0  0  0  0  0  0  0  0  0  0  0  0
    0.7140   -4.5535    6.5267 H   0  0  0  0  0  0  0  0  0  0  0  0
   -0.1622   -4.6321    4.3851 H   0  0  0  0  0  0  0  0  0  0  0  0
    0.3312   -5.4962    3.1286 H   0  0  0  0  0  0  0  0  0  0  0  0
   -0.4252   -6.6690    5.8801 H   0  0  0  0  0  0  0  0  0  0  0  0
   -1.5441   -6.3709    4.6337 H   0  0  0  0  0  0  0  0  0  0  0  0
   -0.4836   -8.8315    5.1739 H   0  0  0  0  0  0  0  0  0  0  0  0
   -2.0420   -8.0025    2.7693 H   0  0  0  0  0  0  0  0  0  0  0  0
   -2.5522   -8.6336    4.3169 H   0  0  0  0  0  0  0  0  0  0  0  0
   -1.6719   -9.6654    3.2541 H   0  0  0  0  0  0  0  0  0  0  0  0
    2.2819   -3.9507    3.1426 H   0  0  0  0  0  0  0  0  0  0  0  0
    3.3205   -2.7733    5.0400 H   0  0  0  0  0  0  0  0  0  0  0  0
    4.2872   -4.6893    5.9287 H   0  0  0  0  0  0  0  0  0  0  0  0
    5.2482    0.0239    5.1688 H   0  0  0  0  0  0  0  0  0  0  0  0
    6.1689    0.4008    3.1670 H   0  0  0  0  0  0  0  0  0  0  0  0
    6.6006   -0.4527    0.8803 H   0  0  0  0  0  0  0  0  0  0  0  0
    5.7957   -2.6959    0.2183 H   0  0  0  0  0  0  0  0  0  0  0  0
    4.6844   -5.7989    3.3667 H   0  0  0  0  0  0  0  0  0  0  0  0
  1  2  1  0
  1 46  1  0
  1 47  1  0
  1 48  1  0
  2  3  2  0
  2  4  1  0
  4  5  1  0
  5 23  1  0
  5  6  1  0
  5 49  1  1
  6  7  1  0
  6 50  1  0
  6 51  1  0
  7  8  1  0
  7  9  1  0
  7 52  1  6
  8 53  1  0
  8 54  1  0
  8 55  1  0
  9 16  1  0
  9 31  1  0
  9 10  1  6
 10 11  2  0
 10 56  1  0
 11 12  1  0
 11 57  1  0
 12 13  1  0
 13 45  1  0
 13 14  1  6
 13 15  1  0
 14 58  1  0
 16 15  1  6
 16 25  1  0
 16 17  1  0
 17 18  1  0
 17 19  1  0
 17 59  1  1
 19 20  1  0
 19 60  1  0
 19 61  1  0
 20 23  1  0
 20 21  1  0
 20 62  1  6
 21 22  1  0
 21 23  1  0
 21 63  1  1
 22 64  1  0
 23 24  1  6
 24 25  1  0
 25 26  1  1
 25 27  1  0
 26 65  1  0
 27 28  1  1
 27 29  1  0
 27 33  1  0
 28 66  1  0
 28 67  1  0
 28 68  1  0
 29 30  1  0
 29 69  1  0
 29 70  1  0
 30 31  1  0
 30 71  1  0
 30 72  1  0
 31 32  1  0
 31 73  1  1
 32 74  1  0
 32 75  1  0
 32 76  1  0
 33 45  1  0
 33 34  1  0
 33 77  1  6
 34 35  1  0
 34 36  1  0
 34 78  1  1
 35 79  1  0
 36 42  2  0
 36 37  1  0
 37 38  1  0
 37 39  2  0
 38 80  1  0
 39 40  1  0
 39 81  1  0
 40 41  2  0
 40 82  1  0
 41 42  1  0
 41 83  1  0
 42 43  1  0
 43 44  2  0
 43 45  1  0
 45 84  1  1
M  END
>  <i_m_ct_stereo_status>  (274) 
1

>  <s_m_source_file>  (274) 
/var/tmp/pbs.5076255.sched01/tmpwmgilt76/96rd2vfdyj.sdf

>  <i_m_source_file_index>  (274) 
21

>  <i_lp_mmshare_version>  (274) 
48012

>  <i_f3d_flags>  (274) 
0

>  <s_epik_input>  (274) 
W0NIM11DKD1PKU9bQ0BIXShbQ0gyXVtDQEhdMVtDSDNdKVtDQF0yKFtDQEhdKFtDSDJdW0NAQEhdM0YpW0NASF0yW09IXSlPW0NAQF0oW0NAXTM0W0NAXTE1NikoW09IXSlbQ0BdKFtDSDNdKShbQ0gyXVtDSDJdW0NASF02W0NIM10pW0NAQEhdN1tDQEBIXShbQ0BdKE80KShbT0hdKU9bQ0hdPVtDSF01KUMoPU8pYzhjKFtDQEBIXTdbT0hdKWMoW09IXSlbY0hdW2NIXVtjSF04

>  <s_epik_cmdline>  (274) 
J2VwaWtfcHl0aG9uJywgJy1waHQnLCAnMi4wJywgJy1waCcsICc3LjAnLCAnLXRuJywgJzgnLCAnLW1hJywgJzIwMCcsICctaW1hZScsICc8aW5maWxlLm1hZT4nLCAnLW9tYWUnLCAnPG91dGZpbGUubWFlPic=

>  <r_epik_Ionization_Penalty>  (274) 
0.0217896

>  <r_epik_Ionization_Penalty_Charging>  (274) 
0

>  <r_epik_Ionization_Penalty_Neutral>  (274) 
0.0217896

>  <r_epik_State_Penalty>  (274) 
0.0143146

>  <r_epik_Charging_Adjusted_Penalty>  (274) 
0.0143146

>  <i_epik_Tot_Q>  (274) 
0

>  <i_epik_Tot_abs_Q>  (274) 
0

>  <s_epik_Chemistry_Notes>  (274) 
This compound has an ester and may undergo hydrolysis at high or low pH.

>  <s_lp_Force_Field>  (274) 
OPLS3e

>  <r_lp_Energy>  (274) 
338.512

>  <b_lp_Chiralities_Consistent>  (274) 
1

>  <s_lp_Variant>  (274) 
69:0-1

>  <s_i_glide_gridfile>  (274) 
pfpi4k_grid

>  <i_i_glide_lignum>  (274) 
21

>  <i_i_glide_rotatable_bonds>  (274) 
7

>  <r_i_docking_score>  (274) 
-3.6838

>  <r_i_glide_ligand_efficiency>  (274) 
-0.0818621

>  <r_i_glide_ligand_efficiency_sa>  (274) 
-0.291175

>  <r_i_glide_ligand_efficiency_ln>  (274) 
-0.766394

>  <r_i_glide_gscore>  (274) 
-3.6838

>  <r_i_glide_lipo>  (274) 
-0.771356

>  <r_i_glide_hbond>  (274) 
0

>  <r_i_glide_metal>  (274) 
-0

>  <r_i_glide_rewards>  (274) 
-1.07404

>  <r_i_glide_evdw>  (274) 
-35.1391

>  <r_i_glide_ecoul>  (274) 
-0.358936

>  <r_i_glide_erotb>  (274) 
0.0531695

>  <r_i_glide_esite>  (274) 
-0.0807731

>  <r_i_glide_emodel>  (274) 
-52.543

>  <r_i_glide_energy>  (274) 
-35.498

>  <r_i_glide_einternal>  (274) 
2.93476

>  <r_i_glide_intrahb_reward>  (274) 
-1

>  <i_i_glide_confnum>  (274) 
2

>  <i_i_glide_posenum>  (274) 
1

>  <r_i_glide_eff_state_penalty>  (274) 
0

>  <ligand_id>  (274) 
69

>  <original_smiles>  (274) 
CC(=O)OC1CC(C)C23C=COC4(O)OC25C(F)CC2C(O)C12OC5(O)C(C)(CCC3C)C1C(O)c2c(O)cccc2C(=O)C14

>  <smiles>  (274) 
[H]Oc1c([H])c([H])c([H])c2c1C([H])(O[H])C1([H])C([H])(C2=O)C2(O[H])OC([H])=C([H])C34C([H])(C([H])([H])[H])C([H])([H])C([H])([H])C1(C([H])([H])[H])C1(O[H])OC5(C([H])(OC(=O)C([H])([H])[H])C([H])([H])C3([H])C([H])([H])[H])C([H])(O[H])C5([H])C([H])([H])C([H])(F)C14O2

$$$$
69:0:1
     RDKit          3D

 84 91  0  0  1  0  0  0  0  0999 V2000
    6.3187  -11.1027    2.3856 C   0  0  0  0  0  0  0  0  0  0  0  0
    6.0491   -9.6590    1.9527 C   0  0  0  0  0  0  0  0  0  0  0  0
    6.5782   -9.2183    0.9330 O   0  0  0  0  0  0  0  0  0  0  0  0
    5.2375   -8.8962    2.7358 O   0  0  0  0  0  0  0  0  0  0  0  0
    4.5063   -9.3958    3.8567 C   0  0  2  0  0  0  0  0  0  0  0  0
    3.1654  -10.2873    3.4728 C   0  0  0  0  0  0  0  0  0  0  0  0
    1.6411   -9.8279    3.0094 C   0  0  1  0  0  0  0  0  0  0  0  0
    0.6999  -11.0473    2.9060 C   0  0  0  0  0  0  0  0  0  0  0  0
    0.8856   -8.4236    3.4674 C   0  0  2  0  0  0  0  0  0  0  0  0
    0.4537   -7.9235    2.0771 C   0  0  0  0  0  0  0  0  0  0  0  0
    0.8536   -6.9237    1.2977 C   0  0  0  0  0  0  0  0  0  0  0  0
    1.8614   -6.0936    1.6320 O   0  0  0  0  0  0  0  0  0  0  0  0
    2.9843   -6.6452    2.2033 C   0  0  2  0  0  0  0  0  0  0  0  0
    3.7220   -7.2693    1.1717 O   0  0  0  0  0  0  0  0  0  0  0  0
    2.8292   -7.7008    3.1826 O   0  0  0  0  0  0  0  0  0  0  0  0
    2.0255   -7.9319    4.4222 C   0  0  2  0  0  0  0  0  0  0  0  0
    1.9727   -9.0535    5.7011 C   0  0  1  0  0  0  0  0  0  0  0  0
    1.4275  -10.2548    5.5370 F   0  0  0  0  0  0  0  0  0  0  0  0
    3.0670   -9.2721    6.8127 C   0  0  0  0  0  0  0  0  0  0  0  0
    4.4466   -9.2730    6.2896 C   0  0  2  0  0  0  0  0  0  0  0  0
    5.5131   -8.2360    6.2463 C   0  0  1  0  0  0  0  0  0  0  0  0
    6.8214   -8.7328    5.9968 O   0  0  0  0  0  0  0  0  0  0  0  0
    4.5383   -8.3422    5.0821 C   0  0  1  0  0  0  0  0  0  0  0  0
    3.8989   -6.9390    5.1227 O   0  0  0  0  0  0  0  0  0  0  0  0
    2.4612   -6.6852    5.2190 C   0  0  2  0  0  0  0  0  0  0  0  0
    2.1159   -6.6916    6.5951 O   0  0  0  0  0  0  0  0  0  0  0  0
    1.9027   -5.2983    4.7287 C   0  0  2  0  0  0  0  0  0  0  0  0
    1.6251   -4.3029    5.9190 C   0  0  0  0  0  0  0  0  0  0  0  0
    0.4124   -5.5569    4.2158 C   0  0  0  0  0  0  0  0  0  0  0  0
   -0.4944   -6.7132    4.8239 C   0  0  0  0  0  0  0  0  0  0  0  0
   -0.4276   -8.2102    4.2959 C   0  0  1  0  0  0  0  0  0  0  0  0
   -1.7635   -8.6340    3.6299 C   0  0  0  0  0  0  0  0  0  0  0  0
    2.9318   -4.5817    3.7479 C   0  0  1  0  0  0  0  0  0  0  0  0
    3.9087   -3.5497    4.4157 C   0  0  1  0  0  0  0  0  0  0  0  0
    4.8259   -4.2207    5.2584 O   0  0  0  0  0  0  0  0  0  0  0  0
    4.6414   -2.6826    3.4023 C   0  0  0  0  0  0  0  0  0  0  0  0
    5.1170   -1.3982    3.7761 C   0  0  0  0  0  0  0  0  0  0  0  0
    4.9493   -0.9090    5.0371 O   0  0  0  0  0  0  0  0  0  0  0  0
    5.8102   -0.6045    2.8423 C   0  0  0  0  0  0  0  0  0  0  0  0
    6.0110   -1.0624    1.5304 C   0  0  0  0  0  0  0  0  0  0  0  0
    5.5308   -2.3242    1.1508 C   0  0  0  0  0  0  0  0  0  0  0  0
    4.8472   -3.1431    2.0860 C   0  0  0  0  0  0  0  0  0  0  0  0
    4.3539   -4.4705    1.6477 C   0  0  0  0  0  0  0  0  0  0  0  0
    4.3962   -4.7957    0.4647 O   0  0  0  0  0  0  0  0  0  0  0  0
    3.7896   -5.4268    2.7468 C   0  0  2  0  0  0  0  0  0  0  0  0
    6.7646  -11.1213    3.3838 H   0  0  0  0  0  0  0  0  0  0  0  0
    7.0056  -11.5977    1.7027 H   0  0  0  0  0  0  0  0  0  0  0  0
    5.3999  -11.6901    2.3964 H   0  0  0  0  0  0  0  0  0  0  0  0
    5.1700  -10.1607    4.2388 H   0  0  0  0  0  0  0  0  0  0  0  0
    3.4592  -10.9316    2.6488 H   0  0  0  0  0  0  0  0  0  0  0  0
    3.0925  -11.0214    4.2730 H   0  0  0  0  0  0  0  0  0  0  0  0
    1.8891   -9.6772    1.9581 H   0  0  0  0  0  0  0  0  0  0  0  0
    0.2096  -11.3041    3.8469 H   0  0  0  0  0  0  0  0  0  0  0  0
    1.2492  -11.9408    2.6000 H   0  0  0  0  0  0  0  0  0  0  0  0
   -0.0737  -10.8884    2.1492 H   0  0  0  0  0  0  0  0  0  0  0  0
   -0.2960   -8.5566    1.6293 H   0  0  0  0  0  0  0  0  0  0  0  0
    0.4554   -6.7246    0.3194 H   0  0  0  0  0  0  0  0  0  0  0  0
    4.5521   -7.5303    1.5257 H   0  0  0  0  0  0  0  0  0  0  0  0
    1.1546   -8.7355    6.3371 H   0  0  0  0  0  0  0  0  0  0  0  0
    3.0373   -8.5912    7.6616 H   0  0  0  0  0  0  0  0  0  0  0  0
    2.8980  -10.2469    7.2803 H   0  0  0  0  0  0  0  0  0  0  0  0
    4.8320  -10.2899    6.2244 H   0  0  0  0  0  0  0  0  0  0  0  0
    5.4640   -7.4408    6.9821 H   0  0  0  0  0  0  0  0  0  0  0  0
    6.7963   -9.4127    5.3444 H   0  0  0  0  0  0  0  0  0  0  0  0
    2.4212   -7.4972    6.9584 H   0  0  0  0  0  0  0  0  0  0  0  0
    1.3122   -3.3293    5.5456 H   0  0  0  0  0  0  0  0  0  0  0  0
    2.4833   -4.1526    6.5754 H   0  0  0  0  0  0  0  0  0  0  0  0
    0.8044   -4.6292    6.5602 H   0  0  0  0  0  0  0  0  0  0  0  0
   -0.1484   -4.6569    4.4454 H   0  0  0  0  0  0  0  0  0  0  0  0
    0.3109   -5.4950    3.1545 H   0  0  0  0  0  0  0  0  0  0  0  0
   -0.3677   -6.7238    5.9044 H   0  0  0  0  0  0  0  0  0  0  0  0
   -1.5275   -6.3912    4.6995 H   0  0  0  0  0  0  0  0  0  0  0  0
   -0.4642   -8.8697    5.1541 H   0  0  0  0  0  0  0  0  0  0  0  0
   -2.0891   -7.9799    2.8154 H   0  0  0  0  0  0  0  0  0  0  0  0
   -2.5530   -8.6494    4.3663 H   0  0  0  0  0  0  0  0  0  0  0  0
   -1.7094   -9.6566    3.2496 H   0  0  0  0  0  0  0  0  0  0  0  0
    2.2734   -3.9622    3.1424 H   0  0  0  0  0  0  0  0  0  0  0  0
    3.3706   -2.8297    5.0230 H   0  0  0  0  0  0  0  0  0  0  0  0
    5.3228   -4.8346    4.7384 H   0  0  0  0  0  0  0  0  0  0  0  0
    5.3024   -0.0402    5.1571 H   0  0  0  0  0  0  0  0  0  0  0  0
    6.1858    0.3674    3.1418 H   0  0  0  0  0  0  0  0  0  0  0  0
    6.5408   -0.4393    0.8255 H   0  0  0  0  0  0  0  0  0  0  0  0
    5.7013   -2.6629    0.1382 H   0  0  0  0  0  0  0  0  0  0  0  0
    4.6669   -5.8329    3.2467 H   0  0  0  0  0  0  0  0  0  0  0  0
  1  2  1  0
  1 46  1  0
  1 47  1  0
  1 48  1  0
  2  3  2  0
  2  4  1  0
  4  5  1  0
  5 23  1  0
  5  6  1  0
  5 49  1  1
  6  7  1  0
  6 50  1  0
  6 51  1  0
  7  8  1  0
  7  9  1  0
  7 52  1  6
  8 53  1  0
  8 54  1  0
  8 55  1  0
  9 16  1  0
  9 31  1  0
  9 10  1  6
 10 11  2  0
 10 56  1  0
 11 12  1  0
 11 57  1  0
 12 13  1  0
 13 45  1  0
 13 14  1  6
 13 15  1  0
 14 58  1  0
 16 15  1  6
 16 25  1  0
 16 17  1  0
 17 18  1  0
 17 19  1  0
 17 59  1  1
 19 20  1  0
 19 60  1  0
 19 61  1  0
 20 23  1  0
 20 21  1  0
 20 62  1  6
 21 22  1  0
 21 23  1  0
 21 63  1  1
 22 64  1  0
 23 24  1  6
 24 25  1  0
 25 26  1  1
 25 27  1  0
 26 65  1  0
 27 28  1  1
 27 29  1  0
 27 33  1  0
 28 66  1  0
 28 67  1  0
 28 68  1  0
 29 30  1  0
 29 69  1  0
 29 70  1  0
 30 31  1  0
 30 71  1  0
 30 72  1  0
 31 32  1  0
 31 73  1  1
 32 74  1  0
 32 75  1  0
 32 76  1  0
 33 45  1  0
 33 34  1  0
 33 77  1  6
 34 35  1  0
 34 36  1  0
 34 78  1  1
 35 79  1  0
 36 42  2  0
 36 37  1  0
 37 38  1  0
 37 39  2  0
 38 80  1  0
 39 40  1  0
 39 81  1  0
 40 41  2  0
 40 82  1  0
 41 42  1  0
 41 83  1  0
 42 43  1  0
 43 44  2  0
 43 45  1  0
 45 84  1  1
M  END
>  <i_m_ct_stereo_status>  (275) 
1

>  <s_m_source_file>  (275) 
/var/tmp/pbs.5076255.sched01/tmpwmgilt76/96rd2vfdyj.sdf

>  <i_m_source_file_index>  (275) 
21

>  <i_lp_mmshare_version>  (275) 
48012

>  <i_f3d_flags>  (275) 
0

>  <s_epik_input>  (275) 
W0NIM11DKD1PKU9bQ0BIXShbQ0gyXVtDQEhdMVtDSDNdKVtDQF0yKFtDQEhdKFtDSDJdW0NAQEhdM0YpW0NASF0yW09IXSlPW0NAQF0oW0NAXTM0W0NAXTE1NikoW09IXSlbQ0BdKFtDSDNdKShbQ0gyXVtDSDJdW0NASF02W0NIM10pW0NAQEhdN1tDQEBIXShbQ0BdKE80KShbT0hdKU9bQ0hdPVtDSF01KUMoPU8pYzhjKFtDQEBIXTdbT0hdKWMoW09IXSlbY0hdW2NIXVtjSF04

>  <s_epik_cmdline>  (275) 
J2VwaWtfcHl0aG9uJywgJy1waHQnLCAnMi4wJywgJy1waCcsICc3LjAnLCAnLXRuJywgJzgnLCAnLW1hJywgJzIwMCcsICctaW1hZScsICc8aW5maWxlLm1hZT4nLCAnLW9tYWUnLCAnPG91dGZpbGUubWFlPic=

>  <r_epik_Ionization_Penalty>  (275) 
0.0217896

>  <r_epik_Ionization_Penalty_Charging>  (275) 
0

>  <r_epik_Ionization_Penalty_Neutral>  (275) 
0.0217896

>  <r_epik_State_Penalty>  (275) 
0.0143146

>  <r_epik_Charging_Adjusted_Penalty>  (275) 
0.0143146

>  <i_epik_Tot_Q>  (275) 
0

>  <i_epik_Tot_abs_Q>  (275) 
0

>  <s_epik_Chemistry_Notes>  (275) 
This compound has an ester and may undergo hydrolysis at high or low pH.

>  <s_lp_Force_Field>  (275) 
OPLS3e

>  <r_lp_Energy>  (275) 
338.512

>  <b_lp_Chiralities_Consistent>  (275) 
1

>  <s_lp_Variant>  (275) 
69:0-1

>  <s_i_glide_gridfile>  (275) 
pfpi4k_grid

>  <i_i_glide_lignum>  (275) 
21

>  <i_i_glide_rotatable_bonds>  (275) 
7

>  <r_i_docking_score>  (275) 
-3.20778

>  <r_i_glide_ligand_efficiency>  (275) 
-0.0712839

>  <r_i_glide_ligand_efficiency_sa>  (275) 
-0.253549

>  <r_i_glide_ligand_efficiency_ln>  (275) 
-0.667361

>  <r_i_glide_gscore>  (275) 
-3.20778

>  <r_i_glide_lipo>  (275) 
-0.580707

>  <r_i_glide_hbond>  (275) 
0

>  <r_i_glide_metal>  (275) 
-0

>  <r_i_glide_rewards>  (275) 
-0.528581

>  <r_i_glide_evdw>  (275) 
-37.0658

>  <r_i_glide_ecoul>  (275) 
-1.40337

>  <r_i_glide_erotb>  (275) 
0.0531695

>  <r_i_glide_esite>  (275) 
-0.08786

>  <r_i_glide_emodel>  (275) 
-46.6473

>  <r_i_glide_energy>  (275) 
-38.4692

>  <r_i_glide_einternal>  (275) 
8.33895

>  <r_i_glide_intrahb_reward>  (275) 
-0.5

>  <i_i_glide_confnum>  (275) 
2

>  <i_i_glide_posenum>  (275) 
6

>  <r_i_glide_eff_state_penalty>  (275) 
0

>  <ligand_id>  (275) 
69

>  <original_smiles>  (275) 
CC(=O)OC1CC(C)C23C=COC4(O)OC25C(F)CC2C(O)C12OC5(O)C(C)(CCC3C)C1C(O)c2c(O)cccc2C(=O)C14

>  <smiles>  (275) 
[H]Oc1c([H])c([H])c([H])c2c1C([H])(O[H])C1([H])C([H])(C2=O)C2(O[H])OC([H])=C([H])C34C([H])(C([H])([H])[H])C([H])([H])C([H])([H])C1(C([H])([H])[H])C1(O[H])OC5(C([H])(OC(=O)C([H])([H])[H])C([H])([H])C3([H])C([H])([H])[H])C([H])(O[H])C5([H])C([H])([H])C([H])(F)C14O2

$$$$
69:0:2
     RDKit          3D

 84 91  0  0  1  0  0  0  0  0999 V2000
    7.0645   -8.4664    1.2706 C   0  0  0  0  0  0  0  0  0  0  0  0
    6.7822   -8.7808    2.7320 C   0  0  0  0  0  0  0  0  0  0  0  0
    7.7067   -8.8359    3.5329 O   0  0  0  0  0  0  0  0  0  0  0  0
    5.4765   -8.9777    2.9527 O   0  0  0  0  0  0  0  0  0  0  0  0
    4.9192   -9.1613    4.2486 C   0  0  2  0  0  0  0  0  0  0  0  0
    3.5536  -10.1107    4.2104 C   0  0  0  0  0  0  0  0  0  0  0  0
    1.9903   -9.7785    3.7089 C   0  0  1  0  0  0  0  0  0  0  0  0
    1.0235  -10.9549    3.9896 C   0  0  0  0  0  0  0  0  0  0  0  0
    1.2538   -8.2816    3.7861 C   0  0  2  0  0  0  0  0  0  0  0  0
    0.7490   -8.1864    2.3291 C   0  0  0  0  0  0  0  0  0  0  0  0
    1.1050   -7.4272    1.2967 C   0  0  0  0  0  0  0  0  0  0  0  0
    2.1260   -6.5571    1.3514 O   0  0  0  0  0  0  0  0  0  0  0  0
    3.2833   -6.9654    1.9835 C   0  0  2  0  0  0  0  0  0  0  0  0
    3.9234   -7.8634    1.1145 O   0  0  0  0  0  0  0  0  0  0  0  0
    3.1855   -7.7020    3.2237 O   0  0  0  0  0  0  0  0  0  0  0  0
    2.4430   -7.5631    4.5112 C   0  0  2  0  0  0  0  0  0  0  0  0
    2.4414   -8.2775    6.0532 C   0  0  1  0  0  0  0  0  0  0  0  0
    1.8761   -9.4639    6.2606 F   0  0  0  0  0  0  0  0  0  0  0  0
    3.5810   -8.1979    7.1347 C   0  0  0  0  0  0  0  0  0  0  0  0
    4.9254   -8.3831    6.5653 C   0  0  2  0  0  0  0  0  0  0  0  0
    5.9960   -7.4118    6.2425 C   0  0  1  0  0  0  0  0  0  0  0  0
    7.2662   -8.0157    6.1337 O   0  0  0  0  0  0  0  0  0  0  0  0
    5.0047   -7.8147    5.1514 C   0  0  1  0  0  0  0  0  0  0  0  0
    4.3640   -6.4530    4.8183 O   0  0  0  0  0  0  0  0  0  0  0  0
    2.9335   -6.1524    4.9051 C   0  0  2  0  0  0  0  0  0  0  0  0
    2.6619   -5.7545    6.2334 O   0  0  0  0  0  0  0  0  0  0  0  0
    2.3595   -4.9406    4.0691 C   0  0  2  0  0  0  0  0  0  0  0  0
    2.1461   -3.6439    4.9436 C   0  0  0  0  0  0  0  0  0  0  0  0
    0.8415   -5.2970    3.7233 C   0  0  0  0  0  0  0  0  0  0  0  0
   -0.0336   -6.2139    4.6776 C   0  0  0  0  0  0  0  0  0  0  0  0
   -0.0141   -7.7989    4.5801 C   0  0  1  0  0  0  0  0  0  0  0  0
   -1.3874   -8.3289    4.1100 C   0  0  0  0  0  0  0  0  0  0  0  0
    3.3355   -4.5478    2.8766 C   0  0  1  0  0  0  0  0  0  0  0  0
    4.3558   -3.3937    3.1821 C   0  0  1  0  0  0  0  0  0  0  0  0
    5.3096   -3.8528    4.1223 O   0  0  0  0  0  0  0  0  0  0  0  0
    5.0436   -2.8631    1.9352 C   0  0  0  0  0  0  0  0  0  0  0  0
    5.5763   -1.5471    1.9088 C   0  0  0  0  0  0  0  0  0  0  0  0
    5.4927   -0.7270    2.9976 O   0  0  0  0  0  0  0  0  0  0  0  0
    6.2133   -1.0670    0.7503 C   0  0  0  0  0  0  0  0  0  0  0  0
    6.3172   -1.8833   -0.3838 C   0  0  0  0  0  0  0  0  0  0  0  0
    5.8131   -3.1890   -0.3601 C   0  0  0  0  0  0  0  0  0  0  0  0
    5.1781   -3.6889    0.7986 C   0  0  0  0  0  0  0  0  0  0  0  0
    4.6518   -5.0726    0.7791 C   0  0  0  0  0  0  0  0  0  0  0  0
    4.6367   -5.7183   -0.2636 O   0  0  0  0  0  0  0  0  0  0  0  0
    4.1288   -5.6667    2.1245 C   0  0  2  0  0  0  0  0  0  0  0  0
    6.8030   -9.3234    0.6560 H   0  0  0  0  0  0  0  0  0  0  0  0
    8.1303   -8.2572    1.1418 H   0  0  0  0  0  0  0  0  0  0  0  0
    6.5133   -7.5886    0.9387 H   0  0  0  0  0  0  0  0  0  0  0  0
    5.6431   -9.8499    4.6920 H   0  0  0  0  0  0  0  0  0  0  0  0
    3.8393  -10.9674    3.5966 H   0  0  0  0  0  0  0  0  0  0  0  0
    3.4960  -10.5885    5.1881 H   0  0  0  0  0  0  0  0  0  0  0  0
    2.1754   -9.9271    2.6430 H   0  0  0  0  0  0  0  0  0  0  0  0
    0.5756  -10.9276    4.9866 H   0  0  0  0  0  0  0  0  0  0  0  0
    1.5384  -11.9148    3.8988 H   0  0  0  0  0  0  0  0  0  0  0  0
    0.2032  -10.9778    3.2677 H   0  0  0  0  0  0  0  0  0  0  0  0
   -0.0268   -8.8987    2.1009 H   0  0  0  0  0  0  0  0  0  0  0  0
    0.6431   -7.4815    0.3224 H   0  0  0  0  0  0  0  0  0  0  0  0
    4.7282   -8.1284    1.5430 H   0  0  0  0  0  0  0  0  0  0  0  0
    1.6592   -7.7632    6.6032 H   0  0  0  0  0  0  0  0  0  0  0  0
    3.6008   -7.2998    7.7541 H   0  0  0  0  0  0  0  0  0  0  0  0
    3.4281   -8.9958    7.8642 H   0  0  0  0  0  0  0  0  0  0  0  0
    5.2954   -9.3944    6.7372 H   0  0  0  0  0  0  0  0  0  0  0  0
    5.9743   -6.4204    6.6961 H   0  0  0  0  0  0  0  0  0  0  0  0
    7.5518   -8.2990    6.9877 H   0  0  0  0  0  0  0  0  0  0  0  0
    2.9643   -6.4435    6.8011 H   0  0  0  0  0  0  0  0  0  0  0  0
    1.8232   -2.8077    4.3259 H   0  0  0  0  0  0  0  0  0  0  0  0
    3.0338   -3.3308    5.4926 H   0  0  0  0  0  0  0  0  0  0  0  0
    1.3536   -3.7559    5.6853 H   0  0  0  0  0  0  0  0  0  0  0  0
    0.3022   -4.3558    3.7168 H   0  0  0  0  0  0  0  0  0  0  0  0
    0.6677   -5.5255    2.6953 H   0  0  0  0  0  0  0  0  0  0  0  0
    0.1402   -5.9213    5.7125 H   0  0  0  0  0  0  0  0  0  0  0  0
   -1.0653   -5.9176    4.5134 H   0  0  0  0  0  0  0  0  0  0  0  0
   -0.0221   -8.1898    5.5914 H   0  0  0  0  0  0  0  0  0  0  0  0
   -1.7402   -7.9223    3.1593 H   0  0  0  0  0  0  0  0  0  0  0  0
   -2.1484   -8.1073    4.8577 H   0  0  0  0  0  0  0  0  0  0  0  0
   -1.3547   -9.4132    4.0239 H   0  0  0  0  0  0  0  0  0  0  0  0
    2.6489   -4.1123    2.1525 H   0  0  0  0  0  0  0  0  0  0  0  0
    3.8574   -2.5185    3.5910 H   0  0  0  0  0  0  0  0  0  0  0  0
    4.8453   -4.1876    4.8777 H   0  0  0  0  0  0  0  0  0  0  0  0
    6.0431    0.0376    2.9329 H   0  0  0  0  0  0  0  0  0  0  0  0
    6.5933   -0.0553    0.7173 H   0  0  0  0  0  0  0  0  0  0  0  0
    6.7827   -1.5147   -1.2786 H   0  0  0  0  0  0  0  0  0  0  0  0
    5.9220   -3.7934   -1.2490 H   0  0  0  0  0  0  0  0  0  0  0  0
    5.0326   -5.9289    2.6754 H   0  0  0  0  0  0  0  0  0  0  0  0
  1  2  1  0
  1 46  1  0
  1 47  1  0
  1 48  1  0
  2  3  2  0
  2  4  1  0
  4  5  1  0
  5 23  1  0
  5  6  1  0
  5 49  1  1
  6  7  1  0
  6 50  1  0
  6 51  1  0
  7  8  1  0
  7  9  1  0
  7 52  1  6
  8 53  1  0
  8 54  1  0
  8 55  1  0
  9 16  1  0
  9 31  1  0
  9 10  1  6
 10 11  2  0
 10 56  1  0
 11 12  1  0
 11 57  1  0
 12 13  1  0
 13 45  1  0
 13 14  1  6
 13 15  1  0
 14 58  1  0
 16 15  1  6
 16 25  1  0
 16 17  1  0
 17 18  1  0
 17 19  1  0
 17 59  1  1
 19 20  1  0
 19 60  1  0
 19 61  1  0
 20 23  1  0
 20 21  1  0
 20 62  1  6
 21 22  1  0
 21 23  1  0
 21 63  1  1
 22 64  1  0
 23 24  1  6
 24 25  1  0
 25 26  1  1
 25 27  1  0
 26 65  1  0
 27 28  1  1
 27 29  1  0
 27 33  1  0
 28 66  1  0
 28 67  1  0
 28 68  1  0
 29 30  1  0
 29 69  1  0
 29 70  1  0
 30 31  1  0
 30 71  1  0
 30 72  1  0
 31 32  1  0
 31 73  1  1
 32 74  1  0
 32 75  1  0
 32 76  1  0
 33 45  1  0
 33 34  1  0
 33 77  1  6
 34 35  1  0
 34 36  1  0
 34 78  1  1
 35 79  1  0
 36 42  2  0
 36 37  1  0
 37 38  1  0
 37 39  2  0
 38 80  1  0
 39 40  1  0
 39 81  1  0
 40 41  2  0
 40 82  1  0
 41 42  1  0
 41 83  1  0
 42 43  1  0
 43 44  2  0
 43 45  1  0
 45 84  1  1
M  END
>  <i_m_ct_stereo_status>  (276) 
1

>  <s_m_source_file>  (276) 
/var/tmp/pbs.5076255.sched01/tmpwmgilt76/96rd2vfdyj.sdf

>  <i_m_source_file_index>  (276) 
21

>  <i_lp_mmshare_version>  (276) 
48012

>  <i_f3d_flags>  (276) 
0

>  <s_epik_input>  (276) 
W0NIM11DKD1PKU9bQ0BIXShbQ0gyXVtDQEhdMVtDSDNdKVtDQF0yKFtDQEhdKFtDSDJdW0NAQEhdM0YpW0NASF0yW09IXSlPW0NAQF0oW0NAXTM0W0NAXTE1NikoW09IXSlbQ0BdKFtDSDNdKShbQ0gyXVtDSDJdW0NASF02W0NIM10pW0NAQEhdN1tDQEBIXShbQ0BdKE80KShbT0hdKU9bQ0hdPVtDSF01KUMoPU8pYzhjKFtDQEBIXTdbT0hdKWMoW09IXSlbY0hdW2NIXVtjSF04

>  <s_epik_cmdline>  (276) 
J2VwaWtfcHl0aG9uJywgJy1waHQnLCAnMi4wJywgJy1waCcsICc3LjAnLCAnLXRuJywgJzgnLCAnLW1hJywgJzIwMCcsICctaW1hZScsICc8aW5maWxlLm1hZT4nLCAnLW9tYWUnLCAnPG91dGZpbGUubWFlPic=

>  <r_epik_Ionization_Penalty>  (276) 
0.0217896

>  <r_epik_Ionization_Penalty_Charging>  (276) 
0

>  <r_epik_Ionization_Penalty_Neutral>  (276) 
0.0217896

>  <r_epik_State_Penalty>  (276) 
0.0143146

>  <r_epik_Charging_Adjusted_Penalty>  (276) 
0.0143146

>  <i_epik_Tot_Q>  (276) 
0

>  <i_epik_Tot_abs_Q>  (276) 
0

>  <s_epik_Chemistry_Notes>  (276) 
This compound has an ester and may undergo hydrolysis at high or low pH.

>  <s_lp_Force_Field>  (276) 
OPLS3e

>  <r_lp_Energy>  (276) 
338.512

>  <b_lp_Chiralities_Consistent>  (276) 
1

>  <s_lp_Variant>  (276) 
69:0-1

>  <s_i_glide_gridfile>  (276) 
pfpi4k_grid

>  <i_i_glide_lignum>  (276) 
21

>  <i_i_glide_rotatable_bonds>  (276) 
7

>  <r_i_docking_score>  (276) 
-2.92069

>  <r_i_glide_ligand_efficiency>  (276) 
-0.0649042

>  <r_i_glide_ligand_efficiency_sa>  (276) 
-0.230857

>  <r_i_glide_ligand_efficiency_ln>  (276) 
-0.607634

>  <r_i_glide_gscore>  (276) 
-2.92069

>  <r_i_glide_lipo>  (276) 
-0.626255

>  <r_i_glide_hbond>  (276) 
0

>  <r_i_glide_metal>  (276) 
-0

>  <r_i_glide_rewards>  (276) 
-0.676517

>  <r_i_glide_evdw>  (276) 
-35.2472

>  <r_i_glide_ecoul>  (276) 
1.00755

>  <r_i_glide_erotb>  (276) 
0.0531695

>  <r_i_glide_esite>  (276) 
-0.0598618

>  <r_i_glide_emodel>  (276) 
-43.784

>  <r_i_glide_energy>  (276) 
-34.2396

>  <r_i_glide_einternal>  (276) 
4.02492

>  <r_i_glide_intrahb_reward>  (276) 
-0.5

>  <i_i_glide_confnum>  (276) 
1

>  <i_i_glide_posenum>  (276) 
10

>  <r_i_glide_eff_state_penalty>  (276) 
0

>  <ligand_id>  (276) 
69

>  <original_smiles>  (276) 
CC(=O)OC1CC(C)C23C=COC4(O)OC25C(F)CC2C(O)C12OC5(O)C(C)(CCC3C)C1C(O)c2c(O)cccc2C(=O)C14

>  <smiles>  (276) 
[H]Oc1c([H])c([H])c([H])c2c1C([H])(O[H])C1([H])C([H])(C2=O)C2(O[H])OC([H])=C([H])C34C([H])(C([H])([H])[H])C([H])([H])C([H])([H])C1(C([H])([H])[H])C1(O[H])OC5(C([H])(OC(=O)C([H])([H])[H])C([H])([H])C3([H])C([H])([H])[H])C([H])(O[H])C5([H])C([H])([H])C([H])(F)C14O2

$$$$
70:0:0
     RDKit          3D

 16 16  0  0  1  0  0  0  0  0999 V2000
    0.5603   -2.8390    4.4374 C   0  0  0  0  0  0  0  0  0  0  0  0
   -0.2199   -1.6133    4.7511 C   0  0  0  0  0  0  0  0  0  0  0  0
   -1.2395   -1.6208    5.6212 N   0  0  0  0  0  0  0  0  0  0  0  0
   -1.8265   -0.3730    5.7382 N   0  0  0  0  0  0  0  0  0  0  0  0
   -1.2557    0.5387    4.9421 C   0  0  0  0  0  0  0  0  0  0  0  0
   -1.7229    2.2267    4.9940 S   0  0  0  0  0  0  0  0  0  0  0  0
   -1.8326    2.6037    3.2206 C   0  0  0  0  0  0  0  0  0  0  0  0
   -2.6553    3.8455    2.8901 C   0  0  0  0  0  0  0  0  0  0  0  0
   -2.1937    4.9406    3.2777 O   0  0  0  0  0  0  0  0  0  0  0  0
   -3.7586    3.6664    2.3549 O   0  0  0  0  0  0  0  0  0  0  0  0
    0.1061   -0.0525    3.9980 S   0  0  0  0  0  0  0  0  0  0  0  0
    0.1744   -3.6854    5.0040 H   0  0  0  0  0  0  0  0  0  0  0  0
    1.6082   -2.6905    4.6953 H   0  0  0  0  0  0  0  0  0  0  0  0
    0.4828   -3.0623    3.3737 H   0  0  0  0  0  0  0  0  0  0  0  0
   -0.8405    2.7629    2.8301 H   0  0  0  0  0  0  0  0  0  0  0  0
   -2.2283    1.7555    2.6581 H   0  0  0  0  0  0  0  0  0  0  0  0
  1  2  1  0
  1 12  1  0
  1 13  1  0
  1 14  1  0
  2 11  1  0
  2  3  2  0
  3  4  1  0
  4  5  2  0
  5  6  1  0
  5 11  1  0
  6  7  1  0
  7  8  1  0
  7 15  1  0
  7 16  1  0
  8  9  2  0
  8 10  1  0
M  CHG  1  10  -1
M  END
>  <i_m_ct_stereo_status>  (277) 
1

>  <s_m_source_file>  (277) 
/var/tmp/pbs.5076255.sched01/tmpwmgilt76/96rd2vfdyj.sdf

>  <i_m_source_file_index>  (277) 
23

>  <i_lp_mmshare_version>  (277) 
48012

>  <i_f3d_flags>  (277) 
0

>  <s_epik_input>  (277) 
W0NIM11jMW5uYyhzMSlTW0NIMl1DKD1PKVtPSF0=

>  <s_epik_cmdline>  (277) 
J2VwaWtfcHl0aG9uJywgJy1waHQnLCAnMi4wJywgJy1waCcsICc3LjAnLCAnLXRuJywgJzgnLCAnLW1hJywgJzIwMCcsICctaW1hZScsICc8aW5maWxlLm1hZT4nLCAnLW9tYWUnLCAnPG91dGZpbGUubWFlPic=

>  <r_lp_tautomer_probability>  (277) 
1

>  <r_epik_Ionization_Penalty>  (277) 
0.000137192

>  <r_epik_Ionization_Penalty_Charging>  (277) 
0.000136561

>  <r_epik_Ionization_Penalty_Neutral>  (277) 
6.30552e-07

>  <r_epik_State_Penalty>  (277) 
-0

>  <r_epik_Charging_Adjusted_Penalty>  (277) 
0.000136561

>  <i_epik_Tot_Q>  (277) 
-1

>  <i_epik_Tot_abs_Q>  (277) 
1

>  <s_lp_Force_Field>  (277) 
OPLS3e

>  <r_lp_Energy>  (277) 
9.99961

>  <b_lp_Chiralities_Consistent>  (277) 
1

>  <s_lp_Variant>  (277) 
70:0-1

>  <s_i_glide_gridfile>  (277) 
pfpi4k_grid

>  <i_i_glide_lignum>  (277) 
23

>  <i_i_glide_rotatable_bonds>  (277) 
3

>  <r_i_docking_score>  (277) 
-3.70318

>  <r_i_glide_ligand_efficiency>  (277) 
-0.336653

>  <r_i_glide_ligand_efficiency_sa>  (277) 
-0.748709

>  <r_i_glide_ligand_efficiency_ln>  (277) 
-1.08984

>  <r_i_glide_gscore>  (277) 
-3.70318

>  <r_i_glide_lipo>  (277) 
-0.033815

>  <r_i_glide_hbond>  (277) 
-0.199723

>  <r_i_glide_metal>  (277) 
-0

>  <r_i_glide_rewards>  (277) 
-2.11884

>  <r_i_glide_evdw>  (277) 
-13.3554

>  <r_i_glide_ecoul>  (277) 
-9.10392

>  <r_i_glide_erotb>  (277) 
0.89523

>  <r_i_glide_esite>  (277) 
-0.212679

>  <r_i_glide_emodel>  (277) 
-30.1368

>  <r_i_glide_energy>  (277) 
-22.4593

>  <r_i_glide_einternal>  (277) 
1.11318

>  <r_i_glide_intrahb_reward>  (277) 
-0

>  <i_i_glide_confnum>  (277) 
1

>  <i_i_glide_posenum>  (277) 
4

>  <r_i_glide_eff_state_penalty>  (277) 
0

>  <ligand_id>  (277) 
70

>  <original_smiles>  (277) 
Cc1nnc(SCC(=O)O)s1

>  <smiles>  (277) 
[H]C([H])(Sc1nnc(C([H])([H])[H])s1)C(=O)[O-]

$$$$
70:0:1
     RDKit          3D

 16 16  0  0  1  0  0  0  0  0999 V2000
    3.3031    0.0495   -4.5396 C   0  0  0  0  0  0  0  0  0  0  0  0
    3.6764   -1.1727   -3.7601 C   0  0  0  0  0  0  0  0  0  0  0  0
    3.7261   -2.3736   -4.3210 N   0  0  0  0  0  0  0  0  0  0  0  0
    4.2075   -3.3301   -3.4666 N   0  0  0  0  0  0  0  0  0  0  0  0
    4.3899   -2.8648   -2.2340 C   0  0  0  0  0  0  0  0  0  0  0  0
    4.9413   -3.9061   -0.9418 S   0  0  0  0  0  0  0  0  0  0  0  0
    4.9641   -2.7719    0.4692 C   0  0  0  0  0  0  0  0  0  0  0  0
    6.0573   -1.7022    0.5325 C   0  0  0  0  0  0  0  0  0  0  0  0
    6.1382   -1.0624    1.6019 O   0  0  0  0  0  0  0  0  0  0  0  0
    6.7885   -1.5235   -0.4695 O   0  0  0  0  0  0  0  0  0  0  0  0
    4.0720   -1.1584   -2.0644 S   0  0  0  0  0  0  0  0  0  0  0  0
    3.0353   -0.1948   -5.5721 H   0  0  0  0  0  0  0  0  0  0  0  0
    4.1264    0.7600   -4.5458 H   0  0  0  0  0  0  0  0  0  0  0  0
    2.4529    0.5174   -4.0576 H   0  0  0  0  0  0  0  0  0  0  0  0
    3.9828   -2.3035    0.5261 H   0  0  0  0  0  0  0  0  0  0  0  0
    5.0743   -3.3898    1.3681 H   0  0  0  0  0  0  0  0  0  0  0  0
  1  2  1  0
  1 12  1  0
  1 13  1  0
  1 14  1  0
  2 11  1  0
  2  3  2  0
  3  4  1  0
  4  5  2  0
  5  6  1  0
  5 11  1  0
  6  7  1  0
  7  8  1  0
  7 15  1  0
  7 16  1  0
  8  9  2  0
  8 10  1  0
M  CHG  1  10  -1
M  END
>  <i_m_ct_stereo_status>  (278) 
1

>  <s_m_source_file>  (278) 
/var/tmp/pbs.5076255.sched01/tmpwmgilt76/96rd2vfdyj.sdf

>  <i_m_source_file_index>  (278) 
23

>  <i_lp_mmshare_version>  (278) 
48012

>  <i_f3d_flags>  (278) 
0

>  <s_epik_input>  (278) 
W0NIM11jMW5uYyhzMSlTW0NIMl1DKD1PKVtPSF0=

>  <s_epik_cmdline>  (278) 
J2VwaWtfcHl0aG9uJywgJy1waHQnLCAnMi4wJywgJy1waCcsICc3LjAnLCAnLXRuJywgJzgnLCAnLW1hJywgJzIwMCcsICctaW1hZScsICc8aW5maWxlLm1hZT4nLCAnLW9tYWUnLCAnPG91dGZpbGUubWFlPic=

>  <r_lp_tautomer_probability>  (278) 
1

>  <r_epik_Ionization_Penalty>  (278) 
0.000137192

>  <r_epik_Ionization_Penalty_Charging>  (278) 
0.000136561

>  <r_epik_Ionization_Penalty_Neutral>  (278) 
6.30552e-07

>  <r_epik_State_Penalty>  (278) 
-0

>  <r_epik_Charging_Adjusted_Penalty>  (278) 
0.000136561

>  <i_epik_Tot_Q>  (278) 
-1

>  <i_epik_Tot_abs_Q>  (278) 
1

>  <s_lp_Force_Field>  (278) 
OPLS3e

>  <r_lp_Energy>  (278) 
9.99961

>  <b_lp_Chiralities_Consistent>  (278) 
1

>  <s_lp_Variant>  (278) 
70:0-1

>  <s_i_glide_gridfile>  (278) 
pfpi4k_grid

>  <i_i_glide_lignum>  (278) 
23

>  <i_i_glide_rotatable_bonds>  (278) 
3

>  <r_i_docking_score>  (278) 
-3.44937

>  <r_i_glide_ligand_efficiency>  (278) 
-0.313579

>  <r_i_glide_ligand_efficiency_sa>  (278) 
-0.697393

>  <r_i_glide_ligand_efficiency_ln>  (278) 
-1.01515

>  <r_i_glide_gscore>  (278) 
-3.44937

>  <r_i_glide_lipo>  (278) 
-0.396628

>  <r_i_glide_hbond>  (278) 
-0.162054

>  <r_i_glide_metal>  (278) 
-0

>  <r_i_glide_rewards>  (278) 
-2.25718

>  <r_i_glide_evdw>  (278) 
-20.2942

>  <r_i_glide_ecoul>  (278) 
-3.07746

>  <r_i_glide_erotb>  (278) 
0.89523

>  <r_i_glide_esite>  (278) 
-0.052401

>  <r_i_glide_emodel>  (278) 
-30.7663

>  <r_i_glide_energy>  (278) 
-23.3717

>  <r_i_glide_einternal>  (278) 
0.505868

>  <r_i_glide_intrahb_reward>  (278) 
-0

>  <i_i_glide_confnum>  (278) 
1

>  <i_i_glide_posenum>  (278) 
5

>  <r_i_glide_eff_state_penalty>  (278) 
0

>  <ligand_id>  (278) 
70

>  <original_smiles>  (278) 
Cc1nnc(SCC(=O)O)s1

>  <smiles>  (278) 
[H]C([H])(Sc1nnc(C([H])([H])[H])s1)C(=O)[O-]

$$$$
70:0:2
     RDKit          3D

 16 16  0  0  1  0  0  0  0  0999 V2000
   -0.1967  -10.1081    2.6866 C   0  0  0  0  0  0  0  0  0  0  0  0
   -0.3172   -8.8484    3.4604 C   0  0  0  0  0  0  0  0  0  0  0  0
   -1.4037   -8.0663    3.4047 N   0  0  0  0  0  0  0  0  0  0  0  0
   -1.2890   -6.9672    4.2392 N   0  0  0  0  0  0  0  0  0  0  0  0
   -0.1182   -6.9398    4.8865 C   0  0  0  0  0  0  0  0  0  0  0  0
    0.4258   -5.6629    5.9710 S   0  0  0  0  0  0  0  0  0  0  0  0
   -1.1056   -5.2911    6.8773 C   0  0  0  0  0  0  0  0  0  0  0  0
   -1.3010   -3.8559    7.3042 C   0  0  0  0  0  0  0  0  0  0  0  0
   -1.8204   -3.0650    6.4799 O   0  0  0  0  0  0  0  0  0  0  0  0
   -0.9845   -3.5435    8.4753 O   0  0  0  0  0  0  0  0  0  0  0  0
    0.9621   -8.2698    4.5072 S   0  0  0  0  0  0  0  0  0  0  0  0
   -1.1073  -10.2551    2.1103 H   0  0  0  0  0  0  0  0  0  0  0  0
   -0.0521  -10.9504    3.3652 H   0  0  0  0  0  0  0  0  0  0  0  0
    0.6507  -10.0505    2.0052 H   0  0  0  0  0  0  0  0  0  0  0  0
   -1.9896   -5.5503    6.2904 H   0  0  0  0  0  0  0  0  0  0  0  0
   -1.1345   -5.9147    7.7732 H   0  0  0  0  0  0  0  0  0  0  0  0
  1  2  1  0
  1 12  1  0
  1 13  1  0
  1 14  1  0
  2 11  1  0
  2  3  2  0
  3  4  1  0
  4  5  2  0
  5  6  1  0
  5 11  1  0
  6  7  1  0
  7  8  1  0
  7 15  1  0
  7 16  1  0
  8  9  2  0
  8 10  1  0
M  CHG  1  10  -1
M  END
>  <i_m_ct_stereo_status>  (279) 
1

>  <s_m_source_file>  (279) 
/var/tmp/pbs.5076255.sched01/tmpwmgilt76/96rd2vfdyj.sdf

>  <i_m_source_file_index>  (279) 
23

>  <i_lp_mmshare_version>  (279) 
48012

>  <i_f3d_flags>  (279) 
0

>  <s_epik_input>  (279) 
W0NIM11jMW5uYyhzMSlTW0NIMl1DKD1PKVtPSF0=

>  <s_epik_cmdline>  (279) 
J2VwaWtfcHl0aG9uJywgJy1waHQnLCAnMi4wJywgJy1waCcsICc3LjAnLCAnLXRuJywgJzgnLCAnLW1hJywgJzIwMCcsICctaW1hZScsICc8aW5maWxlLm1hZT4nLCAnLW9tYWUnLCAnPG91dGZpbGUubWFlPic=

>  <r_lp_tautomer_probability>  (279) 
1

>  <r_epik_Ionization_Penalty>  (279) 
0.000137192

>  <r_epik_Ionization_Penalty_Charging>  (279) 
0.000136561

>  <r_epik_Ionization_Penalty_Neutral>  (279) 
6.30552e-07

>  <r_epik_State_Penalty>  (279) 
-0

>  <r_epik_Charging_Adjusted_Penalty>  (279) 
0.000136561

>  <i_epik_Tot_Q>  (279) 
-1

>  <i_epik_Tot_abs_Q>  (279) 
1

>  <s_lp_Force_Field>  (279) 
OPLS3e

>  <r_lp_Energy>  (279) 
9.99961

>  <b_lp_Chiralities_Consistent>  (279) 
1

>  <s_lp_Variant>  (279) 
70:0-1

>  <s_i_glide_gridfile>  (279) 
pfpi4k_grid

>  <i_i_glide_lignum>  (279) 
23

>  <i_i_glide_rotatable_bonds>  (279) 
3

>  <r_i_docking_score>  (279) 
-3.06343

>  <r_i_glide_ligand_efficiency>  (279) 
-0.278493

>  <r_i_glide_ligand_efficiency_sa>  (279) 
-0.619363

>  <r_i_glide_ligand_efficiency_ln>  (279) 
-0.901566

>  <r_i_glide_gscore>  (279) 
-3.06343

>  <r_i_glide_lipo>  (279) 
-0.12278

>  <r_i_glide_hbond>  (279) 
-0.13903

>  <r_i_glide_metal>  (279) 
-0

>  <r_i_glide_rewards>  (279) 
-2.11884

>  <r_i_glide_evdw>  (279) 
-14.0313

>  <r_i_glide_ecoul>  (279) 
-4.81035

>  <r_i_glide_erotb>  (279) 
0.89523

>  <r_i_glide_esite>  (279) 
-0.15489

>  <r_i_glide_emodel>  (279) 
-25.0174

>  <r_i_glide_energy>  (279) 
-18.8417

>  <r_i_glide_einternal>  (279) 
1.43401

>  <r_i_glide_intrahb_reward>  (279) 
-0

>  <i_i_glide_confnum>  (279) 
2

>  <i_i_glide_posenum>  (279) 
19

>  <r_i_glide_eff_state_penalty>  (279) 
0

>  <ligand_id>  (279) 
70

>  <original_smiles>  (279) 
Cc1nnc(SCC(=O)O)s1

>  <smiles>  (279) 
[H]C([H])(Sc1nnc(C([H])([H])[H])s1)C(=O)[O-]

$$$$
71:0:0
     RDKit          3D

 73 77  0  0  1  0  0  0  0  0999 V2000
    4.8592   -9.9400    3.6530 C   0  0  0  0  0  0  0  0  0  0  0  0
    3.3385   -9.8734    3.8609 C   0  0  2  0  0  0  0  0  0  0  0  0
    2.8019  -11.2811    4.2092 C   0  0  0  0  0  0  0  0  0  0  0  0
    1.2999  -11.2547    4.5220 C   0  0  0  0  0  0  0  0  0  0  0  0
    0.5076  -10.6330    3.3680 C   0  0  0  0  0  0  0  0  0  0  0  0
    1.0662   -9.2716    3.0020 C   0  0  0  0  0  0  0  0  0  0  0  0
    0.3100   -8.1655    3.0010 C   0  0  0  0  0  0  0  0  0  0  0  0
    0.8066   -6.7915    2.6314 C   0  0  0  0  0  0  0  0  0  0  0  0
    2.3663   -6.6037    2.6222 C   0  0  1  0  0  0  0  0  0  0  0  0
    2.8184   -6.4130    4.0984 C   0  0  0  0  0  0  0  0  0  0  0  0
    3.0620   -7.8987    2.1652 C   0  0  0  0  0  0  0  0  0  0  0  0
    4.1209   -7.8677    1.3507 C   0  0  0  0  0  0  0  0  0  0  0  0
    4.8409   -6.6248    0.8930 C   0  0  0  0  0  0  0  0  0  0  0  0
    4.3424   -5.2625    1.4865 C   0  0  1  0  0  0  0  0  0  0  0  0
    4.9191   -4.0593    0.5969 C   0  0  2  0  0  0  0  0  0  0  0  0
    6.4462   -4.3271    0.4733 C   0  0  0  0  0  0  0  0  0  0  0  0
    4.7876   -2.6439    1.2382 C   0  0  0  0  0  0  0  0  0  0  0  0
    5.2277   -1.4787    0.3308 C   0  0  0  0  0  0  0  0  0  0  0  0
    4.4800   -1.5060   -1.0142 C   0  0  1  0  0  0  0  0  0  0  0  0
    5.0162   -0.5187   -1.8621 O   0  0  0  0  0  0  0  0  0  0  0  0
    4.5892   -2.8535   -1.7641 C   0  0  0  0  0  0  0  0  0  0  0  0
    3.6591   -2.7943   -3.0103 C   0  0  0  0  0  0  0  0  0  0  0  0
    6.0118   -3.0770   -2.3377 C   0  0  0  0  0  0  0  0  0  0  0  0
    4.1838   -4.0301   -0.7978 C   0  0  2  0  0  0  0  0  0  0  0  0
    2.6499   -4.1230   -0.5866 C   0  0  0  0  0  0  0  0  0  0  0  0
    2.1973   -5.3162    0.2927 C   0  0  0  0  0  0  0  0  0  0  0  0
    2.7856   -5.3186    1.7346 C   0  0  1  0  0  0  0  0  0  0  0  0
    2.2482   -4.0624    2.4909 C   0  0  0  0  0  0  0  0  0  0  0  0
    2.5452   -9.2703    2.6601 C   0  0  1  0  0  0  0  0  0  0  0  0
    5.1169  -10.5143    2.7599 H   0  0  0  0  0  0  0  0  0  0  0  0
    5.3458  -10.4160    4.5085 H   0  0  0  0  0  0  0  0  0  0  0  0
    5.2941   -8.9429    3.5626 H   0  0  0  0  0  0  0  0  0  0  0  0
    3.1734   -9.2580    4.7419 H   0  0  0  0  0  0  0  0  0  0  0  0
    2.9858  -11.9695    3.3809 H   0  0  0  0  0  0  0  0  0  0  0  0
    3.3294  -11.6852    5.0759 H   0  0  0  0  0  0  0  0  0  0  0  0
    0.9424  -12.2666    4.7234 H   0  0  0  0  0  0  0  0  0  0  0  0
    1.1280  -10.6854    5.4375 H   0  0  0  0  0  0  0  0  0  0  0  0
    0.5525  -11.2808    2.4924 H   0  0  0  0  0  0  0  0  0  0  0  0
   -0.5397  -10.5415    3.6528 H   0  0  0  0  0  0  0  0  0  0  0  0
   -0.7405   -8.2414    3.2412 H   0  0  0  0  0  0  0  0  0  0  0  0
    0.3541   -6.6164    1.6615 H   0  0  0  0  0  0  0  0  0  0  0  0
    0.3409   -6.1070    3.3393 H   0  0  0  0  0  0  0  0  0  0  0  0
    2.4588   -5.4977    4.5655 H   0  0  0  0  0  0  0  0  0  0  0  0
    3.9067   -6.4180    4.1829 H   0  0  0  0  0  0  0  0  0  0  0  0
    2.4394   -7.2151    4.7288 H   0  0  0  0  0  0  0  0  0  0  0  0
    4.5689   -8.7987    1.0327 H   0  0  0  0  0  0  0  0  0  0  0  0
    5.8847   -6.7854    1.1631 H   0  0  0  0  0  0  0  0  0  0  0  0
    4.7846   -6.6561   -0.1928 H   0  0  0  0  0  0  0  0  0  0  0  0
    4.8041   -5.1652    2.4695 H   0  0  0  0  0  0  0  0  0  0  0  0
    7.0407   -3.4528    0.2375 H   0  0  0  0  0  0  0  0  0  0  0  0
    6.6604   -5.0664   -0.2951 H   0  0  0  0  0  0  0  0  0  0  0  0
    6.8582   -4.6907    1.4142 H   0  0  0  0  0  0  0  0  0  0  0  0
    3.7557   -2.4031    1.4425 H   0  0  0  0  0  0  0  0  0  0  0  0
    5.3105   -2.6073    2.1940 H   0  0  0  0  0  0  0  0  0  0  0  0
    5.0034   -0.5413    0.8372 H   0  0  0  0  0  0  0  0  0  0  0  0
    6.3024   -1.4663    0.1824 H   0  0  0  0  0  0  0  0  0  0  0  0
    3.4307   -1.2679   -0.8305 H   0  0  0  0  0  0  0  0  0  0  0  0
    4.9573    0.3232   -1.4254 H   0  0  0  0  0  0  0  0  0  0  0  0
    3.5881   -3.7660   -3.4993 H   0  0  0  0  0  0  0  0  0  0  0  0
    4.0198   -2.0802   -3.7554 H   0  0  0  0  0  0  0  0  0  0  0  0
    2.6522   -2.4596   -2.7493 H   0  0  0  0  0  0  0  0  0  0  0  0
    6.1944   -4.1340   -2.5218 H   0  0  0  0  0  0  0  0  0  0  0  0
    6.8079   -2.6791   -1.7127 H   0  0  0  0  0  0  0  0  0  0  0  0
    6.1338   -2.6202   -3.3132 H   0  0  0  0  0  0  0  0  0  0  0  0
    4.4716   -4.9259   -1.3434 H   0  0  0  0  0  0  0  0  0  0  0  0
    2.2654   -3.1738   -0.2219 H   0  0  0  0  0  0  0  0  0  0  0  0
    2.1546   -4.2588   -1.5445 H   0  0  0  0  0  0  0  0  0  0  0  0
    1.1171   -5.3029    0.2961 H   0  0  0  0  0  0  0  0  0  0  0  0
    2.4446   -6.2475   -0.2147 H   0  0  0  0  0  0  0  0  0  0  0  0
    1.9270   -3.2561    1.8403 H   0  0  0  0  0  0  0  0  0  0  0  0
    2.9912   -3.6687    3.1837 H   0  0  0  0  0  0  0  0  0  0  0  0
    1.3541   -4.2575    3.0775 H   0  0  0  0  0  0  0  0  0  0  0  0
    2.6510   -9.9535    1.8154 H   0  0  0  0  0  0  0  0  0  0  0  0
  1  2  1  0
  1 30  1  0
  1 31  1  0
  1 32  1  0
  2 29  1  0
  2  3  1  0
  2 33  1  1
  3  4  1  0
  3 34  1  0
  3 35  1  0
  4  5  1  0
  4 36  1  0
  4 37  1  0
  5  6  1  0
  5 38  1  0
  5 39  1  0
  6 29  1  0
  6  7  2  0
  7  8  1  0
  7 40  1  0
  8  9  1  0
  8 41  1  0
  8 42  1  0
  9 27  1  0
  9 10  1  1
  9 11  1  0
 10 43  1  0
 10 44  1  0
 10 45  1  0
 11 12  2  0
 11 29  1  0
 12 13  1  0
 12 46  1  0
 13 14  1  0
 13 47  1  0
 13 48  1  0
 14 27  1  0
 14 15  1  0
 14 49  1  1
 15 24  1  0
 15 16  1  6
 15 17  1  0
 16 50  1  0
 16 51  1  0
 16 52  1  0
 17 18  1  0
 17 53  1  0
 17 54  1  0
 18 19  1  0
 18 55  1  0
 18 56  1  0
 19 20  1  0
 19 21  1  0
 19 57  1  1
 20 58  1  0
 21 22  1  0
 21 23  1  0
 21 24  1  0
 22 59  1  0
 22 60  1  0
 22 61  1  0
 23 62  1  0
 23 63  1  0
 23 64  1  0
 24 25  1  0
 24 65  1  6
 25 26  1  0
 25 66  1  0
 25 67  1  0
 26 27  1  0
 26 68  1  0
 26 69  1  0
 27 28  1  1
 28 70  1  0
 28 71  1  0
 28 72  1  0
 29 73  1  6
M  END
>  <i_m_ct_stereo_status>  (280) 
1

>  <s_m_source_file>  (280) 
/var/tmp/pbs.5076255.sched01/tmpwmgilt76/96rd2vfdyj.sdf

>  <i_m_source_file_index>  (280) 
24

>  <i_lp_mmshare_version>  (280) 
48012

>  <i_f3d_flags>  (280) 
0

>  <s_epik_input>  (280) 
W0NIM11bQ0BASF0xW0NIMl1bQ0gyXVtDSDJdQyg9W0NIXVtDSDJdMilbQ0BIXTFDKFtDQF0yM1tDSDNdKT1bQ0hdW0NIMl1bQ0BIXTRbQ0BAXTUoW0NIM10pW0NASF0oQyhbQ0gzXSkoW0NIM10pW0NASF0oW09IXSlbQ0gyXVtDSDJdNSlbQ0gyXVtDSDJdW0NAQF0zNFtDSDNd

>  <s_epik_cmdline>  (280) 
J2VwaWtfcHl0aG9uJywgJy1waHQnLCAnMi4wJywgJy1waCcsICc3LjAnLCAnLXRuJywgJzgnLCAnLW1hJywgJzIwMCcsICctaW1hZScsICc8aW5maWxlLm1hZT4nLCAnLW9tYWUnLCAnPG91dGZpbGUubWFlPic=

>  <r_lp_tautomer_probability>  (280) 
1

>  <r_epik_Ionization_Penalty>  (280) 
2.8926e-06

>  <r_epik_Ionization_Penalty_Charging>  (280) 
0

>  <r_epik_Ionization_Penalty_Neutral>  (280) 
2.8926e-06

>  <r_epik_State_Penalty>  (280) 
-0

>  <r_epik_Charging_Adjusted_Penalty>  (280) 
0

>  <i_epik_Tot_Q>  (280) 
0

>  <i_epik_Tot_abs_Q>  (280) 
0

>  <s_lp_Force_Field>  (280) 
OPLS3e

>  <r_lp_Energy>  (280) 
77.213

>  <b_lp_Chiralities_Consistent>  (280) 
1

>  <s_lp_Variant>  (280) 
71:0-1

>  <s_i_glide_gridfile>  (280) 
pfpi4k_grid

>  <i_i_glide_lignum>  (280) 
24

>  <i_i_glide_rotatable_bonds>  (280) 
1

>  <r_i_docking_score>  (280) 
-3.78463

>  <r_i_glide_ligand_efficiency>  (280) 
-0.130505

>  <r_i_glide_ligand_efficiency_sa>  (280) 
-0.400951

>  <r_i_glide_ligand_efficiency_ln>  (280) 
-0.866585

>  <r_i_glide_gscore>  (280) 
-3.78463

>  <r_i_glide_lipo>  (280) 
-0.649857

>  <r_i_glide_hbond>  (280) 
-0.32

>  <r_i_glide_metal>  (280) 
-0

>  <r_i_glide_rewards>  (280) 
-0.70467

>  <r_i_glide_evdw>  (280) 
-32.3196

>  <r_i_glide_ecoul>  (280) 
-3.29416

>  <r_i_glide_erotb>  (280) 
0

>  <r_i_glide_esite>  (280) 
0

>  <r_i_glide_emodel>  (280) 
-43.0674

>  <r_i_glide_energy>  (280) 
-35.6138

>  <r_i_glide_einternal>  (280) 
0.367645

>  <r_i_glide_intrahb_reward>  (280) 
-0

>  <i_i_glide_confnum>  (280) 
2

>  <i_i_glide_posenum>  (280) 
23

>  <r_i_glide_eff_state_penalty>  (280) 
0

>  <ligand_id>  (280) 
71

>  <original_smiles>  (280) 
CC1CCCC2=CCC3(C)C(=CCC4C5(C)CCC(O)C(C)(C)C5CCC43C)C21

>  <smiles>  (280) 
[H]OC1([H])C([H])([H])C([H])([H])C2(C([H])([H])[H])C([H])(C([H])([H])C([H])([H])C3(C([H])([H])[H])C2([H])C([H])([H])C([H])=C2C4([H])C(=C([H])C([H])([H])C23C([H])([H])[H])C([H])([H])C([H])([H])C([H])([H])C4([H])C([H])([H])[H])C1(C([H])([H])[H])C([H])([H])[H]

$$$$
71:0:1
     RDKit          3D

 73 77  0  0  1  0  0  0  0  0999 V2000
    0.5923   -4.7822    6.8666 C   0  0  0  0  0  0  0  0  0  0  0  0
    0.7214   -6.2925    6.6057 C   0  0  2  0  0  0  0  0  0  0  0  0
    0.3816   -7.0768    7.8928 C   0  0  0  0  0  0  0  0  0  0  0  0
    0.3898   -8.5970    7.6591 C   0  0  0  0  0  0  0  0  0  0  0  0
    1.7341   -9.0546    7.0813 C   0  0  0  0  0  0  0  0  0  0  0  0
    2.0885   -8.2460    5.8436 C   0  0  0  0  0  0  0  0  0  0  0  0
    2.3529   -8.8269    4.6653 C   0  0  0  0  0  0  0  0  0  0  0  0
    2.7263   -8.0779    3.4097 C   0  0  0  0  0  0  0  0  0  0  0  0
    2.4233   -6.5382    3.4016 C   0  0  1  0  0  0  0  0  0  0  0  0
    0.9088   -6.3664    3.0983 C   0  0  0  0  0  0  0  0  0  0  0  0
    2.6014   -5.9517    4.8151 C   0  0  0  0  0  0  0  0  0  0  0  0
    3.1688   -4.7559    4.9994 C   0  0  0  0  0  0  0  0  0  0  0  0
    3.5771   -3.7963    3.9126 C   0  0  0  0  0  0  0  0  0  0  0  0
    3.2399   -4.2114    2.4406 C   0  0  1  0  0  0  0  0  0  0  0  0
    4.0951   -3.3074    1.4297 C   0  0  2  0  0  0  0  0  0  0  0  0
    3.8604   -1.8350    1.8830 C   0  0  0  0  0  0  0  0  0  0  0  0
    3.6164   -3.3669   -0.0571 C   0  0  0  0  0  0  0  0  0  0  0  0
    4.5010   -2.5940   -1.0574 C   0  0  0  0  0  0  0  0  0  0  0  0
    5.9717   -3.0419   -0.9839 C   0  0  1  0  0  0  0  0  0  0  0  0
    6.7346   -2.2682   -1.8987 O   0  0  0  0  0  0  0  0  0  0  0  0
    6.5637   -2.9736    0.4546 C   0  0  0  0  0  0  0  0  0  0  0  0
    7.9723   -3.6284    0.4323 C   0  0  0  0  0  0  0  0  0  0  0  0
    6.7972   -1.4945    0.8764 C   0  0  0  0  0  0  0  0  0  0  0  0
    5.6158   -3.7273    1.4795 C   0  0  2  0  0  0  0  0  0  0  0  0
    5.7337   -5.2760    1.3885 C   0  0  0  0  0  0  0  0  0  0  0  0
    4.8458   -6.0866    2.3678 C   0  0  0  0  0  0  0  0  0  0  0  0
    3.3188   -5.7783    2.2876 C   0  0  1  0  0  0  0  0  0  0  0  0
    2.8047   -6.2662    0.8997 C   0  0  0  0  0  0  0  0  0  0  0  0
    2.1075   -6.7409    6.0483 C   0  0  1  0  0  0  0  0  0  0  0  0
    1.3547   -4.4315    7.5638 H   0  0  0  0  0  0  0  0  0  0  0  0
   -0.3839   -4.5471    7.2950 H   0  0  0  0  0  0  0  0  0  0  0  0
    0.6761   -4.2085    5.9436 H   0  0  0  0  0  0  0  0  0  0  0  0
   -0.0472   -6.5466    5.8765 H   0  0  0  0  0  0  0  0  0  0  0  0
    1.0956   -6.8269    8.6808 H   0  0  0  0  0  0  0  0  0  0  0  0
   -0.5979   -6.7743    8.2564 H   0  0  0  0  0  0  0  0  0  0  0  0
    0.1836   -9.1218    8.5918 H   0  0  0  0  0  0  0  0  0  0  0  0
   -0.4076   -8.8732    6.9670 H   0  0  0  0  0  0  0  0  0  0  0  0
    2.5198   -8.9209    7.8276 H   0  0  0  0  0  0  0  0  0  0  0  0
    1.6928  -10.1185    6.8470 H   0  0  0  0  0  0  0  0  0  0  0  0
    2.3386   -9.9043    4.5833 H   0  0  0  0  0  0  0  0  0  0  0  0
    3.7803   -8.3008    3.2878 H   0  0  0  0  0  0  0  0  0  0  0  0
    2.2028   -8.5814    2.5971 H   0  0  0  0  0  0  0  0  0  0  0  0
    0.6115   -6.6880    2.1007 H   0  0  0  0  0  0  0  0  0  0  0  0
    0.6012   -5.3284    3.2255 H   0  0  0  0  0  0  0  0  0  0  0  0
    0.3076   -6.9705    3.7760 H   0  0  0  0  0  0  0  0  0  0  0  0
    3.3088   -4.3839    6.0042 H   0  0  0  0  0  0  0  0  0  0  0  0
    3.0743   -2.8601    4.1572 H   0  0  0  0  0  0  0  0  0  0  0  0
    4.6410   -3.6295    4.0658 H   0  0  0  0  0  0  0  0  0  0  0  0
    2.1931   -3.9440    2.2836 H   0  0  0  0  0  0  0  0  0  0  0  0
    4.0318   -1.0947    1.1107 H   0  0  0  0  0  0  0  0  0  0  0  0
    4.4913   -1.5555    2.7278 H   0  0  0  0  0  0  0  0  0  0  0  0
    2.8214   -1.6772    2.1759 H   0  0  0  0  0  0  0  0  0  0  0  0
    3.6562   -4.3744   -0.4450 H   0  0  0  0  0  0  0  0  0  0  0  0
    2.5782   -3.0466   -0.1437 H   0  0  0  0  0  0  0  0  0  0  0  0
    4.1319   -2.7929   -2.0656 H   0  0  0  0  0  0  0  0  0  0  0  0
    4.4049   -1.5179   -0.9323 H   0  0  0  0  0  0  0  0  0  0  0  0
    6.0096   -4.0746   -1.3319 H   0  0  0  0  0  0  0  0  0  0  0  0
    7.2996   -2.8512   -2.3912 H   0  0  0  0  0  0  0  0  0  0  0  0
    8.3751   -3.7514    1.4358 H   0  0  0  0  0  0  0  0  0  0  0  0
    8.6884   -3.0368   -0.1410 H   0  0  0  0  0  0  0  0  0  0  0  0
    7.9480   -4.6134   -0.0388 H   0  0  0  0  0  0  0  0  0  0  0  0
    6.8393   -1.3866    1.9581 H   0  0  0  0  0  0  0  0  0  0  0  0
    6.0298   -0.8154    0.5118 H   0  0  0  0  0  0  0  0  0  0  0  0
    7.7375   -1.0977    0.4859 H   0  0  0  0  0  0  0  0  0  0  0  0
    6.0119   -3.4771    2.4616 H   0  0  0  0  0  0  0  0  0  0  0  0
    5.5595   -5.5969    0.3645 H   0  0  0  0  0  0  0  0  0  0  0  0
    6.7562   -5.5823    1.6088 H   0  0  0  0  0  0  0  0  0  0  0  0
    5.0476   -7.1320    2.1507 H   0  0  0  0  0  0  0  0  0  0  0  0
    5.2094   -5.9173    3.3821 H   0  0  0  0  0  0  0  0  0  0  0  0
    3.5811   -6.3438    0.1463 H   0  0  0  0  0  0  0  0  0  0  0  0
    2.0084   -5.6315    0.5155 H   0  0  0  0  0  0  0  0  0  0  0  0
    2.4069   -7.2781    0.9274 H   0  0  0  0  0  0  0  0  0  0  0  0
    2.8486   -6.5638    6.8295 H   0  0  0  0  0  0  0  0  0  0  0  0
  1  2  1  0
  1 30  1  0
  1 31  1  0
  1 32  1  0
  2 29  1  0
  2  3  1  0
  2 33  1  6
  3  4  1  0
  3 34  1  0
  3 35  1  0
  4  5  1  0
  4 36  1  0
  4 37  1  0
  5  6  1  0
  5 38  1  0
  5 39  1  0
  6 29  1  0
  6  7  2  0
  7  8  1  0
  7 40  1  0
  8  9  1  0
  8 41  1  0
  8 42  1  0
  9 27  1  0
  9 10  1  6
  9 11  1  0
 10 43  1  0
 10 44  1  0
 10 45  1  0
 11 12  2  0
 11 29  1  0
 12 13  1  0
 12 46  1  0
 13 14  1  0
 13 47  1  0
 13 48  1  0
 14 27  1  0
 14 15  1  0
 14 49  1  6
 15 24  1  0
 15 16  1  1
 15 17  1  0
 16 50  1  0
 16 51  1  0
 16 52  1  0
 17 18  1  0
 17 53  1  0
 17 54  1  0
 18 19  1  0
 18 55  1  0
 18 56  1  0
 19 20  1  0
 19 21  1  0
 19 57  1  6
 20 58  1  0
 21 22  1  0
 21 23  1  0
 21 24  1  0
 22 59  1  0
 22 60  1  0
 22 61  1  0
 23 62  1  0
 23 63  1  0
 23 64  1  0
 24 25  1  0
 24 65  1  1
 25 26  1  0
 25 66  1  0
 25 67  1  0
 26 27  1  0
 26 68  1  0
 26 69  1  0
 27 28  1  6
 28 70  1  0
 28 71  1  0
 28 72  1  0
 29 73  1  1
M  END
>  <i_m_ct_stereo_status>  (281) 
1

>  <s_m_source_file>  (281) 
/var/tmp/pbs.5076255.sched01/tmpwmgilt76/96rd2vfdyj.sdf

>  <i_m_source_file_index>  (281) 
24

>  <i_lp_mmshare_version>  (281) 
48012

>  <i_f3d_flags>  (281) 
0

>  <s_epik_input>  (281) 
W0NIM11bQ0BASF0xW0NIMl1bQ0gyXVtDSDJdQyg9W0NIXVtDSDJdMilbQ0BIXTFDKFtDQF0yM1tDSDNdKT1bQ0hdW0NIMl1bQ0BIXTRbQ0BAXTUoW0NIM10pW0NASF0oQyhbQ0gzXSkoW0NIM10pW0NASF0oW09IXSlbQ0gyXVtDSDJdNSlbQ0gyXVtDSDJdW0NAQF0zNFtDSDNd

>  <s_epik_cmdline>  (281) 
J2VwaWtfcHl0aG9uJywgJy1waHQnLCAnMi4wJywgJy1waCcsICc3LjAnLCAnLXRuJywgJzgnLCAnLW1hJywgJzIwMCcsICctaW1hZScsICc8aW5maWxlLm1hZT4nLCAnLW9tYWUnLCAnPG91dGZpbGUubWFlPic=

>  <r_lp_tautomer_probability>  (281) 
1

>  <r_epik_Ionization_Penalty>  (281) 
2.8926e-06

>  <r_epik_Ionization_Penalty_Charging>  (281) 
0

>  <r_epik_Ionization_Penalty_Neutral>  (281) 
2.8926e-06

>  <r_epik_State_Penalty>  (281) 
-0

>  <r_epik_Charging_Adjusted_Penalty>  (281) 
0

>  <i_epik_Tot_Q>  (281) 
0

>  <i_epik_Tot_abs_Q>  (281) 
0

>  <s_lp_Force_Field>  (281) 
OPLS3e

>  <r_lp_Energy>  (281) 
77.213

>  <b_lp_Chiralities_Consistent>  (281) 
1

>  <s_lp_Variant>  (281) 
71:0-1

>  <s_i_glide_gridfile>  (281) 
pfpi4k_grid

>  <i_i_glide_lignum>  (281) 
24

>  <i_i_glide_rotatable_bonds>  (281) 
1

>  <r_i_docking_score>  (281) 
-3.29431

>  <r_i_glide_ligand_efficiency>  (281) 
-0.113597

>  <r_i_glide_ligand_efficiency_sa>  (281) 
-0.349006

>  <r_i_glide_ligand_efficiency_ln>  (281) 
-0.754314

>  <r_i_glide_gscore>  (281) 
-3.29431

>  <r_i_glide_lipo>  (281) 
-0.512683

>  <r_i_glide_hbond>  (281) 
-0.175839

>  <r_i_glide_metal>  (281) 
-0

>  <r_i_glide_rewards>  (281) 
-0.70467

>  <r_i_glide_evdw>  (281) 
-26.7692

>  <r_i_glide_ecoul>  (281) 
-3.75106

>  <r_i_glide_erotb>  (281) 
0

>  <r_i_glide_esite>  (281) 
0

>  <r_i_glide_emodel>  (281) 
-36.3611

>  <r_i_glide_energy>  (281) 
-30.5203

>  <r_i_glide_einternal>  (281) 
1.19284

>  <r_i_glide_intrahb_reward>  (281) 
-0

>  <i_i_glide_confnum>  (281) 
2

>  <i_i_glide_posenum>  (281) 
2

>  <r_i_glide_eff_state_penalty>  (281) 
0

>  <ligand_id>  (281) 
71

>  <original_smiles>  (281) 
CC1CCCC2=CCC3(C)C(=CCC4C5(C)CCC(O)C(C)(C)C5CCC43C)C21

>  <smiles>  (281) 
[H]OC1([H])C([H])([H])C([H])([H])C2(C([H])([H])[H])C([H])(C([H])([H])C([H])([H])C3(C([H])([H])[H])C2([H])C([H])([H])C([H])=C2C4([H])C(=C([H])C([H])([H])C23C([H])([H])[H])C([H])([H])C([H])([H])C([H])([H])C4([H])C([H])([H])[H])C1(C([H])([H])[H])C([H])([H])[H]

$$$$
71:0:2
     RDKit          3D

 73 77  0  0  1  0  0  0  0  0999 V2000
    5.3032  -10.1143    3.6665 C   0  0  0  0  0  0  0  0  0  0  0  0
    3.8035  -10.1162    3.9861 C   0  0  2  0  0  0  0  0  0  0  0  0
    3.3551  -11.5468    4.3348 C   0  0  0  0  0  0  0  0  0  0  0  0
    1.8830  -11.5862    4.7542 C   0  0  0  0  0  0  0  0  0  0  0  0
    0.9699  -10.9910    3.6878 C   0  0  0  0  0  0  0  0  0  0  0  0
    1.4413   -9.6036    3.3065 C   0  0  0  0  0  0  0  0  0  0  0  0
    0.6432   -8.5273    3.3911 C   0  0  0  0  0  0  0  0  0  0  0  0
    1.0593   -7.1293    3.0217 C   0  0  0  0  0  0  0  0  0  0  0  0
    2.6010   -6.8708    2.8999 C   0  0  1  0  0  0  0  0  0  0  0  0
    3.1536   -6.6893    4.3404 C   0  0  0  0  0  0  0  0  0  0  0  0
    3.3138   -8.1241    2.3650 C   0  0  0  0  0  0  0  0  0  0  0  0
    4.3096   -8.0325    1.4715 C   0  0  0  0  0  0  0  0  0  0  0  0
    4.9342   -6.7517    0.9950 C   0  0  0  0  0  0  0  0  0  0  0  0
    4.4292   -5.4240    1.6510 C   0  0  1  0  0  0  0  0  0  0  0  0
    4.8870   -4.1825    0.7460 C   0  0  2  0  0  0  0  0  0  0  0  0
    6.4094   -4.3798    0.5004 C   0  0  0  0  0  0  0  0  0  0  0  0
    4.7469   -2.7830    1.4236 C   0  0  0  0  0  0  0  0  0  0  0  0
    5.0703   -1.5898    0.5100 C   0  0  0  0  0  0  0  0  0  0  0  0
    4.2313   -1.6406   -0.7775 C   0  0  1  0  0  0  0  0  0  0  0  0
    4.6602   -0.6385   -1.6650 O   0  0  0  0  0  0  0  0  0  0  0  0
    4.3357   -2.9595   -1.5679 C   0  0  0  0  0  0  0  0  0  0  0  0
    3.3080   -2.9005   -2.7266 C   0  0  0  0  0  0  0  0  0  0  0  0
    5.7188   -3.0798   -2.2596 C   0  0  0  0  0  0  0  0  0  0  0  0
    4.0552   -4.1699   -0.5974 C   0  0  2  0  0  0  0  0  0  0  0  0
    2.5483   -4.3309   -0.2817 C   0  0  0  0  0  0  0  0  0  0  0  0
    2.1919   -5.5285    0.6265 C   0  0  0  0  0  0  0  0  0  0  0  0
    2.8980   -5.5475    2.0157 C   0  0  1  0  0  0  0  0  0  0  0  0
    2.3640   -4.3357    2.8363 C   0  0  0  0  0  0  0  0  0  0  0  0
    2.8948   -9.5263    2.8637 C   0  0  1  0  0  0  0  0  0  0  0  0
    5.5191  -10.6614    2.7433 H   0  0  0  0  0  0  0  0  0  0  0  0
    5.8718  -10.5856    4.4700 H   0  0  0  0  0  0  0  0  0  0  0  0
    5.6911   -9.0969    3.5663 H   0  0  0  0  0  0  0  0  0  0  0  0
    3.6796   -9.5309    4.8875 H   0  0  0  0  0  0  0  0  0  0  0  0
    3.5004  -12.2144    3.4820 H   0  0  0  0  0  0  0  0  0  0  0  0
    3.9573  -11.9480    5.1559 H   0  0  0  0  0  0  0  0  0  0  0  0
    1.5874  -12.6184    4.9469 H   0  0  0  0  0  0  0  0  0  0  0  0
    1.7541  -11.0393    5.6870 H   0  0  0  0  0  0  0  0  0  0  0  0
    0.9761  -11.6283    2.8067 H   0  0  0  0  0  0  0  0  0  0  0  0
   -0.0527  -10.9578    4.0588 H   0  0  0  0  0  0  0  0  0  0  0  0
   -0.3802   -8.6527    3.7119 H   0  0  0  0  0  0  0  0  0  0  0  0
    0.5267   -6.9536    2.0940 H   0  0  0  0  0  0  0  0  0  0  0  0
    0.6180   -6.4816    3.7738 H   0  0  0  0  0  0  0  0  0  0  0  0
    2.7953   -5.8008    4.8543 H   0  0  0  0  0  0  0  0  0  0  0  0
    4.2444   -6.6511    4.3429 H   0  0  0  0  0  0  0  0  0  0  0  0
    2.8602   -7.5195    4.9755 H   0  0  0  0  0  0  0  0  0  0  0  0
    4.7672   -8.9361    1.0979 H   0  0  0  0  0  0  0  0  0  0  0  0
    5.9971   -6.8711    1.1826 H   0  0  0  0  0  0  0  0  0  0  0  0
    4.8022   -6.7692   -0.0839 H   0  0  0  0  0  0  0  0  0  0  0  0
    4.9552   -5.3237    2.5928 H   0  0  0  0  0  0  0  0  0  0  0  0
    6.9435   -3.4750    0.2405 H   0  0  0  0  0  0  0  0  0  0  0  0
    6.5975   -5.0891   -0.2989 H   0  0  0  0  0  0  0  0  0  0  0  0
    6.9018   -4.7431    1.3997 H   0  0  0  0  0  0  0  0  0  0  0  0
    3.7273   -2.5913    1.7054 H   0  0  0  0  0  0  0  0  0  0  0  0
    5.3386   -2.7442    2.3405 H   0  0  0  0  0  0  0  0  0  0  0  0
    4.8374   -0.6694    1.0401 H   0  0  0  0  0  0  0  0  0  0  0  0
    6.1295   -1.5208    0.2851 H   0  0  0  0  0  0  0  0  0  0  0  0
    3.1851   -1.4277   -0.5147 H   0  0  0  0  0  0  0  0  0  0  0  0
    3.9118   -0.3380   -2.1478 H   0  0  0  0  0  0  0  0  0  0  0  0
    3.2350   -3.8569   -3.2418 H   0  0  0  0  0  0  0  0  0  0  0  0
    3.5736   -2.1621   -3.4875 H   0  0  0  0  0  0  0  0  0  0  0  0
    2.3163   -2.6196   -2.3822 H   0  0  0  0  0  0  0  0  0  0  0  0
    5.9494   -4.1117   -2.5072 H   0  0  0  0  0  0  0  0  0  0  0  0
    6.5346   -2.6744   -1.6668 H   0  0  0  0  0  0  0  0  0  0  0  0
    5.7538   -2.5231   -3.1965 H   0  0  0  0  0  0  0  0  0  0  0  0
    4.3366   -5.0480   -1.1692 H   0  0  0  0  0  0  0  0  0  0  0  0
    2.1615   -3.3958    0.1130 H   0  0  0  0  0  0  0  0  0  0  0  0
    1.9944   -4.4987   -1.1940 H   0  0  0  0  0  0  0  0  0  0  0  0
    1.1122   -5.5176    0.7429 H   0  0  0  0  0  0  0  0  0  0  0  0
    2.4152   -6.4426    0.0850 H   0  0  0  0  0  0  0  0  0  0  0  0
    1.9629   -3.5346    2.2247 H   0  0  0  0  0  0  0  0  0  0  0  0
    3.1415   -3.9227    3.4786 H   0  0  0  0  0  0  0  0  0  0  0  0
    1.5280   -4.5822    3.4818 H   0  0  0  0  0  0  0  0  0  0  0  0
    2.9650  -10.1894    1.9986 H   0  0  0  0  0  0  0  0  0  0  0  0
  1  2  1  0
  1 30  1  0
  1 31  1  0
  1 32  1  0
  2 29  1  0
  2  3  1  0
  2 33  1  1
  3  4  1  0
  3 34  1  0
  3 35  1  0
  4  5  1  0
  4 36  1  0
  4 37  1  0
  5  6  1  0
  5 38  1  0
  5 39  1  0
  6 29  1  0
  6  7  2  0
  7  8  1  0
  7 40  1  0
  8  9  1  0
  8 41  1  0
  8 42  1  0
  9 27  1  0
  9 10  1  1
  9 11  1  0
 10 43  1  0
 10 44  1  0
 10 45  1  0
 11 12  2  0
 11 29  1  0
 12 13  1  0
 12 46  1  0
 13 14  1  0
 13 47  1  0
 13 48  1  0
 14 27  1  0
 14 15  1  0
 14 49  1  1
 15 24  1  0
 15 16  1  6
 15 17  1  0
 16 50  1  0
 16 51  1  0
 16 52  1  0
 17 18  1  0
 17 53  1  0
 17 54  1  0
 18 19  1  0
 18 55  1  0
 18 56  1  0
 19 20  1  0
 19 21  1  0
 19 57  1  1
 20 58  1  0
 21 22  1  0
 21 23  1  0
 21 24  1  0
 22 59  1  0
 22 60  1  0
 22 61  1  0
 23 62  1  0
 23 63  1  0
 23 64  1  0
 24 25  1  0
 24 65  1  6
 25 26  1  0
 25 66  1  0
 25 67  1  0
 26 27  1  0
 26 68  1  0
 26 69  1  0
 27 28  1  1
 28 70  1  0
 28 71  1  0
 28 72  1  0
 29 73  1  6
M  END
>  <i_m_ct_stereo_status>  (282) 
1

>  <s_m_source_file>  (282) 
/var/tmp/pbs.5076255.sched01/tmpwmgilt76/96rd2vfdyj.sdf

>  <i_m_source_file_index>  (282) 
24

>  <i_lp_mmshare_version>  (282) 
48012

>  <i_f3d_flags>  (282) 
0

>  <s_epik_input>  (282) 
W0NIM11bQ0BASF0xW0NIMl1bQ0gyXVtDSDJdQyg9W0NIXVtDSDJdMilbQ0BIXTFDKFtDQF0yM1tDSDNdKT1bQ0hdW0NIMl1bQ0BIXTRbQ0BAXTUoW0NIM10pW0NASF0oQyhbQ0gzXSkoW0NIM10pW0NASF0oW09IXSlbQ0gyXVtDSDJdNSlbQ0gyXVtDSDJdW0NAQF0zNFtDSDNd

>  <s_epik_cmdline>  (282) 
J2VwaWtfcHl0aG9uJywgJy1waHQnLCAnMi4wJywgJy1waCcsICc3LjAnLCAnLXRuJywgJzgnLCAnLW1hJywgJzIwMCcsICctaW1hZScsICc8aW5maWxlLm1hZT4nLCAnLW9tYWUnLCAnPG91dGZpbGUubWFlPic=

>  <r_lp_tautomer_probability>  (282) 
1

>  <r_epik_Ionization_Penalty>  (282) 
2.8926e-06

>  <r_epik_Ionization_Penalty_Charging>  (282) 
0

>  <r_epik_Ionization_Penalty_Neutral>  (282) 
2.8926e-06

>  <r_epik_State_Penalty>  (282) 
-0

>  <r_epik_Charging_Adjusted_Penalty>  (282) 
0

>  <i_epik_Tot_Q>  (282) 
0

>  <i_epik_Tot_abs_Q>  (282) 
0

>  <s_lp_Force_Field>  (282) 
OPLS3e

>  <r_lp_Energy>  (282) 
77.213

>  <b_lp_Chiralities_Consistent>  (282) 
1

>  <s_lp_Variant>  (282) 
71:0-1

>  <s_i_glide_gridfile>  (282) 
pfpi4k_grid

>  <i_i_glide_lignum>  (282) 
24

>  <i_i_glide_rotatable_bonds>  (282) 
1

>  <r_i_docking_score>  (282) 
-3.11169

>  <r_i_glide_ligand_efficiency>  (282) 
-0.1073

>  <r_i_glide_ligand_efficiency_sa>  (282) 
-0.329659

>  <r_i_glide_ligand_efficiency_ln>  (282) 
-0.712499

>  <r_i_glide_gscore>  (282) 
-3.11169

>  <r_i_glide_lipo>  (282) 
-0.657494

>  <r_i_glide_hbond>  (282) 
0

>  <r_i_glide_metal>  (282) 
-0

>  <r_i_glide_rewards>  (282) 
-0.70467

>  <r_i_glide_evdw>  (282) 
-33.3429

>  <r_i_glide_ecoul>  (282) 
-0.549219

>  <r_i_glide_erotb>  (282) 
0

>  <r_i_glide_esite>  (282) 
0

>  <r_i_glide_emodel>  (282) 
-39.5747

>  <r_i_glide_energy>  (282) 
-33.8922

>  <r_i_glide_einternal>  (282) 
0.534764

>  <r_i_glide_intrahb_reward>  (282) 
-0

>  <i_i_glide_confnum>  (282) 
2

>  <i_i_glide_posenum>  (282) 
27

>  <r_i_glide_eff_state_penalty>  (282) 
0

>  <ligand_id>  (282) 
71

>  <original_smiles>  (282) 
CC1CCCC2=CCC3(C)C(=CCC4C5(C)CCC(O)C(C)(C)C5CCC43C)C21

>  <smiles>  (282) 
[H]OC1([H])C([H])([H])C([H])([H])C2(C([H])([H])[H])C([H])(C([H])([H])C([H])([H])C3(C([H])([H])[H])C2([H])C([H])([H])C([H])=C2C4([H])C(=C([H])C([H])([H])C23C([H])([H])[H])C([H])([H])C([H])([H])C([H])([H])C4([H])C([H])([H])[H])C1(C([H])([H])[H])C([H])([H])[H]

$$$$
72:0:0
     RDKit          3D

 78 82  0  0  1  0  0  0  0  0999 V2000
    2.4290  -11.2825    4.9660 C   0  0  0  0  0  0  0  0  0  0  0  0
    3.5111  -10.1920    4.8724 C   0  0  2  0  0  0  0  0  0  0  0  0
    3.6617   -9.4760    6.2240 C   0  0  0  0  0  0  0  0  0  0  0  0
    4.8561   -8.5195    6.1940 C   0  0  0  0  0  0  0  0  0  0  0  0
    4.7953   -7.4554    5.0697 C   0  0  2  0  0  0  0  0  0  0  0  0
    6.2246   -6.8562    4.9768 C   0  0  0  0  0  0  0  0  0  0  0  0
    3.8080   -6.3190    5.4246 C   0  0  0  0  0  0  0  0  0  0  0  0
    3.6442   -5.2567    4.3040 C   0  0  0  0  0  0  0  0  0  0  0  0
    3.2532   -5.8253    2.8984 C   0  0  2  0  0  0  0  0  0  0  0  0
    1.7927   -6.3630    2.9942 C   0  0  0  0  0  0  0  0  0  0  0  0
    4.2427   -6.9815    2.6461 C   0  0  0  0  0  0  0  0  0  0  0  0
    5.1601   -6.9326    1.6671 C   0  0  0  0  0  0  0  0  0  0  0  0
    5.3953   -5.7633    0.7517 C   0  0  0  0  0  0  0  0  0  0  0  0
    4.7411   -4.4137    1.1931 C   0  0  1  0  0  0  0  0  0  0  0  0
    4.8979   -3.3510    0.0079 C   0  0  2  0  0  0  0  0  0  0  0  0
    6.3814   -3.3867   -0.4556 C   0  0  0  0  0  0  0  0  0  0  0  0
    4.6619   -1.8704    0.4300 C   0  0  0  0  0  0  0  0  0  0  0  0
    4.6622   -0.8640   -0.7383 C   0  0  0  0  0  0  0  0  0  0  0  0
    3.6743   -1.2470   -1.8492 C   0  0  1  0  0  0  0  0  0  0  0  0
    3.7319   -0.2968   -2.9115 O   0  0  0  0  0  0  0  0  0  0  0  0
    3.8534   -2.6947   -2.3419 C   0  0  1  0  0  0  0  0  0  0  0  0
    4.9831   -2.8402   -3.3662 C   0  0  0  0  0  0  0  0  0  0  0  0
    3.9322   -3.7197   -1.1677 C   0  0  2  0  0  0  0  0  0  0  0  0
    2.5073   -4.0449   -0.6663 C   0  0  0  0  0  0  0  0  0  0  0  0
    2.4628   -5.0906    0.4786 C   0  0  0  0  0  0  0  0  0  0  0  0
    3.2842   -4.6910    1.7439 C   0  0  1  0  0  0  0  0  0  0  0  0
    2.6243   -3.4178    2.3591 C   0  0  0  0  0  0  0  0  0  0  0  0
    4.3972   -8.0919    3.7065 C   0  0  2  0  0  0  0  0  0  0  0  0
    3.2454   -9.1463    3.7643 C   0  0  1  0  0  0  0  0  0  0  0  0
    3.0286   -9.8188    2.3939 C   0  0  0  0  0  0  0  0  0  0  0  0
    1.4324  -10.8599    5.1221 H   0  0  0  0  0  0  0  0  0  0  0  0
    2.6449  -11.9408    5.8098 H   0  0  0  0  0  0  0  0  0  0  0  0
    2.4075  -11.9197    4.0804 H   0  0  0  0  0  0  0  0  0  0  0  0
    4.4520  -10.7031    4.6619 H   0  0  0  0  0  0  0  0  0  0  0  0
    2.7517   -8.9348    6.4766 H   0  0  0  0  0  0  0  0  0  0  0  0
    3.8071  -10.2018    7.0230 H   0  0  0  0  0  0  0  0  0  0  0  0
    4.9521   -8.0331    7.1668 H   0  0  0  0  0  0  0  0  0  0  0  0
    5.7555   -9.1254    6.0729 H   0  0  0  0  0  0  0  0  0  0  0  0
    6.3154   -6.1038    4.1941 H   0  0  0  0  0  0  0  0  0  0  0  0
    6.9600   -7.6319    4.7549 H   0  0  0  0  0  0  0  0  0  0  0  0
    6.5171   -6.3863    5.9173 H   0  0  0  0  0  0  0  0  0  0  0  0
    2.8370   -6.7471    5.6753 H   0  0  0  0  0  0  0  0  0  0  0  0
    4.1367   -5.8186    6.3362 H   0  0  0  0  0  0  0  0  0  0  0  0
    2.9059   -4.5462    4.6685 H   0  0  0  0  0  0  0  0  0  0  0  0
    4.5735   -4.6907    4.2125 H   0  0  0  0  0  0  0  0  0  0  0  0
    1.0391   -5.5927    2.8616 H   0  0  0  0  0  0  0  0  0  0  0  0
    1.5530   -6.7771    3.9672 H   0  0  0  0  0  0  0  0  0  0  0  0
    1.6004   -7.1298    2.2418 H   0  0  0  0  0  0  0  0  0  0  0  0
    5.8708   -7.7357    1.5499 H   0  0  0  0  0  0  0  0  0  0  0  0
    6.4824   -5.6591    0.7327 H   0  0  0  0  0  0  0  0  0  0  0  0
    5.0870   -6.0877   -0.2445 H   0  0  0  0  0  0  0  0  0  0  0  0
    5.3293   -4.0465    2.0348 H   0  0  0  0  0  0  0  0  0  0  0  0
    6.6932   -2.5379   -1.0456 H   0  0  0  0  0  0  0  0  0  0  0  0
    6.5694   -4.2466   -1.0947 H   0  0  0  0  0  0  0  0  0  0  0  0
    7.0655   -3.4240    0.3897 H   0  0  0  0  0  0  0  0  0  0  0  0
    3.6969   -1.7271    0.8882 H   0  0  0  0  0  0  0  0  0  0  0  0
    5.3912   -1.5699    1.1805 H   0  0  0  0  0  0  0  0  0  0  0  0
    4.3709    0.1009   -0.3283 H   0  0  0  0  0  0  0  0  0  0  0  0
    5.6580   -0.7080   -1.1519 H   0  0  0  0  0  0  0  0  0  0  0  0
    2.6712   -1.1945   -1.4397 H   0  0  0  0  0  0  0  0  0  0  0  0
    3.0696    0.3653   -2.7571 H   0  0  0  0  0  0  0  0  0  0  0  0
    2.9586   -2.9361   -2.9164 H   0  0  0  0  0  0  0  0  0  0  0  0
    5.9115   -2.3960   -3.0161 H   0  0  0  0  0  0  0  0  0  0  0  0
    4.6928   -2.3140   -4.2781 H   0  0  0  0  0  0  0  0  0  0  0  0
    5.1707   -3.8833   -3.6305 H   0  0  0  0  0  0  0  0  0  0  0  0
    4.2988   -4.6423   -1.6128 H   0  0  0  0  0  0  0  0  0  0  0  0
    1.9898   -3.1272   -0.3952 H   0  0  0  0  0  0  0  0  0  0  0  0
    1.9202   -4.4419   -1.4970 H   0  0  0  0  0  0  0  0  0  0  0  0
    1.4162   -5.2613    0.7132 H   0  0  0  0  0  0  0  0  0  0  0  0
    2.8170   -6.0462    0.0893 H   0  0  0  0  0  0  0  0  0  0  0  0
    2.1258   -2.7802    1.6373 H   0  0  0  0  0  0  0  0  0  0  0  0
    3.3567   -2.8169    2.9006 H   0  0  0  0  0  0  0  0  0  0  0  0
    1.8188   -3.6397    3.0550 H   0  0  0  0  0  0  0  0  0  0  0  0
    5.2592   -8.6874    3.4116 H   0  0  0  0  0  0  0  0  0  0  0  0
    2.3093   -8.6838    4.0443 H   0  0  0  0  0  0  0  0  0  0  0  0
    3.8863  -10.4341    2.1109 H   0  0  0  0  0  0  0  0  0  0  0  0
    2.8668   -9.0865    1.6021 H   0  0  0  0  0  0  0  0  0  0  0  0
    2.1453  -10.4626    2.4008 H   0  0  0  0  0  0  0  0  0  0  0  0
  1  2  1  0
  1 31  1  0
  1 32  1  0
  1 33  1  0
  2 29  1  0
  2  3  1  0
  2 34  1  6
  3  4  1  0
  3 35  1  0
  3 36  1  0
  4  5  1  0
  4 37  1  0
  4 38  1  0
  5 28  1  0
  5  6  1  6
  5  7  1  0
  6 39  1  0
  6 40  1  0
  6 41  1  0
  7  8  1  0
  7 42  1  0
  7 43  1  0
  8  9  1  0
  8 44  1  0
  8 45  1  0
  9 26  1  0
  9 10  1  1
  9 11  1  0
 10 46  1  0
 10 47  1  0
 10 48  1  0
 11 12  2  0
 11 28  1  0
 12 13  1  0
 12 49  1  0
 13 14  1  0
 13 50  1  0
 13 51  1  0
 14 26  1  0
 14 15  1  0
 14 52  1  1
 15 23  1  0
 15 16  1  6
 15 17  1  0
 16 53  1  0
 16 54  1  0
 16 55  1  0
 17 18  1  0
 17 56  1  0
 17 57  1  0
 18 19  1  0
 18 58  1  0
 18 59  1  0
 19 20  1  0
 19 21  1  0
 19 60  1  1
 20 61  1  0
 21 22  1  0
 21 23  1  0
 21 62  1  6
 22 63  1  0
 22 64  1  0
 22 65  1  0
 23 24  1  0
 23 66  1  6
 24 25  1  0
 24 67  1  0
 24 68  1  0
 25 26  1  0
 25 69  1  0
 25 70  1  0
 26 27  1  1
 27 71  1  0
 27 72  1  0
 27 73  1  0
 28 29  1  0
 28 74  1  6
 29 30  1  0
 29 75  1  1
 30 76  1  0
 30 77  1  0
 30 78  1  0
M  END
>  <i_m_ct_stereo_status>  (283) 
1

>  <s_m_source_file>  (283) 
/var/tmp/pbs.5076255.sched01/tmpwmgilt76/96rd2vfdyj.sdf

>  <i_m_source_file_index>  (283) 
25

>  <i_lp_mmshare_version>  (283) 
48012

>  <i_f3d_flags>  (283) 
0

>  <s_epik_input>  (283) 
W0NIMl0xW0NIMl1bQ0BASF0oW0NIM10pW0NASF0oW0NIM10pW0NASF0oW0NAXTEyW0NIM10pQz0zW0NAQF0oW0NIM10pKFtDSDJdW0NIMl0yKVtDQEBdNChbQ0gzXSlbQ0BASF0oW0NIMl1bQ0hdMylbQ0BAXTUoW0NIM10pW0NAQEhdKFtDSDJdW0NIMl00KVtDQEhdKFtDSDNdKVtDQEhdKFtPSF0pW0NIMl1bQ0gyXTU=

>  <s_epik_cmdline>  (283) 
J2VwaWtfcHl0aG9uJywgJy1waHQnLCAnMi4wJywgJy1waCcsICc3LjAnLCAnLXRuJywgJzgnLCAnLW1hJywgJzIwMCcsICctaW1hZScsICc8aW5maWxlLm1hZT4nLCAnLW9tYWUnLCAnPG91dGZpbGUubWFlPic=

>  <r_lp_tautomer_probability>  (283) 
1

>  <r_epik_Ionization_Penalty>  (283) 
2.82826e-06

>  <r_epik_Ionization_Penalty_Charging>  (283) 
0

>  <r_epik_Ionization_Penalty_Neutral>  (283) 
2.82826e-06

>  <r_epik_State_Penalty>  (283) 
-0

>  <r_epik_Charging_Adjusted_Penalty>  (283) 
0

>  <i_epik_Tot_Q>  (283) 
0

>  <i_epik_Tot_abs_Q>  (283) 
0

>  <s_lp_Force_Field>  (283) 
OPLS3e

>  <r_lp_Energy>  (283) 
91.5684

>  <b_lp_Chiralities_Consistent>  (283) 
1

>  <s_lp_Variant>  (283) 
72:0-1

>  <s_i_glide_gridfile>  (283) 
pfpi4k_grid

>  <i_i_glide_lignum>  (283) 
25

>  <i_i_glide_rotatable_bonds>  (283) 
1

>  <r_i_docking_score>  (283) 
-2.88656

>  <r_i_glide_ligand_efficiency>  (283) 
-0.0962186

>  <r_i_glide_ligand_efficiency_sa>  (283) 
-0.298973

>  <r_i_glide_ligand_efficiency_ln>  (283) 
-0.655857

>  <r_i_glide_gscore>  (283) 
-2.88656

>  <r_i_glide_lipo>  (283) 
-0.468747

>  <r_i_glide_hbond>  (283) 
-0.163092

>  <r_i_glide_metal>  (283) 
-0

>  <r_i_glide_rewards>  (283) 
-0.59529

>  <r_i_glide_evdw>  (283) 
-25.5758

>  <r_i_glide_ecoul>  (283) 
-2.53761

>  <r_i_glide_erotb>  (283) 
0

>  <r_i_glide_esite>  (283) 
0

>  <r_i_glide_emodel>  (283) 
-32.0779

>  <r_i_glide_energy>  (283) 
-28.1134

>  <r_i_glide_einternal>  (283) 
1.15278

>  <r_i_glide_intrahb_reward>  (283) 
-0

>  <i_i_glide_confnum>  (283) 
1

>  <i_i_glide_posenum>  (283) 
10

>  <r_i_glide_eff_state_penalty>  (283) 
0

>  <ligand_id>  (283) 
72

>  <original_smiles>  (283) 
CC1CCC2(C)CCC3(C)C(=CCC4C5(C)CCC(O)C(C)C5CCC43C)C2C1C

>  <smiles>  (283) 
[H]OC1([H])C([H])([H])C([H])([H])C2(C([H])([H])[H])C([H])(C([H])([H])C([H])([H])C3(C([H])([H])[H])C2([H])C([H])([H])C([H])=C2C4([H])C([H])(C([H])([H])[H])C([H])(C([H])([H])[H])C([H])([H])C([H])([H])C4(C([H])([H])[H])C([H])([H])C([H])([H])C23C([H])([H])[H])C1([H])C([H])([H])[H]

$$$$
72:0:1
     RDKit          3D

 78 82  0  0  1  0  0  0  0  0999 V2000
    0.3827   -9.4386    7.0931 C   0  0  0  0  0  0  0  0  0  0  0  0
    1.7964   -8.9533    6.7213 C   0  0  2  0  0  0  0  0  0  0  0  0
    2.4618   -8.2886    7.9343 C   0  0  0  0  0  0  0  0  0  0  0  0
    3.9297   -7.9699    7.6449 C   0  0  0  0  0  0  0  0  0  0  0  0
    4.1605   -7.0643    6.4067 C   0  0  2  0  0  0  0  0  0  0  0  0
    5.6701   -7.1750    6.0771 C   0  0  0  0  0  0  0  0  0  0  0  0
    3.8269   -5.5878    6.7228 C   0  0  0  0  0  0  0  0  0  0  0  0
    3.9679   -4.6396    5.5018 C   0  0  0  0  0  0  0  0  0  0  0  0
    3.1501   -5.0609    4.2324 C   0  0  2  0  0  0  0  0  0  0  0  0
    1.6371   -4.8875    4.5626 C   0  0  0  0  0  0  0  0  0  0  0  0
    3.4913   -6.5547    4.0186 C   0  0  0  0  0  0  0  0  0  0  0  0
    4.1682   -6.9822    2.9437 C   0  0  0  0  0  0  0  0  0  0  0  0
    4.7403   -6.1080    1.8651 C   0  0  0  0  0  0  0  0  0  0  0  0
    4.8097   -4.5814    2.1948 C   0  0  1  0  0  0  0  0  0  0  0  0
    5.2196   -3.7774    0.8702 C   0  0  2  0  0  0  0  0  0  0  0  0
    6.4404   -4.5105    0.2463 C   0  0  0  0  0  0  0  0  0  0  0  0
    5.7147   -2.3185    1.1310 C   0  0  0  0  0  0  0  0  0  0  0  0
    5.9683   -1.4814   -0.1389 C   0  0  0  0  0  0  0  0  0  0  0  0
    4.7258   -1.4516   -1.0430 C   0  0  1  0  0  0  0  0  0  0  0  0
    5.0053   -0.6966   -2.2046 O   0  0  0  0  0  0  0  0  0  0  0  0
    4.2137   -2.8658   -1.4080 C   0  0  1  0  0  0  0  0  0  0  0  0
    5.0154   -3.5463   -2.5406 C   0  0  0  0  0  0  0  0  0  0  0  0
    4.0153   -3.7607   -0.1409 C   0  0  2  0  0  0  0  0  0  0  0  0
    2.6883   -3.4047    0.5580 C   0  0  0  0  0  0  0  0  0  0  0  0
    2.3882   -4.2185    1.8400 C   0  0  0  0  0  0  0  0  0  0  0  0
    3.4878   -4.1392    2.9438 C   0  0  1  0  0  0  0  0  0  0  0  0
    3.5469   -2.6677    3.4587 C   0  0  0  0  0  0  0  0  0  0  0  0
    3.3072   -7.5466    5.1917 C   0  0  2  0  0  0  0  0  0  0  0  0
    1.8384   -7.9769    5.5170 C   0  0  1  0  0  0  0  0  0  0  0  0
    1.1413   -8.5679    4.2738 C   0  0  0  0  0  0  0  0  0  0  0  0
   -0.2931   -8.6046    7.2865 H   0  0  0  0  0  0  0  0  0  0  0  0
    0.4122  -10.0602    7.9902 H   0  0  0  0  0  0  0  0  0  0  0  0
   -0.0477  -10.0590    6.3049 H   0  0  0  0  0  0  0  0  0  0  0  0
    2.3770   -9.8446    6.4711 H   0  0  0  0  0  0  0  0  0  0  0  0
    1.9255   -7.3824    8.2167 H   0  0  0  0  0  0  0  0  0  0  0  0
    2.4081   -8.9514    8.7999 H   0  0  0  0  0  0  0  0  0  0  0  0
    4.3834   -7.5181    8.5269 H   0  0  0  0  0  0  0  0  0  0  0  0
    4.4439   -8.9217    7.4996 H   0  0  0  0  0  0  0  0  0  0  0  0
    5.9535   -6.5971    5.1972 H   0  0  0  0  0  0  0  0  0  0  0  0
    5.9537   -8.2095    5.8773 H   0  0  0  0  0  0  0  0  0  0  0  0
    6.2851   -6.8225    6.9067 H   0  0  0  0  0  0  0  0  0  0  0  0
    2.8215   -5.5198    7.1334 H   0  0  0  0  0  0  0  0  0  0  0  0
    4.4780   -5.2288    7.5214 H   0  0  0  0  0  0  0  0  0  0  0  0
    3.6792   -3.6510    5.8526 H   0  0  0  0  0  0  0  0  0  0  0  0
    5.0204   -4.5541    5.2351 H   0  0  0  0  0  0  0  0  0  0  0  0
    1.2752   -3.8724    4.4169 H   0  0  0  0  0  0  0  0  0  0  0  0
    1.3969   -5.0852    5.6010 H   0  0  0  0  0  0  0  0  0  0  0  0
    1.0146   -5.5346    3.9438 H   0  0  0  0  0  0  0  0  0  0  0  0
    4.4317   -8.0256    2.8536 H   0  0  0  0  0  0  0  0  0  0  0  0
    5.7463   -6.4963    1.7123 H   0  0  0  0  0  0  0  0  0  0  0  0
    4.1767   -6.3237    0.9593 H   0  0  0  0  0  0  0  0  0  0  0  0
    5.6255   -4.4574    2.9078 H   0  0  0  0  0  0  0  0  0  0  0  0
    6.9979   -3.9150   -0.4676 H   0  0  0  0  0  0  0  0  0  0  0  0
    6.1407   -5.4125   -0.2880 H   0  0  0  0  0  0  0  0  0  0  0  0
    7.1653   -4.7913    1.0111 H   0  0  0  0  0  0  0  0  0  0  0  0
    4.9966   -1.7345    1.6793 H   0  0  0  0  0  0  0  0  0  0  0  0
    6.6144   -2.3317    1.7448 H   0  0  0  0  0  0  0  0  0  0  0  0
    6.2110   -0.4592    0.1563 H   0  0  0  0  0  0  0  0  0  0  0  0
    6.8359   -1.8355   -0.6907 H   0  0  0  0  0  0  0  0  0  0  0  0
    3.9362   -0.9161   -0.5135 H   0  0  0  0  0  0  0  0  0  0  0  0
    4.1808   -0.5070   -2.6343 H   0  0  0  0  0  0  0  0  0  0  0  0
    3.2246   -2.7253   -1.8483 H   0  0  0  0  0  0  0  0  0  0  0  0
    6.0888   -3.5493   -2.3663 H   0  0  0  0  0  0  0  0  0  0  0  0
    4.8549   -3.0400   -3.4933 H   0  0  0  0  0  0  0  0  0  0  0  0
    4.6948   -4.5797   -2.6762 H   0  0  0  0  0  0  0  0  0  0  0  0
    3.8665   -4.7723   -0.5186 H   0  0  0  0  0  0  0  0  0  0  0  0
    2.6476   -2.3375    0.7605 H   0  0  0  0  0  0  0  0  0  0  0  0
    1.8787   -3.5771   -0.1498 H   0  0  0  0  0  0  0  0  0  0  0  0
    1.4360   -3.8587    2.2225 H   0  0  0  0  0  0  0  0  0  0  0  0
    2.2124   -5.2570    1.5600 H   0  0  0  0  0  0  0  0  0  0  0  0
    3.2609   -1.9266    2.7210 H   0  0  0  0  0  0  0  0  0  0  0  0
    4.5400   -2.4184    3.8340 H   0  0  0  0  0  0  0  0  0  0  0  0
    2.8469   -2.4653    4.2648 H   0  0  0  0  0  0  0  0  0  0  0  0
    3.7739   -8.4832    4.8817 H   0  0  0  0  0  0  0  0  0  0  0  0
    1.2531   -7.1216    5.8337 H   0  0  0  0  0  0  0  0  0  0  0  0
    1.5963   -9.5145    3.9766 H   0  0  0  0  0  0  0  0  0  0  0  0
    1.1951   -7.8921    3.4205 H   0  0  0  0  0  0  0  0  0  0  0  0
    0.0832   -8.7501    4.4579 H   0  0  0  0  0  0  0  0  0  0  0  0
  1  2  1  0
  1 31  1  0
  1 32  1  0
  1 33  1  0
  2 29  1  0
  2  3  1  0
  2 34  1  6
  3  4  1  0
  3 35  1  0
  3 36  1  0
  4  5  1  0
  4 37  1  0
  4 38  1  0
  5 28  1  0
  5  6  1  6
  5  7  1  0
  6 39  1  0
  6 40  1  0
  6 41  1  0
  7  8  1  0
  7 42  1  0
  7 43  1  0
  8  9  1  0
  8 44  1  0
  8 45  1  0
  9 26  1  0
  9 10  1  1
  9 11  1  0
 10 46  1  0
 10 47  1  0
 10 48  1  0
 11 12  2  0
 11 28  1  0
 12 13  1  0
 12 49  1  0
 13 14  1  0
 13 50  1  0
 13 51  1  0
 14 26  1  0
 14 15  1  0
 14 52  1  1
 15 23  1  0
 15 16  1  6
 15 17  1  0
 16 53  1  0
 16 54  1  0
 16 55  1  0
 17 18  1  0
 17 56  1  0
 17 57  1  0
 18 19  1  0
 18 58  1  0
 18 59  1  0
 19 20  1  0
 19 21  1  0
 19 60  1  1
 20 61  1  0
 21 22  1  0
 21 23  1  0
 21 62  1  6
 22 63  1  0
 22 64  1  0
 22 65  1  0
 23 24  1  0
 23 66  1  6
 24 25  1  0
 24 67  1  0
 24 68  1  0
 25 26  1  0
 25 69  1  0
 25 70  1  0
 26 27  1  1
 27 71  1  0
 27 72  1  0
 27 73  1  0
 28 29  1  0
 28 74  1  6
 29 30  1  0
 29 75  1  1
 30 76  1  0
 30 77  1  0
 30 78  1  0
M  END
>  <i_m_ct_stereo_status>  (284) 
1

>  <s_m_source_file>  (284) 
/var/tmp/pbs.5076255.sched01/tmpwmgilt76/96rd2vfdyj.sdf

>  <i_m_source_file_index>  (284) 
25

>  <i_lp_mmshare_version>  (284) 
48012

>  <i_f3d_flags>  (284) 
0

>  <s_epik_input>  (284) 
W0NIMl0xW0NIMl1bQ0BASF0oW0NIM10pW0NASF0oW0NIM10pW0NASF0oW0NAXTEyW0NIM10pQz0zW0NAQF0oW0NIM10pKFtDSDJdW0NIMl0yKVtDQEBdNChbQ0gzXSlbQ0BASF0oW0NIMl1bQ0hdMylbQ0BAXTUoW0NIM10pW0NAQEhdKFtDSDJdW0NIMl00KVtDQEhdKFtDSDNdKVtDQEhdKFtPSF0pW0NIMl1bQ0gyXTU=

>  <s_epik_cmdline>  (284) 
J2VwaWtfcHl0aG9uJywgJy1waHQnLCAnMi4wJywgJy1waCcsICc3LjAnLCAnLXRuJywgJzgnLCAnLW1hJywgJzIwMCcsICctaW1hZScsICc8aW5maWxlLm1hZT4nLCAnLW9tYWUnLCAnPG91dGZpbGUubWFlPic=

>  <r_lp_tautomer_probability>  (284) 
1

>  <r_epik_Ionization_Penalty>  (284) 
2.82826e-06

>  <r_epik_Ionization_Penalty_Charging>  (284) 
0

>  <r_epik_Ionization_Penalty_Neutral>  (284) 
2.82826e-06

>  <r_epik_State_Penalty>  (284) 
-0

>  <r_epik_Charging_Adjusted_Penalty>  (284) 
0

>  <i_epik_Tot_Q>  (284) 
0

>  <i_epik_Tot_abs_Q>  (284) 
0

>  <s_lp_Force_Field>  (284) 
OPLS3e

>  <r_lp_Energy>  (284) 
91.5684

>  <b_lp_Chiralities_Consistent>  (284) 
1

>  <s_lp_Variant>  (284) 
72:0-1

>  <s_i_glide_gridfile>  (284) 
pfpi4k_grid

>  <i_i_glide_lignum>  (284) 
25

>  <i_i_glide_rotatable_bonds>  (284) 
1

>  <r_i_docking_score>  (284) 
-2.41463

>  <r_i_glide_ligand_efficiency>  (284) 
-0.0804875

>  <r_i_glide_ligand_efficiency_sa>  (284) 
-0.250093

>  <r_i_glide_ligand_efficiency_ln>  (284) 
-0.548629

>  <r_i_glide_gscore>  (284) 
-2.41463

>  <r_i_glide_lipo>  (284) 
-0.383932

>  <r_i_glide_hbond>  (284) 
0

>  <r_i_glide_metal>  (284) 
-0

>  <r_i_glide_rewards>  (284) 
-0.59529

>  <r_i_glide_evdw>  (284) 
-24.6373

>  <r_i_glide_ecoul>  (284) 
-1.35692

>  <r_i_glide_erotb>  (284) 
0

>  <r_i_glide_esite>  (284) 
0

>  <r_i_glide_emodel>  (284) 
-29.8795

>  <r_i_glide_energy>  (284) 
-25.9943

>  <r_i_glide_einternal>  (284) 
0.382057

>  <r_i_glide_intrahb_reward>  (284) 
-0

>  <i_i_glide_confnum>  (284) 
2

>  <i_i_glide_posenum>  (284) 
19

>  <r_i_glide_eff_state_penalty>  (284) 
0

>  <ligand_id>  (284) 
72

>  <original_smiles>  (284) 
CC1CCC2(C)CCC3(C)C(=CCC4C5(C)CCC(O)C(C)C5CCC43C)C2C1C

>  <smiles>  (284) 
[H]OC1([H])C([H])([H])C([H])([H])C2(C([H])([H])[H])C([H])(C([H])([H])C([H])([H])C3(C([H])([H])[H])C2([H])C([H])([H])C([H])=C2C4([H])C([H])(C([H])([H])[H])C([H])(C([H])([H])[H])C([H])([H])C([H])([H])C4(C([H])([H])[H])C([H])([H])C([H])([H])C23C([H])([H])[H])C1([H])C([H])([H])[H]

$$$$
72:0:2
     RDKit          3D

 78 82  0  0  1  0  0  0  0  0999 V2000
   -0.0631   -9.0334    7.7482 C   0  0  0  0  0  0  0  0  0  0  0  0
    1.2321   -9.0651    6.9234 C   0  0  2  0  0  0  0  0  0  0  0  0
    2.4437   -9.0820    7.8663 C   0  0  0  0  0  0  0  0  0  0  0  0
    3.7263   -9.3176    7.0725 C   0  0  0  0  0  0  0  0  0  0  0  0
    3.9888   -8.2798    5.9544 C   0  0  2  0  0  0  0  0  0  0  0  0
    5.0963   -8.8901    5.0599 C   0  0  0  0  0  0  0  0  0  0  0  0
    4.5038   -6.9441    6.5344 C   0  0  0  0  0  0  0  0  0  0  0  0
    4.7078   -5.8310    5.4661 C   0  0  0  0  0  0  0  0  0  0  0  0
    3.4598   -5.5274    4.5693 C   0  0  2  0  0  0  0  0  0  0  0  0
    2.3827   -4.8600    5.4719 C   0  0  0  0  0  0  0  0  0  0  0  0
    2.9769   -6.9112    4.0778 C   0  0  0  0  0  0  0  0  0  0  0  0
    3.0256   -7.2644    2.7856 C   0  0  0  0  0  0  0  0  0  0  0  0
    3.6048   -6.4287    1.6772 C   0  0  0  0  0  0  0  0  0  0  0  0
    4.4723   -5.2102    2.1225 C   0  0  1  0  0  0  0  0  0  0  0  0
    4.8028   -4.3033    0.8475 C   0  0  2  0  0  0  0  0  0  0  0  0
    5.2806   -5.2606   -0.2727 C   0  0  0  0  0  0  0  0  0  0  0  0
    5.9932   -3.3075    1.0483 C   0  0  0  0  0  0  0  0  0  0  0  0
    6.2362   -2.3319   -0.1211 C   0  0  0  0  0  0  0  0  0  0  0  0
    4.9610   -1.5592   -0.4778 C   0  0  1  0  0  0  0  0  0  0  0  0
    5.2213   -0.6834   -1.5530 O   0  0  0  0  0  0  0  0  0  0  0  0
    3.7605   -2.4853   -0.7644 C   0  0  1  0  0  0  0  0  0  0  0  0
    3.7615   -3.0924   -2.1845 C   0  0  0  0  0  0  0  0  0  0  0  0
    3.5228   -3.5330    0.3753 C   0  0  2  0  0  0  0  0  0  0  0  0
    2.7886   -2.8798    1.5640 C   0  0  0  0  0  0  0  0  0  0  0  0
    2.5214   -3.8183    2.7681 C   0  0  0  0  0  0  0  0  0  0  0  0
    3.7932   -4.5014    3.3628 C   0  0  1  0  0  0  0  0  0  0  0  0
    4.6928   -3.3837    3.9770 C   0  0  0  0  0  0  0  0  0  0  0  0
    2.7053   -8.0282    5.1081 C   0  0  2  0  0  0  0  0  0  0  0  0
    1.3723   -7.8974    5.9168 C   0  0  1  0  0  0  0  0  0  0  0  0
    0.1552   -7.8007    4.9787 C   0  0  0  0  0  0  0  0  0  0  0  0
   -0.1853   -8.0915    8.2826 H   0  0  0  0  0  0  0  0  0  0  0  0
   -0.0408   -9.8396    8.4768 H   0  0  0  0  0  0  0  0  0  0  0  0
   -0.9387   -9.2023    7.1200 H   0  0  0  0  0  0  0  0  0  0  0  0
    1.2212  -10.0100    6.3794 H   0  0  0  0  0  0  0  0  0  0  0  0
    2.5067   -8.1549    8.4335 H   0  0  0  0  0  0  0  0  0  0  0  0
    2.3333   -9.8855    8.6007 H   0  0  0  0  0  0  0  0  0  0  0  0
    4.5752   -9.3489    7.7597 H   0  0  0  0  0  0  0  0  0  0  0  0
    3.6614  -10.3182    6.6399 H   0  0  0  0  0  0  0  0  0  0  0  0
    5.3505   -8.2614    4.2083 H   0  0  0  0  0  0  0  0  0  0  0  0
    4.7860   -9.8553    4.6522 H   0  0  0  0  0  0  0  0  0  0  0  0
    6.0158   -9.0587    5.6217 H   0  0  0  0  0  0  0  0  0  0  0  0
    3.8158   -6.5931    7.3026 H   0  0  0  0  0  0  0  0  0  0  0  0
    5.4425   -7.1080    7.0571 H   0  0  0  0  0  0  0  0  0  0  0  0
    5.0410   -4.9525    6.0091 H   0  0  0  0  0  0  0  0  0  0  0  0
    5.5499   -6.1096    4.8294 H   0  0  0  0  0  0  0  0  0  0  0  0
    2.5193   -3.7895    5.5901 H   0  0  0  0  0  0  0  0  0  0  0  0
    2.3914   -5.2215    6.4935 H   0  0  0  0  0  0  0  0  0  0  0  0
    1.3793   -5.0064    5.0711 H   0  0  0  0  0  0  0  0  0  0  0  0
    2.7304   -8.2597    2.4814 H   0  0  0  0  0  0  0  0  0  0  0  0
    4.2123   -7.1325    1.1071 H   0  0  0  0  0  0  0  0  0  0  0  0
    2.7687   -6.1490    1.0326 H   0  0  0  0  0  0  0  0  0  0  0  0
    5.4168   -5.6270    2.4768 H   0  0  0  0  0  0  0  0  0  0  0  0
    5.7914   -4.7531   -1.0851 H   0  0  0  0  0  0  0  0  0  0  0  0
    4.4562   -5.8084   -0.7333 H   0  0  0  0  0  0  0  0  0  0  0  0
    5.9971   -5.9927    0.1036 H   0  0  0  0  0  0  0  0  0  0  0  0
    5.8330   -2.6593    1.8911 H   0  0  0  0  0  0  0  0  0  0  0  0
    6.9113   -3.8526    1.2694 H   0  0  0  0  0  0  0  0  0  0  0  0
    7.0059   -1.6169    0.1764 H   0  0  0  0  0  0  0  0  0  0  0  0
    6.6385   -2.8320   -0.9988 H   0  0  0  0  0  0  0  0  0  0  0  0
    4.7061   -0.9216    0.3703 H   0  0  0  0  0  0  0  0  0  0  0  0
    4.5250   -0.0474   -1.6092 H   0  0  0  0  0  0  0  0  0  0  0  0
    2.8754   -1.8526   -0.7776 H   0  0  0  0  0  0  0  0  0  0  0  0
    4.6979   -3.5793   -2.4474 H   0  0  0  0  0  0  0  0  0  0  0  0
    3.5910   -2.3221   -2.9402 H   0  0  0  0  0  0  0  0  0  0  0  0
    2.9620   -3.8251   -2.2993 H   0  0  0  0  0  0  0  0  0  0  0  0
    2.8159   -4.2572   -0.0261 H   0  0  0  0  0  0  0  0  0  0  0  0
    3.3257   -1.9905    1.8878 H   0  0  0  0  0  0  0  0  0  0  0  0
    1.8266   -2.5040    1.2178 H   0  0  0  0  0  0  0  0  0  0  0  0
    1.9984   -3.2226    3.5165 H   0  0  0  0  0  0  0  0  0  0  0  0
    1.8068   -4.5807    2.4590 H   0  0  0  0  0  0  0  0  0  0  0  0
    4.5991   -2.4171    3.4929 H   0  0  0  0  0  0  0  0  0  0  0  0
    5.7485   -3.6682    3.9665 H   0  0  0  0  0  0  0  0  0  0  0  0
    4.4465   -3.1452    5.0077 H   0  0  0  0  0  0  0  0  0  0  0  0
    2.5562   -8.9471    4.5433 H   0  0  0  0  0  0  0  0  0  0  0  0
    1.3777   -7.0065    6.5304 H   0  0  0  0  0  0  0  0  0  0  0  0
   -0.0056   -8.7317    4.4310 H   0  0  0  0  0  0  0  0  0  0  0  0
    0.2699   -6.9967    4.2498 H   0  0  0  0  0  0  0  0  0  0  0  0
   -0.7551   -7.5821    5.5291 H   0  0  0  0  0  0  0  0  0  0  0  0
  1  2  1  0
  1 31  1  0
  1 32  1  0
  1 33  1  0
  2 29  1  0
  2  3  1  0
  2 34  1  6
  3  4  1  0
  3 35  1  0
  3 36  1  0
  4  5  1  0
  4 37  1  0
  4 38  1  0
  5 28  1  0
  5  6  1  6
  5  7  1  0
  6 39  1  0
  6 40  1  0
  6 41  1  0
  7  8  1  0
  7 42  1  0
  7 43  1  0
  8  9  1  0
  8 44  1  0
  8 45  1  0
  9 26  1  0
  9 10  1  1
  9 11  1  0
 10 46  1  0
 10 47  1  0
 10 48  1  0
 11 12  2  0
 11 28  1  0
 12 13  1  0
 12 49  1  0
 13 14  1  0
 13 50  1  0
 13 51  1  0
 14 26  1  0
 14 15  1  0
 14 52  1  1
 15 23  1  0
 15 16  1  6
 15 17  1  0
 16 53  1  0
 16 54  1  0
 16 55  1  0
 17 18  1  0
 17 56  1  0
 17 57  1  0
 18 19  1  0
 18 58  1  0
 18 59  1  0
 19 20  1  0
 19 21  1  0
 19 60  1  1
 20 61  1  0
 21 22  1  0
 21 23  1  0
 21 62  1  6
 22 63  1  0
 22 64  1  0
 22 65  1  0
 23 24  1  0
 23 66  1  6
 24 25  1  0
 24 67  1  0
 24 68  1  0
 25 26  1  0
 25 69  1  0
 25 70  1  0
 26 27  1  1
 27 71  1  0
 27 72  1  0
 27 73  1  0
 28 29  1  0
 28 74  1  6
 29 30  1  0
 29 75  1  1
 30 76  1  0
 30 77  1  0
 30 78  1  0
M  END
>  <i_m_ct_stereo_status>  (285) 
1

>  <s_m_source_file>  (285) 
/var/tmp/pbs.5076255.sched01/tmpwmgilt76/96rd2vfdyj.sdf

>  <i_m_source_file_index>  (285) 
25

>  <i_lp_mmshare_version>  (285) 
48012

>  <i_f3d_flags>  (285) 
0

>  <s_epik_input>  (285) 
W0NIMl0xW0NIMl1bQ0BASF0oW0NIM10pW0NASF0oW0NIM10pW0NASF0oW0NAXTEyW0NIM10pQz0zW0NAQF0oW0NIM10pKFtDSDJdW0NIMl0yKVtDQEBdNChbQ0gzXSlbQ0BASF0oW0NIMl1bQ0hdMylbQ0BAXTUoW0NIM10pW0NAQEhdKFtDSDJdW0NIMl00KVtDQEhdKFtDSDNdKVtDQEhdKFtPSF0pW0NIMl1bQ0gyXTU=

>  <s_epik_cmdline>  (285) 
J2VwaWtfcHl0aG9uJywgJy1waHQnLCAnMi4wJywgJy1waCcsICc3LjAnLCAnLXRuJywgJzgnLCAnLW1hJywgJzIwMCcsICctaW1hZScsICc8aW5maWxlLm1hZT4nLCAnLW9tYWUnLCAnPG91dGZpbGUubWFlPic=

>  <r_lp_tautomer_probability>  (285) 
1

>  <r_epik_Ionization_Penalty>  (285) 
2.82826e-06

>  <r_epik_Ionization_Penalty_Charging>  (285) 
0

>  <r_epik_Ionization_Penalty_Neutral>  (285) 
2.82826e-06

>  <r_epik_State_Penalty>  (285) 
-0

>  <r_epik_Charging_Adjusted_Penalty>  (285) 
0

>  <i_epik_Tot_Q>  (285) 
0

>  <i_epik_Tot_abs_Q>  (285) 
0

>  <s_lp_Force_Field>  (285) 
OPLS3e

>  <r_lp_Energy>  (285) 
91.5684

>  <b_lp_Chiralities_Consistent>  (285) 
1

>  <s_lp_Variant>  (285) 
72:0-1

>  <s_i_glide_gridfile>  (285) 
pfpi4k_grid

>  <i_i_glide_lignum>  (285) 
25

>  <i_i_glide_rotatable_bonds>  (285) 
1

>  <r_i_docking_score>  (285) 
-2.26466

>  <r_i_glide_ligand_efficiency>  (285) 
-0.0754887

>  <r_i_glide_ligand_efficiency_sa>  (285) 
-0.234561

>  <r_i_glide_ligand_efficiency_ln>  (285) 
-0.514556

>  <r_i_glide_gscore>  (285) 
-2.26466

>  <r_i_glide_lipo>  (285) 
-0.19425

>  <r_i_glide_hbond>  (285) 
-0.0100707

>  <r_i_glide_metal>  (285) 
-0

>  <r_i_glide_rewards>  (285) 
-0.59529

>  <r_i_glide_evdw>  (285) 
-22.9145

>  <r_i_glide_ecoul>  (285) 
-2.12882

>  <r_i_glide_erotb>  (285) 
0

>  <r_i_glide_esite>  (285) 
0

>  <r_i_glide_emodel>  (285) 
-28.6025

>  <r_i_glide_energy>  (285) 
-25.0434

>  <r_i_glide_einternal>  (285) 
0.426238

>  <r_i_glide_intrahb_reward>  (285) 
-0

>  <i_i_glide_confnum>  (285) 
2

>  <i_i_glide_posenum>  (285) 
16

>  <r_i_glide_eff_state_penalty>  (285) 
0

>  <ligand_id>  (285) 
72

>  <original_smiles>  (285) 
CC1CCC2(C)CCC3(C)C(=CCC4C5(C)CCC(O)C(C)C5CCC43C)C2C1C

>  <smiles>  (285) 
[H]OC1([H])C([H])([H])C([H])([H])C2(C([H])([H])[H])C([H])(C([H])([H])C([H])([H])C3(C([H])([H])[H])C2([H])C([H])([H])C([H])=C2C4([H])C([H])(C([H])([H])[H])C([H])(C([H])([H])[H])C([H])([H])C([H])([H])C4(C([H])([H])[H])C([H])([H])C([H])([H])C23C([H])([H])[H])C1([H])C([H])([H])[H]

$$$$
73:0:0
     RDKit          3D

 24 26  0  0  1  0  0  0  0  0999 V2000
    2.9255   -9.2553    2.1101 Cl  0  0  0  0  0  0  0  0  0  0  0  0
    1.3609   -8.5560    2.3250 C   0  0  0  0  0  0  0  0  0  0  0  0
    0.3150   -9.3802    2.7865 C   0  0  0  0  0  0  0  0  0  0  0  0
   -0.9813   -8.8459    2.8889 C   0  0  0  0  0  0  0  0  0  0  0  0
   -1.1744   -7.5004    2.5433 C   0  0  0  0  0  0  0  0  0  0  0  0
   -0.1851   -6.6925    2.1119 N   0  0  0  0  0  0  0  0  0  0  0  0
    1.0712   -7.2029    1.9974 C   0  0  0  0  0  0  0  0  0  0  0  0
    2.0578   -6.3297    1.4639 N   0  0  0  0  0  0  0  0  0  0  0  0
    3.3050   -6.1609    1.9319 C   0  0  0  0  0  0  0  0  0  0  0  0
    3.9925   -5.2302    1.2676 N   0  0  0  0  0  0  0  0  0  0  0  0
    3.0244   -4.8597    0.3705 C   0  0  0  0  0  0  0  0  0  0  0  0
    3.2326   -3.8497   -0.6784 C   0  0  0  0  0  0  0  0  0  0  0  0
    2.3571   -3.4490   -1.7254 C   0  0  0  0  0  0  0  0  0  0  0  0
    3.0156   -2.4821   -2.4263 C   0  0  0  0  0  0  0  0  0  0  0  0
    4.2448   -2.2522   -1.8964 O   0  0  0  0  0  0  0  0  0  0  0  0
    4.3666   -3.0982   -0.8298 C   0  0  0  0  0  0  0  0  0  0  0  0
    1.8402   -5.4617    0.4561 N   0  0  0  0  0  0  0  0  0  0  0  0
    0.4902  -10.4195    3.0191 H   0  0  0  0  0  0  0  0  0  0  0  0
   -1.8058   -9.4586    3.2281 H   0  0  0  0  0  0  0  0  0  0  0  0
   -2.1577   -7.0591    2.6001 H   0  0  0  0  0  0  0  0  0  0  0  0
    3.7137   -6.7002    2.7744 H   0  0  0  0  0  0  0  0  0  0  0  0
    1.3617   -3.8174   -1.9343 H   0  0  0  0  0  0  0  0  0  0  0  0
    2.7483   -1.8770   -3.2765 H   0  0  0  0  0  0  0  0  0  0  0  0
    5.3059   -3.0352   -0.2948 H   0  0  0  0  0  0  0  0  0  0  0  0
  1  2  1  0
  2  7  2  0
  2  3  1  0
  3  4  2  0
  3 18  1  0
  4  5  1  0
  4 19  1  0
  5  6  2  0
  5 20  1  0
  6  7  1  0
  7  8  1  0
  8 17  1  0
  8  9  1  0
  9 10  2  0
  9 21  1  0
 10 11  1  0
 11 12  1  0
 11 17  2  0
 12 16  2  0
 12 13  1  0
 13 14  2  0
 13 22  1  0
 14 15  1  0
 14 23  1  0
 15 16  1  0
 16 24  1  0
M  END
>  <i_m_ct_stereo_status>  (286) 
1

>  <s_m_source_file>  (286) 
/var/tmp/pbs.5076255.sched01/tmpwmgilt76/96rd2vfdyj.sdf

>  <i_m_source_file_index>  (286) 
26

>  <i_lp_mmshare_version>  (286) 
48012

>  <i_f3d_flags>  (286) 
0

>  <s_epik_input>  (286) 
Q2xjMVtjSF1bY0hdW2NIXW5jMS1uMltjSF1uYyhuMiktYzNbY0hdW2NIXW9bY0hdMw==

>  <s_epik_cmdline>  (286) 
J2VwaWtfcHl0aG9uJywgJy1waHQnLCAnMi4wJywgJy1waCcsICc3LjAnLCAnLXRuJywgJzgnLCAnLW1hJywgJzIwMCcsICctaW1hZScsICc8aW5maWxlLm1hZT4nLCAnLW9tYWUnLCAnPG91dGZpbGUubWFlPic=

>  <r_lp_tautomer_probability>  (286) 
1

>  <r_epik_Ionization_Penalty>  (286) 
1.84433e-07

>  <r_epik_Ionization_Penalty_Charging>  (286) 
0

>  <r_epik_Ionization_Penalty_Neutral>  (286) 
1.84433e-07

>  <r_epik_State_Penalty>  (286) 
-0

>  <r_epik_Charging_Adjusted_Penalty>  (286) 
0

>  <i_epik_Tot_Q>  (286) 
0

>  <i_epik_Tot_abs_Q>  (286) 
0

>  <s_lp_Force_Field>  (286) 
OPLS3e

>  <r_lp_Energy>  (286) 
22.2373

>  <b_lp_Chiralities_Consistent>  (286) 
1

>  <s_lp_Variant>  (286) 
73:0-1

>  <s_i_glide_gridfile>  (286) 
pfpi4k_grid

>  <i_i_glide_lignum>  (286) 
26

>  <i_i_glide_rotatable_bonds>  (286) 
2

>  <r_i_docking_score>  (286) 
-3.51619

>  <r_i_glide_ligand_efficiency>  (286) 
-0.206835

>  <r_i_glide_ligand_efficiency_sa>  (286) 
-0.53183

>  <r_i_glide_ligand_efficiency_ln>  (286) 
-0.917296

>  <r_i_glide_gscore>  (286) 
-3.51619

>  <r_i_glide_lipo>  (286) 
-0.148558

>  <r_i_glide_hbond>  (286) 
-0.252254

>  <r_i_glide_metal>  (286) 
-0

>  <r_i_glide_rewards>  (286) 
-1.75576

>  <r_i_glide_evdw>  (286) 
-23.3407

>  <r_i_glide_ecoul>  (286) 
-4.46446

>  <r_i_glide_erotb>  (286) 
0.573083

>  <r_i_glide_esite>  (286) 
-0.0960004

>  <r_i_glide_emodel>  (286) 
-34.1311

>  <r_i_glide_energy>  (286) 
-27.8051

>  <r_i_glide_einternal>  (286) 
0.379604

>  <r_i_glide_intrahb_reward>  (286) 
-0

>  <i_i_glide_confnum>  (286) 
3

>  <i_i_glide_posenum>  (286) 
1

>  <r_i_glide_eff_state_penalty>  (286) 
0

>  <ligand_id>  (286) 
73

>  <original_smiles>  (286) 
Clc1cccnc1-n1cnc(-c2ccoc2)n1

>  <smiles>  (286) 
[H]c1nc(-n2nc(-c3c([H])oc([H])c3[H])nc2[H])c(Cl)c([H])c1[H]

$$$$
73:0:1
     RDKit          3D

 24 26  0  0  1  0  0  0  0  0999 V2000
    3.3696   -5.3231    3.9009 Cl  0  0  0  0  0  0  0  0  0  0  0  0
    2.1260   -6.0795    2.9661 C   0  0  0  0  0  0  0  0  0  0  0  0
    1.1924   -6.8857    3.6505 C   0  0  0  0  0  0  0  0  0  0  0  0
    0.1268   -7.4632    2.9355 C   0  0  0  0  0  0  0  0  0  0  0  0
    0.0471   -7.2271    1.5555 C   0  0  0  0  0  0  0  0  0  0  0  0
    0.9071   -6.4325    0.8982 N   0  0  0  0  0  0  0  0  0  0  0  0
    1.9526   -5.8810    1.5650 C   0  0  0  0  0  0  0  0  0  0  0  0
    2.7857   -5.0411    0.7736 N   0  0  0  0  0  0  0  0  0  0  0  0
    4.1156   -4.9144    0.8881 C   0  0  0  0  0  0  0  0  0  0  0  0
    4.6483   -4.1134   -0.0277 N   0  0  0  0  0  0  0  0  0  0  0  0
    3.5154   -3.8107   -0.7267 C   0  0  0  0  0  0  0  0  0  0  0  0
    3.5890   -2.9317   -1.8989 C   0  0  0  0  0  0  0  0  0  0  0  0
    4.5704   -1.9705   -2.2653 C   0  0  0  0  0  0  0  0  0  0  0  0
    4.1411   -1.4214   -3.4379 C   0  0  0  0  0  0  0  0  0  0  0  0
    2.9770   -1.9860   -3.8434 O   0  0  0  0  0  0  0  0  0  0  0  0
    2.6466   -2.9021   -2.8903 C   0  0  0  0  0  0  0  0  0  0  0  0
    2.3636   -4.3260   -0.2973 N   0  0  0  0  0  0  0  0  0  0  0  0
    1.2684   -7.0267    4.7186 H   0  0  0  0  0  0  0  0  0  0  0  0
   -0.6047   -8.0905    3.4265 H   0  0  0  0  0  0  0  0  0  0  0  0
   -0.7339   -7.6656    0.9544 H   0  0  0  0  0  0  0  0  0  0  0  0
    4.7190   -5.4098    1.6308 H   0  0  0  0  0  0  0  0  0  0  0  0
    5.4648   -1.7085   -1.7133 H   0  0  0  0  0  0  0  0  0  0  0  0
    4.5260   -0.6514   -4.0873 H   0  0  0  0  0  0  0  0  0  0  0  0
    1.7191   -3.4380   -3.0621 H   0  0  0  0  0  0  0  0  0  0  0  0
  1  2  1  0
  2  7  2  0
  2  3  1  0
  3  4  2  0
  3 18  1  0
  4  5  1  0
  4 19  1  0
  5  6  2  0
  5 20  1  0
  6  7  1  0
  7  8  1  0
  8 17  1  0
  8  9  1  0
  9 10  2  0
  9 21  1  0
 10 11  1  0
 11 12  1  0
 11 17  2  0
 12 16  2  0
 12 13  1  0
 13 14  2  0
 13 22  1  0
 14 15  1  0
 14 23  1  0
 15 16  1  0
 16 24  1  0
M  END
>  <i_m_ct_stereo_status>  (287) 
1

>  <s_m_source_file>  (287) 
/var/tmp/pbs.5076255.sched01/tmpwmgilt76/96rd2vfdyj.sdf

>  <i_m_source_file_index>  (287) 
26

>  <i_lp_mmshare_version>  (287) 
48012

>  <i_f3d_flags>  (287) 
0

>  <s_epik_input>  (287) 
Q2xjMVtjSF1bY0hdW2NIXW5jMS1uMltjSF1uYyhuMiktYzNbY0hdW2NIXW9bY0hdMw==

>  <s_epik_cmdline>  (287) 
J2VwaWtfcHl0aG9uJywgJy1waHQnLCAnMi4wJywgJy1waCcsICc3LjAnLCAnLXRuJywgJzgnLCAnLW1hJywgJzIwMCcsICctaW1hZScsICc8aW5maWxlLm1hZT4nLCAnLW9tYWUnLCAnPG91dGZpbGUubWFlPic=

>  <r_lp_tautomer_probability>  (287) 
1

>  <r_epik_Ionization_Penalty>  (287) 
1.84433e-07

>  <r_epik_Ionization_Penalty_Charging>  (287) 
0

>  <r_epik_Ionization_Penalty_Neutral>  (287) 
1.84433e-07

>  <r_epik_State_Penalty>  (287) 
-0

>  <r_epik_Charging_Adjusted_Penalty>  (287) 
0

>  <i_epik_Tot_Q>  (287) 
0

>  <i_epik_Tot_abs_Q>  (287) 
0

>  <s_lp_Force_Field>  (287) 
OPLS3e

>  <r_lp_Energy>  (287) 
22.2373

>  <b_lp_Chiralities_Consistent>  (287) 
1

>  <s_lp_Variant>  (287) 
73:0-1

>  <s_i_glide_gridfile>  (287) 
pfpi4k_grid

>  <i_i_glide_lignum>  (287) 
26

>  <i_i_glide_rotatable_bonds>  (287) 
2

>  <r_i_docking_score>  (287) 
-3.24863

>  <r_i_glide_ligand_efficiency>  (287) 
-0.191096

>  <r_i_glide_ligand_efficiency_sa>  (287) 
-0.491361

>  <r_i_glide_ligand_efficiency_ln>  (287) 
-0.847495

>  <r_i_glide_gscore>  (287) 
-3.24863

>  <r_i_glide_lipo>  (287) 
-0.198994

>  <r_i_glide_hbond>  (287) 
-0.155667

>  <r_i_glide_metal>  (287) 
-0

>  <r_i_glide_rewards>  (287) 
-1.76804

>  <r_i_glide_evdw>  (287) 
-23.4895

>  <r_i_glide_ecoul>  (287) 
-2.98554

>  <r_i_glide_erotb>  (287) 
0.573083

>  <r_i_glide_esite>  (287) 
-0.0767076

>  <r_i_glide_emodel>  (287) 
-32.0408

>  <r_i_glide_energy>  (287) 
-26.475

>  <r_i_glide_einternal>  (287) 
0.930466

>  <r_i_glide_intrahb_reward>  (287) 
-0

>  <i_i_glide_confnum>  (287) 
5

>  <i_i_glide_posenum>  (287) 
39

>  <r_i_glide_eff_state_penalty>  (287) 
0

>  <ligand_id>  (287) 
73

>  <original_smiles>  (287) 
Clc1cccnc1-n1cnc(-c2ccoc2)n1

>  <smiles>  (287) 
[H]c1nc(-n2nc(-c3c([H])oc([H])c3[H])nc2[H])c(Cl)c([H])c1[H]

$$$$
73:0:2
     RDKit          3D

 24 26  0  0  1  0  0  0  0  0999 V2000
    5.8052   -5.1752    0.6162 Cl  0  0  0  0  0  0  0  0  0  0  0  0
    4.5679   -4.3779   -0.2916 C   0  0  0  0  0  0  0  0  0  0  0  0
    4.9452   -3.6626   -1.4471 C   0  0  0  0  0  0  0  0  0  0  0  0
    3.9564   -3.0357   -2.2269 C   0  0  0  0  0  0  0  0  0  0  0  0
    2.6163   -3.1503   -1.8129 C   0  0  0  0  0  0  0  0  0  0  0  0
    2.2412   -3.8466   -0.7193 N   0  0  0  0  0  0  0  0  0  0  0  0
    3.1847   -4.4539    0.0392 C   0  0  0  0  0  0  0  0  0  0  0  0
    2.6830   -5.2050    1.1413 N   0  0  0  0  0  0  0  0  0  0  0  0
    3.2017   -5.2287    2.3764 C   0  0  0  0  0  0  0  0  0  0  0  0
    2.4605   -5.9175    3.2451 N   0  0  0  0  0  0  0  0  0  0  0  0
    1.4594   -6.3073    2.4009 C   0  0  0  0  0  0  0  0  0  0  0  0
    0.3162   -7.1316    2.8170 C   0  0  0  0  0  0  0  0  0  0  0  0
   -0.6293   -7.8292    2.0186 C   0  0  0  0  0  0  0  0  0  0  0  0
   -1.4868   -8.4440    2.8812 C   0  0  0  0  0  0  0  0  0  0  0  0
   -1.1614   -8.1535    4.1664 O   0  0  0  0  0  0  0  0  0  0  0  0
   -0.0495   -7.3624    4.1162 C   0  0  0  0  0  0  0  0  0  0  0  0
    1.5159   -5.8901    1.1387 N   0  0  0  0  0  0  0  0  0  0  0  0
    5.9835   -3.6154   -1.7500 H   0  0  0  0  0  0  0  0  0  0  0  0
    4.2070   -2.4876   -3.1232 H   0  0  0  0  0  0  0  0  0  0  0  0
    1.8221   -2.6888   -2.3802 H   0  0  0  0  0  0  0  0  0  0  0  0
    4.1100   -4.7193    2.6564 H   0  0  0  0  0  0  0  0  0  0  0  0
   -0.6577   -7.8825    0.9366 H   0  0  0  0  0  0  0  0  0  0  0  0
   -2.3352   -9.0974    2.7529 H   0  0  0  0  0  0  0  0  0  0  0  0
    0.3458   -7.0549    5.0773 H   0  0  0  0  0  0  0  0  0  0  0  0
  1  2  1  0
  2  7  2  0
  2  3  1  0
  3  4  2  0
  3 18  1  0
  4  5  1  0
  4 19  1  0
  5  6  2  0
  5 20  1  0
  6  7  1  0
  7  8  1  0
  8 17  1  0
  8  9  1  0
  9 10  2  0
  9 21  1  0
 10 11  1  0
 11 12  1  0
 11 17  2  0
 12 16  2  0
 12 13  1  0
 13 14  2  0
 13 22  1  0
 14 15  1  0
 14 23  1  0
 15 16  1  0
 16 24  1  0
M  END
>  <i_m_ct_stereo_status>  (288) 
1

>  <s_m_source_file>  (288) 
/var/tmp/pbs.5076255.sched01/tmpwmgilt76/96rd2vfdyj.sdf

>  <i_m_source_file_index>  (288) 
26

>  <i_lp_mmshare_version>  (288) 
48012

>  <i_f3d_flags>  (288) 
0

>  <s_epik_input>  (288) 
Q2xjMVtjSF1bY0hdW2NIXW5jMS1uMltjSF1uYyhuMiktYzNbY0hdW2NIXW9bY0hdMw==

>  <s_epik_cmdline>  (288) 
J2VwaWtfcHl0aG9uJywgJy1waHQnLCAnMi4wJywgJy1waCcsICc3LjAnLCAnLXRuJywgJzgnLCAnLW1hJywgJzIwMCcsICctaW1hZScsICc8aW5maWxlLm1hZT4nLCAnLW9tYWUnLCAnPG91dGZpbGUubWFlPic=

>  <r_lp_tautomer_probability>  (288) 
1

>  <r_epik_Ionization_Penalty>  (288) 
1.84433e-07

>  <r_epik_Ionization_Penalty_Charging>  (288) 
0

>  <r_epik_Ionization_Penalty_Neutral>  (288) 
1.84433e-07

>  <r_epik_State_Penalty>  (288) 
-0

>  <r_epik_Charging_Adjusted_Penalty>  (288) 
0

>  <i_epik_Tot_Q>  (288) 
0

>  <i_epik_Tot_abs_Q>  (288) 
0

>  <s_lp_Force_Field>  (288) 
OPLS3e

>  <r_lp_Energy>  (288) 
22.2373

>  <b_lp_Chiralities_Consistent>  (288) 
1

>  <s_lp_Variant>  (288) 
73:0-1

>  <s_i_glide_gridfile>  (288) 
pfpi4k_grid

>  <i_i_glide_lignum>  (288) 
26

>  <i_i_glide_rotatable_bonds>  (288) 
2

>  <r_i_docking_score>  (288) 
-3.09131

>  <r_i_glide_ligand_efficiency>  (288) 
-0.181842

>  <r_i_glide_ligand_efficiency_sa>  (288) 
-0.467567

>  <r_i_glide_ligand_efficiency_ln>  (288) 
-0.806455

>  <r_i_glide_gscore>  (288) 
-3.09131

>  <r_i_glide_lipo>  (288) 
-0.172661

>  <r_i_glide_hbond>  (288) 
-0.136288

>  <r_i_glide_metal>  (288) 
-0

>  <r_i_glide_rewards>  (288) 
-1.72739

>  <r_i_glide_evdw>  (288) 
-22.4058

>  <r_i_glide_ecoul>  (288) 
-2.82119

>  <r_i_glide_erotb>  (288) 
0.573083

>  <r_i_glide_esite>  (288) 
-0.084586

>  <r_i_glide_emodel>  (288) 
-30.5079

>  <r_i_glide_energy>  (288) 
-25.227

>  <r_i_glide_einternal>  (288) 
0.628498

>  <r_i_glide_intrahb_reward>  (288) 
-0

>  <i_i_glide_confnum>  (288) 
4

>  <i_i_glide_posenum>  (288) 
13

>  <r_i_glide_eff_state_penalty>  (288) 
0

>  <ligand_id>  (288) 
73

>  <original_smiles>  (288) 
Clc1cccnc1-n1cnc(-c2ccoc2)n1

>  <smiles>  (288) 
[H]c1nc(-n2nc(-c3c([H])oc([H])c3[H])nc2[H])c(Cl)c([H])c1[H]

$$$$
74:0:0
     RDKit          3D

 38 41  0  0  1  0  0  0  0  0999 V2000
    4.9707   -0.2892    0.9164 C   0  0  0  0  0  0  0  0  0  0  0  0
    5.9561   -0.6749    0.1057 N   0  0  0  0  0  0  0  0  0  0  0  0
    6.4385   -1.9217    0.2196 C   0  0  0  0  0  0  0  0  0  0  0  0
    7.4453   -2.3563   -0.5660 N   0  0  0  0  0  0  0  0  0  0  0  0
    7.9309   -3.5939   -0.4178 C   0  0  0  0  0  0  0  0  0  0  0  0
    7.4280   -4.5011    0.5172 C   0  0  0  0  0  0  0  0  0  0  0  0
    6.3736   -4.1201    1.3614 C   0  0  0  0  0  0  0  0  0  0  0  0
    5.8619   -4.9598    2.2830 N   0  0  0  0  0  0  0  0  0  0  0  0
    4.8686   -4.5305    3.0772 C   0  0  0  0  0  0  0  0  0  0  0  0
    4.3184   -3.2457    2.9976 C   0  0  0  0  0  0  0  0  0  0  0  0
    4.8051   -2.3181    2.0439 C   0  0  0  0  0  0  0  0  0  0  0  0
    5.8737   -2.7933    1.2094 C   0  0  0  0  0  0  0  0  0  0  0  0
    4.3645   -1.0442    1.8515 N   0  0  0  0  0  0  0  0  0  0  0  0
    3.2972   -0.4208    2.6441 C   0  0  0  0  0  0  0  0  0  0  0  0
    2.1625    0.1318    1.7565 C   0  0  0  0  0  0  0  0  0  0  0  0
    1.1622    0.9736    2.5466 C   0  0  2  0  0  0  0  0  0  0  0  0
    0.3523    0.1696    3.5730 C   0  0  0  0  0  0  0  0  0  0  0  0
   -1.0178    0.8515    3.6039 C   0  0  0  0  0  0  0  0  0  0  0  0
   -0.9263    1.9966    2.5917 C   0  0  0  0  0  0  0  0  0  0  0  0
    0.1596    1.6171    1.6846 N   0  0  0  0  0  0  0  0  0  0  0  0
    4.6529    0.7304    0.7879 H   0  0  0  0  0  0  0  0  0  0  0  0
    8.7275   -3.8835   -1.0848 H   0  0  0  0  0  0  0  0  0  0  0  0
    7.8317   -5.4976    0.5942 H   0  0  0  0  0  0  0  0  0  0  0  0
    4.4872   -5.2273    3.8087 H   0  0  0  0  0  0  0  0  0  0  0  0
    3.5222   -3.0124    3.6876 H   0  0  0  0  0  0  0  0  0  0  0  0
    2.8460   -1.1192    3.3484 H   0  0  0  0  0  0  0  0  0  0  0  0
    3.7527    0.3673    3.2469 H   0  0  0  0  0  0  0  0  0  0  0  0
    2.5397    0.7617    0.9503 H   0  0  0  0  0  0  0  0  0  0  0  0
    1.6593   -0.7136    1.2787 H   0  0  0  0  0  0  0  0  0  0  0  0
    1.6954    1.7763    3.0613 H   0  0  0  0  0  0  0  0  0  0  0  0
    0.2377   -0.8679    3.2529 H   0  0  0  0  0  0  0  0  0  0  0  0
    0.8393    0.1556    4.5489 H   0  0  0  0  0  0  0  0  0  0  0  0
   -1.7793    0.1426    3.2898 H   0  0  0  0  0  0  0  0  0  0  0  0
   -1.2869    1.2088    4.5974 H   0  0  0  0  0  0  0  0  0  0  0  0
   -1.8659    2.1949    2.0812 H   0  0  0  0  0  0  0  0  0  0  0  0
   -0.6171    2.9128    3.0920 H   0  0  0  0  0  0  0  0  0  0  0  0
    0.5163    2.4365    1.1977 H   0  0  0  0  0  0  0  0  0  0  0  0
   -0.1843    0.9408    1.0094 H   0  0  0  0  0  0  0  0  0  0  0  0
  1 13  1  0
  1  2  2  0
  1 21  1  0
  2  3  1  0
  3 12  2  0
  3  4  1  0
  4  5  2  0
  5  6  1  0
  5 22  1  0
  6  7  2  0
  6 23  1  0
  7 12  1  0
  7  8  1  0
  8  9  2  0
  9 10  1  0
  9 24  1  0
 10 11  2  0
 10 25  1  0
 11 12  1  0
 11 13  1  0
 13 14  1  0
 14 15  1  0
 14 26  1  0
 14 27  1  0
 15 16  1  0
 15 28  1  0
 15 29  1  0
 16 20  1  0
 16 17  1  0
 16 30  1  1
 17 18  1  0
 17 31  1  0
 17 32  1  0
 18 19  1  0
 18 33  1  0
 18 34  1  0
 19 20  1  0
 19 35  1  0
 19 36  1  0
 20 37  1  0
 20 38  1  0
M  CHG  1  20   1
M  END
>  <i_m_ct_stereo_status>  (289) 
1

>  <s_m_source_file>  (289) 
/var/tmp/pbs.5076255.sched01/tmpwmgilt76/96rd2vfdyj.sdf

>  <i_m_source_file_index>  (289) 
27

>  <i_lp_mmshare_version>  (289) 
48012

>  <i_f3d_flags>  (289) 
0

>  <s_epik_input>  (289) 
W05IXTFbQ0gyXVtDSDJdW0NIMl1bQ0BIXTFbQ0gyXVtDSDJdbihbY0hdbjIpYzNbY0hdW2NIXW5jKGMzYzI0KVtjSF1bY0hdbjQ=

>  <s_epik_cmdline>  (289) 
J2VwaWtfcHl0aG9uJywgJy1waHQnLCAnMi4wJywgJy1waCcsICc3LjAnLCAnLXRuJywgJzgnLCAnLW1hJywgJzIwMCcsICctaW1hZScsICc8aW5maWxlLm1hZT4nLCAnLW9tYWUnLCAnPG91dGZpbGUubWFlPic=

>  <r_lp_tautomer_probability>  (289) 
1

>  <r_epik_Ionization_Penalty>  (289) 
5.13094e-05

>  <r_epik_Ionization_Penalty_Charging>  (289) 
5.13091e-05

>  <r_epik_Ionization_Penalty_Neutral>  (289) 
3.80398e-10

>  <r_epik_State_Penalty>  (289) 
-0

>  <r_epik_Charging_Adjusted_Penalty>  (289) 
5.13091e-05

>  <i_epik_Tot_Q>  (289) 
1

>  <i_epik_Tot_abs_Q>  (289) 
1

>  <s_lp_Force_Field>  (289) 
OPLS3e

>  <r_lp_Energy>  (289) 
42.8418

>  <b_lp_Chiralities_Consistent>  (289) 
1

>  <s_lp_Variant>  (289) 
74:0-1

>  <s_i_glide_gridfile>  (289) 
pfpi4k_grid

>  <i_i_glide_lignum>  (289) 
27

>  <i_i_glide_rotatable_bonds>  (289) 
3

>  <r_i_docking_score>  (289) 
-4.31

>  <r_i_glide_ligand_efficiency>  (289) 
-0.2155

>  <r_i_glide_ligand_efficiency_sa>  (289) 
-0.584957

>  <r_i_glide_ligand_efficiency_ln>  (289) 
-1.07865

>  <r_i_glide_gscore>  (289) 
-4.31

>  <r_i_glide_lipo>  (289) 
-0.561083

>  <r_i_glide_hbond>  (289) 
-0.469548

>  <r_i_glide_metal>  (289) 
-0

>  <r_i_glide_rewards>  (289) 
-1.88198

>  <r_i_glide_evdw>  (289) 
-20.0394

>  <r_i_glide_ecoul>  (289) 
-7.03666

>  <r_i_glide_erotb>  (289) 
0.743638

>  <r_i_glide_esite>  (289) 
-0.0835566

>  <r_i_glide_emodel>  (289) 
-37.3356

>  <r_i_glide_energy>  (289) 
-27.076

>  <r_i_glide_einternal>  (289) 
2.56375

>  <r_i_glide_intrahb_reward>  (289) 
-0

>  <i_i_glide_confnum>  (289) 
3

>  <i_i_glide_posenum>  (289) 
34

>  <r_i_glide_eff_state_penalty>  (289) 
0

>  <ligand_id>  (289) 
74

>  <original_smiles>  (289) 
C1=Nc2nccc3nccc(c23)N1CCC1CCCN1

>  <smiles>  (289) 
[H]C1=Nc2nc([H])c([H])c3nc([H])c([H])c(c23)N1C([H])([H])C([H])([H])C1([H])C([H])([H])C([H])([H])C([H])([H])[N+]1([H])[H]

$$$$
74:0:1
     RDKit          3D

 38 41  0  0  1  0  0  0  0  0999 V2000
    4.0284   -4.9339    0.9884 C   0  0  0  0  0  0  0  0  0  0  0  0
    4.5385   -5.9410    1.7008 N   0  0  0  0  0  0  0  0  0  0  0  0
    5.8749   -6.0239    1.8528 C   0  0  0  0  0  0  0  0  0  0  0  0
    6.4548   -7.0155    2.5616 N   0  0  0  0  0  0  0  0  0  0  0  0
    7.7839   -7.0738    2.6980 C   0  0  0  0  0  0  0  0  0  0  0  0
    8.6366   -6.1304    2.1287 C   0  0  0  0  0  0  0  0  0  0  0  0
    8.1191   -5.0790    1.3629 C   0  0  0  0  0  0  0  0  0  0  0  0
    8.9143   -4.1583    0.7765 N   0  0  0  0  0  0  0  0  0  0  0  0
    8.3541   -3.1594    0.0767 C   0  0  0  0  0  0  0  0  0  0  0  0
    6.9687   -3.0285   -0.0915 C   0  0  0  0  0  0  0  0  0  0  0  0
    6.0891   -3.9710    0.4895 C   0  0  0  0  0  0  0  0  0  0  0  0
    6.7016   -5.0249    1.2364 C   0  0  0  0  0  0  0  0  0  0  0  0
    4.7350   -3.9604    0.3936 N   0  0  0  0  0  0  0  0  0  0  0  0
    4.0147   -2.9334   -0.3468 C   0  0  0  0  0  0  0  0  0  0  0  0
    4.0184   -3.2454   -1.8510 C   0  0  0  0  0  0  0  0  0  0  0  0
    3.3121   -2.1837   -2.7057 C   0  0  2  0  0  0  0  0  0  0  0  0
    3.6037   -2.2967   -4.2094 C   0  0  0  0  0  0  0  0  0  0  0  0
    3.6315   -0.8487   -4.7224 C   0  0  0  0  0  0  0  0  0  0  0  0
    3.3496    0.0084   -3.5007 C   0  0  0  0  0  0  0  0  0  0  0  0
    3.7376   -0.8230   -2.3620 N   0  0  0  0  0  0  0  0  0  0  0  0
    2.9561   -4.9193    0.8958 H   0  0  0  0  0  0  0  0  0  0  0  0
    8.1798   -7.8963    3.2734 H   0  0  0  0  0  0  0  0  0  0  0  0
    9.7015   -6.2315    2.2629 H   0  0  0  0  0  0  0  0  0  0  0  0
    9.0297   -2.4388   -0.3617 H   0  0  0  0  0  0  0  0  0  0  0  0
    6.5953   -2.2028   -0.6743 H   0  0  0  0  0  0  0  0  0  0  0  0
    2.9880   -2.8672    0.0169 H   0  0  0  0  0  0  0  0  0  0  0  0
    4.4628   -1.9647   -0.1249 H   0  0  0  0  0  0  0  0  0  0  0  0
    5.0430   -3.3959   -2.1939 H   0  0  0  0  0  0  0  0  0  0  0  0
    3.5152   -4.1977   -2.0031 H   0  0  0  0  0  0  0  0  0  0  0  0
    2.2327   -2.2246   -2.5387 H   0  0  0  0  0  0  0  0  0  0  0  0
    4.5794   -2.7567   -4.3623 H   0  0  0  0  0  0  0  0  0  0  0  0
    2.8673   -2.9230   -4.7141 H   0  0  0  0  0  0  0  0  0  0  0  0
    4.6146   -0.6138   -5.1207 H   0  0  0  0  0  0  0  0  0  0  0  0
    2.9129   -0.6415   -5.5112 H   0  0  0  0  0  0  0  0  0  0  0  0
    3.8503    0.9769   -3.5196 H   0  0  0  0  0  0  0  0  0  0  0  0
    2.2754    0.1520   -3.4160 H   0  0  0  0  0  0  0  0  0  0  0  0
    3.2922   -0.5158   -1.5042 H   0  0  0  0  0  0  0  0  0  0  0  0
    4.7419   -0.8068   -2.2769 H   0  0  0  0  0  0  0  0  0  0  0  0
  1 13  1  0
  1  2  2  0
  1 21  1  0
  2  3  1  0
  3 12  2  0
  3  4  1  0
  4  5  2  0
  5  6  1  0
  5 22  1  0
  6  7  2  0
  6 23  1  0
  7 12  1  0
  7  8  1  0
  8  9  2  0
  9 10  1  0
  9 24  1  0
 10 11  2  0
 10 25  1  0
 11 12  1  0
 11 13  1  0
 13 14  1  0
 14 15  1  0
 14 26  1  0
 14 27  1  0
 15 16  1  0
 15 28  1  0
 15 29  1  0
 16 20  1  0
 16 17  1  0
 16 30  1  6
 17 18  1  0
 17 31  1  0
 17 32  1  0
 18 19  1  0
 18 33  1  0
 18 34  1  0
 19 20  1  0
 19 35  1  0
 19 36  1  0
 20 37  1  0
 20 38  1  0
M  CHG  1  20   1
M  END
>  <i_m_ct_stereo_status>  (290) 
1

>  <s_m_source_file>  (290) 
/var/tmp/pbs.5076255.sched01/tmpwmgilt76/96rd2vfdyj.sdf

>  <i_m_source_file_index>  (290) 
27

>  <i_lp_mmshare_version>  (290) 
48012

>  <i_f3d_flags>  (290) 
0

>  <s_epik_input>  (290) 
W05IXTFbQ0gyXVtDSDJdW0NIMl1bQ0BIXTFbQ0gyXVtDSDJdbihbY0hdbjIpYzNbY0hdW2NIXW5jKGMzYzI0KVtjSF1bY0hdbjQ=

>  <s_epik_cmdline>  (290) 
J2VwaWtfcHl0aG9uJywgJy1waHQnLCAnMi4wJywgJy1waCcsICc3LjAnLCAnLXRuJywgJzgnLCAnLW1hJywgJzIwMCcsICctaW1hZScsICc8aW5maWxlLm1hZT4nLCAnLW9tYWUnLCAnPG91dGZpbGUubWFlPic=

>  <r_lp_tautomer_probability>  (290) 
1

>  <r_epik_Ionization_Penalty>  (290) 
5.13094e-05

>  <r_epik_Ionization_Penalty_Charging>  (290) 
5.13091e-05

>  <r_epik_Ionization_Penalty_Neutral>  (290) 
3.80398e-10

>  <r_epik_State_Penalty>  (290) 
-0

>  <r_epik_Charging_Adjusted_Penalty>  (290) 
5.13091e-05

>  <i_epik_Tot_Q>  (290) 
1

>  <i_epik_Tot_abs_Q>  (290) 
1

>  <s_lp_Force_Field>  (290) 
OPLS3e

>  <r_lp_Energy>  (290) 
42.8418

>  <b_lp_Chiralities_Consistent>  (290) 
1

>  <s_lp_Variant>  (290) 
74:0-1

>  <s_i_glide_gridfile>  (290) 
pfpi4k_grid

>  <i_i_glide_lignum>  (290) 
27

>  <i_i_glide_rotatable_bonds>  (290) 
3

>  <r_i_docking_score>  (290) 
-3.54596

>  <r_i_glide_ligand_efficiency>  (290) 
-0.177298

>  <r_i_glide_ligand_efficiency_sa>  (290) 
-0.481261

>  <r_i_glide_ligand_efficiency_ln>  (290) 
-0.887437

>  <r_i_glide_gscore>  (290) 
-3.54596

>  <r_i_glide_lipo>  (290) 
-0.672305

>  <r_i_glide_hbond>  (290) 
-0.00624411

>  <r_i_glide_metal>  (290) 
-0

>  <r_i_glide_rewards>  (290) 
-1.73686

>  <r_i_glide_evdw>  (290) 
-22.9565

>  <r_i_glide_ecoul>  (290) 
-4.69614

>  <r_i_glide_erotb>  (290) 
0.743638

>  <r_i_glide_esite>  (290) 
-0.0219406

>  <r_i_glide_emodel>  (290) 
-35.7662

>  <r_i_glide_energy>  (290) 
-27.6527

>  <r_i_glide_einternal>  (290) 
2.47394

>  <r_i_glide_intrahb_reward>  (290) 
-0

>  <i_i_glide_confnum>  (290) 
5

>  <i_i_glide_posenum>  (290) 
7

>  <r_i_glide_eff_state_penalty>  (290) 
0

>  <ligand_id>  (290) 
74

>  <original_smiles>  (290) 
C1=Nc2nccc3nccc(c23)N1CCC1CCCN1

>  <smiles>  (290) 
[H]C1=Nc2nc([H])c([H])c3nc([H])c([H])c(c23)N1C([H])([H])C([H])([H])C1([H])C([H])([H])C([H])([H])C([H])([H])[N+]1([H])[H]

$$$$
74:0:2
     RDKit          3D

 38 41  0  0  1  0  0  0  0  0999 V2000
    1.7430   -4.8568    3.1491 C   0  0  0  0  0  0  0  0  0  0  0  0
    0.8906   -5.3854    4.0335 N   0  0  0  0  0  0  0  0  0  0  0  0
    0.7802   -6.7263    4.1246 C   0  0  0  0  0  0  0  0  0  0  0  0
   -0.0593   -7.3287    4.9924 N   0  0  0  0  0  0  0  0  0  0  0  0
   -0.1403   -8.6636    5.0633 C   0  0  0  0  0  0  0  0  0  0  0  0
    0.6127   -9.5041    4.2452 C   0  0  0  0  0  0  0  0  0  0  0  0
    1.4995   -8.9543    3.3075 C   0  0  0  0  0  0  0  0  0  0  0  0
    2.2439   -9.7277    2.4939 N   0  0  0  0  0  0  0  0  0  0  0  0
    3.0817   -9.1557    1.6218 C   0  0  0  0  0  0  0  0  0  0  0  0
    3.2170   -7.7668    1.5023 C   0  0  0  0  0  0  0  0  0  0  0  0
    2.4680   -6.8996    2.3238 C   0  0  0  0  0  0  0  0  0  0  0  0
    1.5806   -7.5290    3.2517 C   0  0  0  0  0  0  0  0  0  0  0  0
    2.5139   -5.5440    2.2947 N   0  0  0  0  0  0  0  0  0  0  0  0
    3.3662   -4.7934    1.3774 C   0  0  0  0  0  0  0  0  0  0  0  0
    2.5923   -4.3739    0.1201 C   0  0  0  0  0  0  0  0  0  0  0  0
    3.4809   -3.7039   -0.9319 C   0  0  2  0  0  0  0  0  0  0  0  0
    4.0330   -2.3299   -0.5312 C   0  0  0  0  0  0  0  0  0  0  0  0
    4.1273   -1.5403   -1.8472 C   0  0  0  0  0  0  0  0  0  0  0  0
    3.6197   -2.4987   -2.9293 C   0  0  0  0  0  0  0  0  0  0  0  0
    2.7783   -3.4550   -2.2017 N   0  0  0  0  0  0  0  0  0  0  0  0
    1.7738   -3.7803    3.1181 H   0  0  0  0  0  0  0  0  0  0  0  0
   -0.8221   -9.0667    5.7937 H   0  0  0  0  0  0  0  0  0  0  0  0
    0.5081  -10.5757    4.3377 H   0  0  0  0  0  0  0  0  0  0  0  0
    3.6496   -9.8177    0.9867 H   0  0  0  0  0  0  0  0  0  0  0  0
    3.9061   -7.4073    0.7540 H   0  0  0  0  0  0  0  0  0  0  0  0
    3.7461   -3.9158    1.9040 H   0  0  0  0  0  0  0  0  0  0  0  0
    4.2665   -5.3568    1.1229 H   0  0  0  0  0  0  0  0  0  0  0  0
    2.1049   -5.2495   -0.3097 H   0  0  0  0  0  0  0  0  0  0  0  0
    1.8187   -3.6696    0.4004 H   0  0  0  0  0  0  0  0  0  0  0  0
    4.3142   -4.3700   -1.1692 H   0  0  0  0  0  0  0  0  0  0  0  0
    3.3400   -1.8272    0.1449 H   0  0  0  0  0  0  0  0  0  0  0  0
    4.9902   -2.4196   -0.0148 H   0  0  0  0  0  0  0  0  0  0  0  0
    3.4731   -0.6704   -1.7942 H   0  0  0  0  0  0  0  0  0  0  0  0
    5.1402   -1.1899   -2.0454 H   0  0  0  0  0  0  0  0  0  0  0  0
    3.0947   -2.0061   -3.7509 H   0  0  0  0  0  0  0  0  0  0  0  0
    4.4598   -3.0540   -3.3451 H   0  0  0  0  0  0  0  0  0  0  0  0
    2.6550   -4.3402   -2.7034 H   0  0  0  0  0  0  0  0  0  0  0  0
    1.8937   -3.0024   -2.0069 H   0  0  0  0  0  0  0  0  0  0  0  0
  1 13  1  0
  1  2  2  0
  1 21  1  0
  2  3  1  0
  3 12  2  0
  3  4  1  0
  4  5  2  0
  5  6  1  0
  5 22  1  0
  6  7  2  0
  6 23  1  0
  7 12  1  0
  7  8  1  0
  8  9  2  0
  9 10  1  0
  9 24  1  0
 10 11  2  0
 10 25  1  0
 11 12  1  0
 11 13  1  0
 13 14  1  0
 14 15  1  0
 14 26  1  0
 14 27  1  0
 15 16  1  0
 15 28  1  0
 15 29  1  0
 16 20  1  0
 16 17  1  0
 16 30  1  6
 17 18  1  0
 17 31  1  0
 17 32  1  0
 18 19  1  0
 18 33  1  0
 18 34  1  0
 19 20  1  0
 19 35  1  0
 19 36  1  0
 20 37  1  0
 20 38  1  0
M  CHG  1  20   1
M  END
>  <i_m_ct_stereo_status>  (291) 
1

>  <s_m_source_file>  (291) 
/var/tmp/pbs.5076255.sched01/tmpwmgilt76/96rd2vfdyj.sdf

>  <i_m_source_file_index>  (291) 
27

>  <i_lp_mmshare_version>  (291) 
48012

>  <i_f3d_flags>  (291) 
0

>  <s_epik_input>  (291) 
W05IXTFbQ0gyXVtDSDJdW0NIMl1bQ0BIXTFbQ0gyXVtDSDJdbihbY0hdbjIpYzNbY0hdW2NIXW5jKGMzYzI0KVtjSF1bY0hdbjQ=

>  <s_epik_cmdline>  (291) 
J2VwaWtfcHl0aG9uJywgJy1waHQnLCAnMi4wJywgJy1waCcsICc3LjAnLCAnLXRuJywgJzgnLCAnLW1hJywgJzIwMCcsICctaW1hZScsICc8aW5maWxlLm1hZT4nLCAnLW9tYWUnLCAnPG91dGZpbGUubWFlPic=

>  <r_lp_tautomer_probability>  (291) 
1

>  <r_epik_Ionization_Penalty>  (291) 
5.13094e-05

>  <r_epik_Ionization_Penalty_Charging>  (291) 
5.13091e-05

>  <r_epik_Ionization_Penalty_Neutral>  (291) 
3.80398e-10

>  <r_epik_State_Penalty>  (291) 
-0

>  <r_epik_Charging_Adjusted_Penalty>  (291) 
5.13091e-05

>  <i_epik_Tot_Q>  (291) 
1

>  <i_epik_Tot_abs_Q>  (291) 
1

>  <s_lp_Force_Field>  (291) 
OPLS3e

>  <r_lp_Energy>  (291) 
42.8418

>  <b_lp_Chiralities_Consistent>  (291) 
1

>  <s_lp_Variant>  (291) 
74:0-1

>  <s_i_glide_gridfile>  (291) 
pfpi4k_grid

>  <i_i_glide_lignum>  (291) 
27

>  <i_i_glide_rotatable_bonds>  (291) 
3

>  <r_i_docking_score>  (291) 
-3.02207

>  <r_i_glide_ligand_efficiency>  (291) 
-0.151103

>  <r_i_glide_ligand_efficiency_sa>  (291) 
-0.410158

>  <r_i_glide_ligand_efficiency_ln>  (291) 
-0.756324

>  <r_i_glide_gscore>  (291) 
-3.02207

>  <r_i_glide_lipo>  (291) 
-0.0744706

>  <r_i_glide_hbond>  (291) 
0

>  <r_i_glide_metal>  (291) 
-0

>  <r_i_glide_rewards>  (291) 
-1.57952

>  <r_i_glide_evdw>  (291) 
-20.4943

>  <r_i_glide_ecoul>  (291) 
-6.97967

>  <r_i_glide_erotb>  (291) 
0.743638

>  <r_i_glide_esite>  (291) 
-0.0400501

>  <r_i_glide_emodel>  (291) 
-35.2953

>  <r_i_glide_energy>  (291) 
-27.4739

>  <r_i_glide_einternal>  (291) 
0.439708

>  <r_i_glide_intrahb_reward>  (291) 
-0

>  <i_i_glide_confnum>  (291) 
1

>  <i_i_glide_posenum>  (291) 
29

>  <r_i_glide_eff_state_penalty>  (291) 
0

>  <ligand_id>  (291) 
74

>  <original_smiles>  (291) 
C1=Nc2nccc3nccc(c23)N1CCC1CCCN1

>  <smiles>  (291) 
[H]C1=Nc2nc([H])c([H])c3nc([H])c([H])c(c23)N1C([H])([H])C([H])([H])C1([H])C([H])([H])C([H])([H])C([H])([H])[N+]1([H])[H]

$$$$
75:0:0
     RDKit          3D

 13 14  0  0  1  0  0  0  0  0999 V2000
    0.0025   -9.7831    3.2691 C   0  0  0  0  0  0  0  0  0  0  0  0
   -1.0996   -8.9251    3.0338 C   0  0  0  0  0  0  0  0  0  0  0  0
   -1.0188   -7.7452    2.4232 N   0  0  0  0  0  0  0  0  0  0  0  0
    0.2000   -7.3848    1.9853 C   0  0  0  0  0  0  0  0  0  0  0  0
    0.5837   -6.2791    1.3467 N   0  0  0  0  0  0  0  0  0  0  0  0
    1.9290   -6.4604    1.1977 C   0  0  0  0  0  0  0  0  0  0  0  0
    2.4319   -7.5879    1.6821 N   0  0  0  0  0  0  0  0  0  0  0  0
    1.3282   -8.1949    2.1907 N   0  0  0  0  0  0  0  0  0  0  0  0
    1.2474   -9.3945    2.8298 C   0  0  0  0  0  0  0  0  0  0  0  0
   -0.1404  -10.7270    3.7895 H   0  0  0  0  0  0  0  0  0  0  0  0
   -2.0859   -9.2236    3.3743 H   0  0  0  0  0  0  0  0  0  0  0  0
    2.5586   -5.7372    0.6986 H   0  0  0  0  0  0  0  0  0  0  0  0
    2.1572   -9.9737    2.9565 H   0  0  0  0  0  0  0  0  0  0  0  0
  1  9  2  0
  1  2  1  0
  1 10  1  0
  2  3  2  0
  2 11  1  0
  3  4  1  0
  4  8  1  0
  4  5  2  0
  5  6  1  0
  6  7  2  0
  6 12  1  0
  7  8  1  0
  8  9  1  0
  9 13  1  0
M  END
>  <i_m_ct_stereo_status>  (292) 
1

>  <s_m_source_file>  (292) 
/var/tmp/pbs.5076255.sched01/tmpwmgilt76/96rd2vfdyj.sdf

>  <i_m_source_file_index>  (292) 
28

>  <i_lp_mmshare_version>  (292) 
48012

>  <i_f3d_flags>  (292) 
0

>  <s_epik_input>  (292) 
bjFbY0hdW2NIXVtjSF1uKGMxMiluW2NIXW4y

>  <s_epik_cmdline>  (292) 
J2VwaWtfcHl0aG9uJywgJy1waHQnLCAnMi4wJywgJy1waCcsICc3LjAnLCAnLXRuJywgJzgnLCAnLW1hJywgJzIwMCcsICctaW1hZScsICc8aW5maWxlLm1hZT4nLCAnLW9tYWUnLCAnPG91dGZpbGUubWFlPic=

>  <r_lp_tautomer_probability>  (292) 
1

>  <r_epik_Ionization_Penalty>  (292) 
1.66986e-07

>  <r_epik_Ionization_Penalty_Charging>  (292) 
0

>  <r_epik_Ionization_Penalty_Neutral>  (292) 
1.66986e-07

>  <r_epik_State_Penalty>  (292) 
-0

>  <r_epik_Charging_Adjusted_Penalty>  (292) 
0

>  <i_epik_Tot_Q>  (292) 
0

>  <i_epik_Tot_abs_Q>  (292) 
0

>  <s_lp_Force_Field>  (292) 
OPLS3e

>  <r_lp_Energy>  (292) 
14.6748

>  <b_lp_Chiralities_Consistent>  (292) 
1

>  <s_lp_Variant>  (292) 
75:0-1

>  <s_i_glide_gridfile>  (292) 
pfpi4k_grid

>  <i_i_glide_lignum>  (292) 
28

>  <i_i_glide_rotatable_bonds>  (292) 
0

>  <r_i_docking_score>  (292) 
-4.2457

>  <r_i_glide_ligand_efficiency>  (292) 
-0.471744

>  <r_i_glide_ligand_efficiency_sa>  (292) 
-0.981268

>  <r_i_glide_ligand_efficiency_ln>  (292) 
-1.32793

>  <r_i_glide_gscore>  (292) 
-4.2457

>  <r_i_glide_lipo>  (292) 
-0.0335694

>  <r_i_glide_hbond>  (292) 
-0.16

>  <r_i_glide_metal>  (292) 
-0

>  <r_i_glide_rewards>  (292) 
-2.25

>  <r_i_glide_evdw>  (292) 
-13.9361

>  <r_i_glide_ecoul>  (292) 
-6.47193

>  <r_i_glide_erotb>  (292) 
0

>  <r_i_glide_esite>  (292) 
-0.134534

>  <r_i_glide_emodel>  (292) 
-27.1664

>  <r_i_glide_energy>  (292) 
-20.4081

>  <r_i_glide_einternal>  (292) 
0

>  <r_i_glide_intrahb_reward>  (292) 
-0

>  <i_i_glide_confnum>  (292) 
1

>  <i_i_glide_posenum>  (292) 
1

>  <r_i_glide_eff_state_penalty>  (292) 
0

>  <ligand_id>  (292) 
75

>  <original_smiles>  (292) 
c1cnc2ncnn2c1

>  <smiles>  (292) 
[H]c1nc2nc([H])c([H])c([H])n2n1

$$$$
75:0:1
     RDKit          3D

 13 14  0  0  1  0  0  0  0  0999 V2000
   -0.4155   -9.0801    2.7929 C   0  0  0  0  0  0  0  0  0  0  0  0
   -0.4283   -7.8555    2.0831 C   0  0  0  0  0  0  0  0  0  0  0  0
   -0.2420   -6.6587    2.6354 N   0  0  0  0  0  0  0  0  0  0  0  0
   -0.0091   -6.6498    3.9626 C   0  0  0  0  0  0  0  0  0  0  0  0
    0.2055   -5.6248    4.7817 N   0  0  0  0  0  0  0  0  0  0  0  0
    0.3608   -6.2201    5.9991 C   0  0  0  0  0  0  0  0  0  0  0  0
    0.2479   -7.5417    6.0266 N   0  0  0  0  0  0  0  0  0  0  0  0
    0.0132   -7.8328    4.7194 N   0  0  0  0  0  0  0  0  0  0  0  0
   -0.1860   -9.0531    4.1504 C   0  0  0  0  0  0  0  0  0  0  0  0
   -0.5784  -10.0219    2.2734 H   0  0  0  0  0  0  0  0  0  0  0  0
   -0.6059   -7.8619    1.0134 H   0  0  0  0  0  0  0  0  0  0  0  0
    0.5561   -5.6539    6.8974 H   0  0  0  0  0  0  0  0  0  0  0  0
   -0.1590   -9.9295    4.7918 H   0  0  0  0  0  0  0  0  0  0  0  0
  1  9  2  0
  1  2  1  0
  1 10  1  0
  2  3  2  0
  2 11  1  0
  3  4  1  0
  4  8  1  0
  4  5  2  0
  5  6  1  0
  6  7  2  0
  6 12  1  0
  7  8  1  0
  8  9  1  0
  9 13  1  0
M  END
>  <i_m_ct_stereo_status>  (293) 
1

>  <s_m_source_file>  (293) 
/var/tmp/pbs.5076255.sched01/tmpwmgilt76/96rd2vfdyj.sdf

>  <i_m_source_file_index>  (293) 
28

>  <i_lp_mmshare_version>  (293) 
48012

>  <i_f3d_flags>  (293) 
0

>  <s_epik_input>  (293) 
bjFbY0hdW2NIXVtjSF1uKGMxMiluW2NIXW4y

>  <s_epik_cmdline>  (293) 
J2VwaWtfcHl0aG9uJywgJy1waHQnLCAnMi4wJywgJy1waCcsICc3LjAnLCAnLXRuJywgJzgnLCAnLW1hJywgJzIwMCcsICctaW1hZScsICc8aW5maWxlLm1hZT4nLCAnLW9tYWUnLCAnPG91dGZpbGUubWFlPic=

>  <r_lp_tautomer_probability>  (293) 
1

>  <r_epik_Ionization_Penalty>  (293) 
1.66986e-07

>  <r_epik_Ionization_Penalty_Charging>  (293) 
0

>  <r_epik_Ionization_Penalty_Neutral>  (293) 
1.66986e-07

>  <r_epik_State_Penalty>  (293) 
-0

>  <r_epik_Charging_Adjusted_Penalty>  (293) 
0

>  <i_epik_Tot_Q>  (293) 
0

>  <i_epik_Tot_abs_Q>  (293) 
0

>  <s_lp_Force_Field>  (293) 
OPLS3e

>  <r_lp_Energy>  (293) 
14.6748

>  <b_lp_Chiralities_Consistent>  (293) 
1

>  <s_lp_Variant>  (293) 
75:0-1

>  <s_i_glide_gridfile>  (293) 
pfpi4k_grid

>  <i_i_glide_lignum>  (293) 
28

>  <i_i_glide_rotatable_bonds>  (293) 
0

>  <r_i_docking_score>  (293) 
-3.62809

>  <r_i_glide_ligand_efficiency>  (293) 
-0.403121

>  <r_i_glide_ligand_efficiency_sa>  (293) 
-0.838526

>  <r_i_glide_ligand_efficiency_ln>  (293) 
-1.13476

>  <r_i_glide_gscore>  (293) 
-3.62809

>  <r_i_glide_lipo>  (293) 
0

>  <r_i_glide_hbond>  (293) 
-0.16

>  <r_i_glide_metal>  (293) 
-0

>  <r_i_glide_rewards>  (293) 
-2.25

>  <r_i_glide_evdw>  (293) 
-11.0514

>  <r_i_glide_ecoul>  (293) 
-3.88131

>  <r_i_glide_erotb>  (293) 
0

>  <r_i_glide_esite>  (293) 
-0.0833245

>  <r_i_glide_emodel>  (293) 
-20.708

>  <r_i_glide_energy>  (293) 
-14.9327

>  <r_i_glide_einternal>  (293) 
0

>  <r_i_glide_intrahb_reward>  (293) 
-0

>  <i_i_glide_confnum>  (293) 
1

>  <i_i_glide_posenum>  (293) 
3

>  <r_i_glide_eff_state_penalty>  (293) 
0

>  <ligand_id>  (293) 
75

>  <original_smiles>  (293) 
c1cnc2ncnn2c1

>  <smiles>  (293) 
[H]c1nc2nc([H])c([H])c([H])n2n1

$$$$
75:0:2
     RDKit          3D

 13 14  0  0  1  0  0  0  0  0999 V2000
   -0.5268    1.9461    2.8817 C   0  0  0  0  0  0  0  0  0  0  0  0
   -1.3521    2.5193    3.8779 C   0  0  0  0  0  0  0  0  0  0  0  0
   -1.7836    1.8790    4.9610 N   0  0  0  0  0  0  0  0  0  0  0  0
   -1.4029    0.5968    5.0862 C   0  0  0  0  0  0  0  0  0  0  0  0
   -1.6780   -0.2914    6.0425 N   0  0  0  0  0  0  0  0  0  0  0  0
   -1.0109   -1.4096    5.6292 C   0  0  0  0  0  0  0  0  0  0  0  0
   -0.3470   -1.3156    4.4851 N   0  0  0  0  0  0  0  0  0  0  0  0
   -0.5861   -0.0272    4.1276 N   0  0  0  0  0  0  0  0  0  0  0  0
   -0.1398    0.6340    3.0230 C   0  0  0  0  0  0  0  0  0  0  0  0
   -0.2067    2.5362    2.0240 H   0  0  0  0  0  0  0  0  0  0  0  0
   -1.6632    3.5527    3.7807 H   0  0  0  0  0  0  0  0  0  0  0  0
   -1.0278   -2.3328    6.1903 H   0  0  0  0  0  0  0  0  0  0  0  0
    0.4878    0.0980    2.3180 H   0  0  0  0  0  0  0  0  0  0  0  0
  1  9  2  0
  1  2  1  0
  1 10  1  0
  2  3  2  0
  2 11  1  0
  3  4  1  0
  4  8  1  0
  4  5  2  0
  5  6  1  0
  6  7  2  0
  6 12  1  0
  7  8  1  0
  8  9  1  0
  9 13  1  0
M  END
>  <i_m_ct_stereo_status>  (294) 
1

>  <s_m_source_file>  (294) 
/var/tmp/pbs.5076255.sched01/tmpwmgilt76/96rd2vfdyj.sdf

>  <i_m_source_file_index>  (294) 
28

>  <i_lp_mmshare_version>  (294) 
48012

>  <i_f3d_flags>  (294) 
0

>  <s_epik_input>  (294) 
bjFbY0hdW2NIXVtjSF1uKGMxMiluW2NIXW4y

>  <s_epik_cmdline>  (294) 
J2VwaWtfcHl0aG9uJywgJy1waHQnLCAnMi4wJywgJy1waCcsICc3LjAnLCAnLXRuJywgJzgnLCAnLW1hJywgJzIwMCcsICctaW1hZScsICc8aW5maWxlLm1hZT4nLCAnLW9tYWUnLCAnPG91dGZpbGUubWFlPic=

>  <r_lp_tautomer_probability>  (294) 
1

>  <r_epik_Ionization_Penalty>  (294) 
1.66986e-07

>  <r_epik_Ionization_Penalty_Charging>  (294) 
0

>  <r_epik_Ionization_Penalty_Neutral>  (294) 
1.66986e-07

>  <r_epik_State_Penalty>  (294) 
-0

>  <r_epik_Charging_Adjusted_Penalty>  (294) 
0

>  <i_epik_Tot_Q>  (294) 
0

>  <i_epik_Tot_abs_Q>  (294) 
0

>  <s_lp_Force_Field>  (294) 
OPLS3e

>  <r_lp_Energy>  (294) 
14.6748

>  <b_lp_Chiralities_Consistent>  (294) 
1

>  <s_lp_Variant>  (294) 
75:0-1

>  <s_i_glide_gridfile>  (294) 
pfpi4k_grid

>  <i_i_glide_lignum>  (294) 
28

>  <i_i_glide_rotatable_bonds>  (294) 
0

>  <r_i_docking_score>  (294) 
-3.61166

>  <r_i_glide_ligand_efficiency>  (294) 
-0.401295

>  <r_i_glide_ligand_efficiency_sa>  (294) 
-0.834728

>  <r_i_glide_ligand_efficiency_ln>  (294) 
-1.12962

>  <r_i_glide_gscore>  (294) 
-3.61166

>  <r_i_glide_lipo>  (294) 
0

>  <r_i_glide_hbond>  (294) 
-0.136992

>  <r_i_glide_metal>  (294) 
-0

>  <r_i_glide_rewards>  (294) 
-2.25

>  <r_i_glide_evdw>  (294) 
-11.621

>  <r_i_glide_ecoul>  (294) 
-3.60831

>  <r_i_glide_erotb>  (294) 
0

>  <r_i_glide_esite>  (294) 
-0.10237

>  <r_i_glide_emodel>  (294) 
-20.9787

>  <r_i_glide_energy>  (294) 
-15.2293

>  <r_i_glide_einternal>  (294) 
0

>  <r_i_glide_intrahb_reward>  (294) 
-0

>  <i_i_glide_confnum>  (294) 
1

>  <i_i_glide_posenum>  (294) 
2

>  <r_i_glide_eff_state_penalty>  (294) 
0

>  <ligand_id>  (294) 
75

>  <original_smiles>  (294) 
c1cnc2ncnn2c1

>  <smiles>  (294) 
[H]c1nc2nc([H])c([H])c([H])n2n1

$$$$
76:0:0
     RDKit          3D

 46 49  0  0  1  0  0  0  0  0999 V2000
   -0.9922    1.4656    3.5464 C   0  0  0  0  0  0  0  0  0  0  0  0
   -0.2724    1.1597    2.2249 C   0  0  0  0  0  0  0  0  0  0  0  0
    1.0884    0.7953    2.4285 O   0  0  0  0  0  0  0  0  0  0  0  0
    1.4155   -0.4413    2.8786 C   0  0  0  0  0  0  0  0  0  0  0  0
    0.6218   -1.2693    3.2886 O   0  0  0  0  0  0  0  0  0  0  0  0
    2.8021   -0.6313    2.7922 N   0  0  0  0  0  0  0  0  0  0  0  0
    3.8117    0.3007    2.3579 C   0  0  1  0  0  0  0  0  0  0  0  0
    4.9092    0.1108    3.4042 C   0  0  0  0  0  0  0  0  0  0  0  0
    4.6925   -1.3370    3.9212 C   0  0  0  0  0  0  0  0  0  0  0  0
    3.4900   -1.8616    3.1156 C   0  0  2  0  0  0  0  0  0  0  0  0
    3.8483   -2.5370    1.7588 C   0  0  0  0  0  0  0  0  0  0  0  0
    4.7285   -1.6142    0.8228 C   0  0  1  0  0  0  0  0  0  0  0  0
    6.2724   -1.6296    1.2325 C   0  0  0  0  0  0  0  0  0  0  0  0
    6.9640   -2.8737    0.8700 N   0  0  0  0  0  0  0  0  0  0  0  0
    8.0343   -3.1008    0.0863 C   0  0  0  0  0  0  0  0  0  0  0  0
    8.3832   -4.3952    0.0856 N   0  0  0  0  0  0  0  0  0  0  0  0
    7.4422   -4.9622    0.9423 N   0  0  0  0  0  0  0  0  0  0  0  0
    6.6356   -4.0596    1.4341 N   0  0  0  0  0  0  0  0  0  0  0  0
    4.5921   -2.0934   -0.6572 C   0  0  0  0  0  0  0  0  0  0  0  0
    4.4863   -1.2219   -1.7854 C   0  0  0  0  0  0  0  0  0  0  0  0
    4.5951   -1.6473   -3.0669 N   0  0  0  0  0  0  0  0  0  0  0  0
    4.8204   -2.9685   -3.2580 C   0  0  0  0  0  0  0  0  0  0  0  0
    4.9004   -3.8438   -2.1521 C   0  0  0  0  0  0  0  0  0  0  0  0
    4.7536   -3.4239   -0.8758 N   0  0  0  0  0  0  0  0  0  0  0  0
    4.2108   -0.1363    0.9331 C   0  0  0  0  0  0  0  0  0  0  0  0
   -2.0325    1.7289    3.3559 H   0  0  0  0  0  0  0  0  0  0  0  0
   -0.5205    2.2992    4.0691 H   0  0  0  0  0  0  0  0  0  0  0  0
   -0.9899    0.6043    4.2149 H   0  0  0  0  0  0  0  0  0  0  0  0
   -0.7852    0.3768    1.6653 H   0  0  0  0  0  0  0  0  0  0  0  0
   -0.2725    2.0496    1.5977 H   0  0  0  0  0  0  0  0  0  0  0  0
    3.4738    1.3369    2.3307 H   0  0  0  0  0  0  0  0  0  0  0  0
    5.8957    0.2905    2.9722 H   0  0  0  0  0  0  0  0  0  0  0  0
    4.7669    0.8208    4.2210 H   0  0  0  0  0  0  0  0  0  0  0  0
    5.5512   -1.9859    3.7766 H   0  0  0  0  0  0  0  0  0  0  0  0
    4.4236   -1.2846    4.9837 H   0  0  0  0  0  0  0  0  0  0  0  0
    2.8725   -2.5342    3.7104 H   0  0  0  0  0  0  0  0  0  0  0  0
    4.3050   -3.5175    1.9455 H   0  0  0  0  0  0  0  0  0  0  0  0
    2.8955   -2.7456    1.2445 H   0  0  0  0  0  0  0  0  0  0  0  0
    6.7822   -0.8720    0.5991 H   0  0  0  0  0  0  0  0  0  0  0  0
    6.4738   -1.4541    2.2675 H   0  0  0  0  0  0  0  0  0  0  0  0
    8.5336   -2.2976   -0.4319 H   0  0  0  0  0  0  0  0  0  0  0  0
    4.4194   -0.1456   -1.6830 H   0  0  0  0  0  0  0  0  0  0  0  0
    4.9140   -3.3296   -4.2729 H   0  0  0  0  0  0  0  0  0  0  0  0
    5.1278   -4.8908   -2.2955 H   0  0  0  0  0  0  0  0  0  0  0  0
    3.2919   -0.0532    0.3536 H   0  0  0  0  0  0  0  0  0  0  0  0
    4.9131    0.5695    0.4931 H   0  0  0  0  0  0  0  0  0  0  0  0
  1  2  1  0
  1 26  1  0
  1 27  1  0
  1 28  1  0
  2  3  1  0
  2 29  1  0
  2 30  1  0
  3  4  1  0
  4  5  2  0
  4  6  1  0
  6 10  1  0
  6  7  1  0
  7 25  1  0
  7  8  1  0
  7 31  1  6
  8  9  1  0
  8 32  1  0
  8 33  1  0
  9 10  1  0
  9 34  1  0
  9 35  1  0
 10 11  1  0
 10 36  1  1
 11 12  1  0
 11 37  1  0
 11 38  1  0
 12 13  1  1
 12 19  1  0
 12 25  1  0
 13 14  1  0
 13 39  1  0
 13 40  1  0
 14 18  1  0
 14 15  1  0
 15 16  2  0
 15 41  1  0
 16 17  1  0
 17 18  2  0
 19 24  1  0
 19 20  2  0
 20 21  1  0
 20 42  1  0
 21 22  2  0
 22 23  1  0
 22 43  1  0
 23 24  2  0
 23 44  1  0
 25 45  1  0
 25 46  1  0
M  END
>  <i_m_ct_stereo_status>  (295) 
1

>  <s_m_source_file>  (295) 
/var/tmp/pbs.5076255.sched01/tmpwmgilt76/96rd2vfdyj.sdf

>  <i_m_source_file_index>  (295) 
29

>  <i_lp_mmshare_version>  (295) 
48012

>  <i_f3d_flags>  (295) 
0

>  <s_epik_input>  (295) 
W0NIM11bQ0gyXU9DKD1PKU4oW0NAQEhdMTIpW0NASF0oW0NIMl1bQ0gyXTEpW0NIMl1bQ0BAXShbQ0gyXTIpKFtDSDJdbjNbY0hdbm5uMyljNFtjSF1uW2NIXVtjSF1uNA==

>  <s_epik_cmdline>  (295) 
J2VwaWtfcHl0aG9uJywgJy1waHQnLCAnMi4wJywgJy1waCcsICc3LjAnLCAnLXRuJywgJzgnLCAnLW1hJywgJzIwMCcsICctaW1hZScsICc8aW5maWxlLm1hZT4nLCAnLW9tYWUnLCAnPG91dGZpbGUubWFlPic=

>  <r_lp_tautomer_probability>  (295) 
1

>  <r_epik_Ionization_Penalty>  (295) 
1.16924e-05

>  <r_epik_Ionization_Penalty_Charging>  (295) 
0

>  <r_epik_Ionization_Penalty_Neutral>  (295) 
1.16924e-05

>  <r_epik_State_Penalty>  (295) 
-0

>  <r_epik_Charging_Adjusted_Penalty>  (295) 
0

>  <i_epik_Tot_Q>  (295) 
0

>  <i_epik_Tot_abs_Q>  (295) 
0

>  <s_epik_Chemistry_Notes>  (295) 
This compound has an ester and may undergo hydrolysis at high or low pH.

>  <s_lp_Force_Field>  (295) 
OPLS3e

>  <r_lp_Energy>  (295) 
43.3181

>  <b_lp_Chiralities_Consistent>  (295) 
1

>  <s_lp_Variant>  (295) 
76:0-1

>  <s_i_glide_gridfile>  (295) 
pfpi4k_grid

>  <i_i_glide_lignum>  (295) 
29

>  <i_i_glide_rotatable_bonds>  (295) 
6

>  <r_i_docking_score>  (295) 
-2.81801

>  <r_i_glide_ligand_efficiency>  (295) 
-0.11272

>  <r_i_glide_ligand_efficiency_sa>  (295) 
-0.329596

>  <r_i_glide_ligand_efficiency_ln>  (295) 
-0.667952

>  <r_i_glide_gscore>  (295) 
-2.81801

>  <r_i_glide_lipo>  (295) 
-0.534917

>  <r_i_glide_hbond>  (295) 
0

>  <r_i_glide_metal>  (295) 
-0

>  <r_i_glide_rewards>  (295) 
-1.45119

>  <r_i_glide_evdw>  (295) 
-30.4142

>  <r_i_glide_ecoul>  (295) 
-0.564981

>  <r_i_glide_erotb>  (295) 
0.804594

>  <r_i_glide_esite>  (295) 
-0.0310394

>  <r_i_glide_emodel>  (295) 
-34.287

>  <r_i_glide_energy>  (295) 
-30.9792

>  <r_i_glide_einternal>  (295) 
1.97854

>  <r_i_glide_intrahb_reward>  (295) 
-0

>  <i_i_glide_confnum>  (295) 
1

>  <i_i_glide_posenum>  (295) 
1

>  <r_i_glide_eff_state_penalty>  (295) 
0

>  <ligand_id>  (295) 
76

>  <original_smiles>  (295) 
CCOC(=O)N1C2CCC1CC(Cn1cnnn1)(c1cnccn1)C2

>  <smiles>  (295) 
[H]c1nc([H])c(C2(C([H])([H])n3nnnc3[H])C([H])([H])C3([H])N(C(=O)OC([H])([H])C([H])([H])[H])C([H])(C([H])([H])C3([H])[H])C2([H])[H])nc1[H]

$$$$
76:0:1
     RDKit          3D

 46 49  0  0  1  0  0  0  0  0999 V2000
    1.8990   -2.8327   -3.6061 C   0  0  0  0  0  0  0  0  0  0  0  0
    3.2286   -2.3951   -4.2196 C   0  0  0  0  0  0  0  0  0  0  0  0
    4.2895   -2.6389   -3.3059 O   0  0  0  0  0  0  0  0  0  0  0  0
    4.5819   -1.7422   -2.3384 C   0  0  0  0  0  0  0  0  0  0  0  0
    4.2194   -0.5763   -2.3487 O   0  0  0  0  0  0  0  0  0  0  0  0
    5.3322   -2.3586   -1.3328 N   0  0  0  0  0  0  0  0  0  0  0  0
    5.9152   -3.6823   -1.3605 C   0  0  1  0  0  0  0  0  0  0  0  0
    7.3109   -3.4365   -0.7762 C   0  0  0  0  0  0  0  0  0  0  0  0
    7.1358   -2.1908    0.1178 C   0  0  0  0  0  0  0  0  0  0  0  0
    5.6568   -1.8053   -0.0352 C   0  0  2  0  0  0  0  0  0  0  0  0
    4.7258   -2.5093    0.9933 C   0  0  0  0  0  0  0  0  0  0  0  0
    4.8499   -4.0744    0.9878 C   0  0  1  0  0  0  0  0  0  0  0  0
    6.0736   -4.5220    1.8691 C   0  0  0  0  0  0  0  0  0  0  0  0
    6.2550   -5.9695    1.9489 N   0  0  0  0  0  0  0  0  0  0  0  0
    7.1988   -6.7286    1.4124 C   0  0  0  0  0  0  0  0  0  0  0  0
    7.0149   -8.0250    1.6651 N   0  0  0  0  0  0  0  0  0  0  0  0
    5.8565   -8.0271    2.4289 N   0  0  0  0  0  0  0  0  0  0  0  0
    5.3991   -6.8089    2.6147 N   0  0  0  0  0  0  0  0  0  0  0  0
    3.5862   -4.6868    1.6360 C   0  0  0  0  0  0  0  0  0  0  0  0
    2.8728   -5.7846    1.0669 C   0  0  0  0  0  0  0  0  0  0  0  0
    1.8704   -6.4160    1.7210 N   0  0  0  0  0  0  0  0  0  0  0  0
    1.5840   -5.9947    2.9722 C   0  0  0  0  0  0  0  0  0  0  0  0
    2.2684   -4.8978    3.5459 C   0  0  0  0  0  0  0  0  0  0  0  0
    3.2353   -4.2402    2.8642 N   0  0  0  0  0  0  0  0  0  0  0  0
    5.0077   -4.5790   -0.4854 C   0  0  0  0  0  0  0  0  0  0  0  0
    1.0881   -2.7022   -4.3195 H   0  0  0  0  0  0  0  0  0  0  0  0
    1.6686   -2.2570   -2.7138 H   0  0  0  0  0  0  0  0  0  0  0  0
    1.9339   -3.8801   -3.3098 H   0  0  0  0  0  0  0  0  0  0  0  0
    3.4144   -2.9931   -5.1080 H   0  0  0  0  0  0  0  0  0  0  0  0
    3.1974   -1.3498   -4.5310 H   0  0  0  0  0  0  0  0  0  0  0  0
    5.9825   -4.1027   -2.3681 H   0  0  0  0  0  0  0  0  0  0  0  0
    7.6677   -4.3113   -0.2376 H   0  0  0  0  0  0  0  0  0  0  0  0
    8.0115   -3.2128   -1.5806 H   0  0  0  0  0  0  0  0  0  0  0  0
    7.3894   -2.3522    1.1627 H   0  0  0  0  0  0  0  0  0  0  0  0
    7.7866   -1.3964   -0.2418 H   0  0  0  0  0  0  0  0  0  0  0  0
    5.5179   -0.7247    0.0093 H   0  0  0  0  0  0  0  0  0  0  0  0
    4.8965   -2.1209    1.9981 H   0  0  0  0  0  0  0  0  0  0  0  0
    3.6969   -2.2220    0.7589 H   0  0  0  0  0  0  0  0  0  0  0  0
    7.0059   -4.1416    1.5127 H   0  0  0  0  0  0  0  0  0  0  0  0
    5.9502   -4.1542    2.9032 H   0  0  0  0  0  0  0  0  0  0  0  0
    8.0221   -6.3414    0.8336 H   0  0  0  0  0  0  0  0  0  0  0  0
    3.1486   -6.2321    0.1261 H   0  0  0  0  0  0  0  0  0  0  0  0
    0.8028   -6.5099    3.5036 H   0  0  0  0  0  0  0  0  0  0  0  0
    2.0463   -4.5624    4.5479 H   0  0  0  0  0  0  0  0  0  0  0  0
    4.0386   -4.5818   -0.9908 H   0  0  0  0  0  0  0  0  0  0  0  0
    5.3431   -5.6169   -0.5223 H   0  0  0  0  0  0  0  0  0  0  0  0
  1  2  1  0
  1 26  1  0
  1 27  1  0
  1 28  1  0
  2  3  1  0
  2 29  1  0
  2 30  1  0
  3  4  1  0
  4  5  2  0
  4  6  1  0
  6 10  1  0
  6  7  1  0
  7 25  1  0
  7  8  1  0
  7 31  1  6
  8  9  1  0
  8 32  1  0
  8 33  1  0
  9 10  1  0
  9 34  1  0
  9 35  1  0
 10 11  1  0
 10 36  1  6
 11 12  1  0
 11 37  1  0
 11 38  1  0
 12 13  1  1
 12 19  1  0
 12 25  1  0
 13 14  1  0
 13 39  1  0
 13 40  1  0
 14 18  1  0
 14 15  1  0
 15 16  2  0
 15 41  1  0
 16 17  1  0
 17 18  2  0
 19 24  1  0
 19 20  2  0
 20 21  1  0
 20 42  1  0
 21 22  2  0
 22 23  1  0
 22 43  1  0
 23 24  2  0
 23 44  1  0
 25 45  1  0
 25 46  1  0
M  END
>  <i_m_ct_stereo_status>  (296) 
1

>  <s_m_source_file>  (296) 
/var/tmp/pbs.5076255.sched01/tmpwmgilt76/96rd2vfdyj.sdf

>  <i_m_source_file_index>  (296) 
29

>  <i_lp_mmshare_version>  (296) 
48012

>  <i_f3d_flags>  (296) 
0

>  <s_epik_input>  (296) 
W0NIM11bQ0gyXU9DKD1PKU4oW0NAQEhdMTIpW0NASF0oW0NIMl1bQ0gyXTEpW0NIMl1bQ0BAXShbQ0gyXTIpKFtDSDJdbjNbY0hdbm5uMyljNFtjSF1uW2NIXVtjSF1uNA==

>  <s_epik_cmdline>  (296) 
J2VwaWtfcHl0aG9uJywgJy1waHQnLCAnMi4wJywgJy1waCcsICc3LjAnLCAnLXRuJywgJzgnLCAnLW1hJywgJzIwMCcsICctaW1hZScsICc8aW5maWxlLm1hZT4nLCAnLW9tYWUnLCAnPG91dGZpbGUubWFlPic=

>  <r_lp_tautomer_probability>  (296) 
1

>  <r_epik_Ionization_Penalty>  (296) 
1.16924e-05

>  <r_epik_Ionization_Penalty_Charging>  (296) 
0

>  <r_epik_Ionization_Penalty_Neutral>  (296) 
1.16924e-05

>  <r_epik_State_Penalty>  (296) 
-0

>  <r_epik_Charging_Adjusted_Penalty>  (296) 
0

>  <i_epik_Tot_Q>  (296) 
0

>  <i_epik_Tot_abs_Q>  (296) 
0

>  <s_epik_Chemistry_Notes>  (296) 
This compound has an ester and may undergo hydrolysis at high or low pH.

>  <s_lp_Force_Field>  (296) 
OPLS3e

>  <r_lp_Energy>  (296) 
43.3181

>  <b_lp_Chiralities_Consistent>  (296) 
1

>  <s_lp_Variant>  (296) 
76:0-1

>  <s_i_glide_gridfile>  (296) 
pfpi4k_grid

>  <i_i_glide_lignum>  (296) 
29

>  <i_i_glide_rotatable_bonds>  (296) 
6

>  <r_i_docking_score>  (296) 
-2.62785

>  <r_i_glide_ligand_efficiency>  (296) 
-0.105114

>  <r_i_glide_ligand_efficiency_sa>  (296) 
-0.307355

>  <r_i_glide_ligand_efficiency_ln>  (296) 
-0.622879

>  <r_i_glide_gscore>  (296) 
-2.62785

>  <r_i_glide_lipo>  (296) 
-0.59387

>  <r_i_glide_hbond>  (296) 
0

>  <r_i_glide_metal>  (296) 
-0

>  <r_i_glide_rewards>  (296) 
-1.23179

>  <r_i_glide_evdw>  (296) 
-29.844

>  <r_i_glide_ecoul>  (296) 
-0.494766

>  <r_i_glide_erotb>  (296) 
0.804594

>  <r_i_glide_esite>  (296) 
-0.0403653

>  <r_i_glide_emodel>  (296) 
-32.1908

>  <r_i_glide_energy>  (296) 
-30.3388

>  <r_i_glide_einternal>  (296) 
4.41843

>  <r_i_glide_intrahb_reward>  (296) 
-0

>  <i_i_glide_confnum>  (296) 
1

>  <i_i_glide_posenum>  (296) 
18

>  <r_i_glide_eff_state_penalty>  (296) 
0

>  <ligand_id>  (296) 
76

>  <original_smiles>  (296) 
CCOC(=O)N1C2CCC1CC(Cn1cnnn1)(c1cnccn1)C2

>  <smiles>  (296) 
[H]c1nc([H])c(C2(C([H])([H])n3nnnc3[H])C([H])([H])C3([H])N(C(=O)OC([H])([H])C([H])([H])[H])C([H])(C([H])([H])C3([H])[H])C2([H])[H])nc1[H]

$$$$
76:0:2
     RDKit          3D

 46 49  0  0  1  0  0  0  0  0999 V2000
    2.0614  -10.3474    3.0114 C   0  0  0  0  0  0  0  0  0  0  0  0
    1.7498   -9.3314    1.9052 C   0  0  0  0  0  0  0  0  0  0  0  0
    2.5452   -8.1583    2.0347 O   0  0  0  0  0  0  0  0  0  0  0  0
    3.8163   -8.1370    1.5780 C   0  0  0  0  0  0  0  0  0  0  0  0
    4.3746   -9.0528    1.0114 O   0  0  0  0  0  0  0  0  0  0  0  0
    4.3893   -6.8849    1.8642 N   0  0  0  0  0  0  0  0  0  0  0  0
    3.7686   -5.7313    2.4719 C   0  0  1  0  0  0  0  0  0  0  0  0
    4.8089   -5.3015    3.5192 C   0  0  0  0  0  0  0  0  0  0  0  0
    6.1563   -5.8236    2.9364 C   0  0  0  0  0  0  0  0  0  0  0  0
    5.7665   -6.5192    1.6198 C   0  0  2  0  0  0  0  0  0  0  0  0
    5.7612   -5.5858    0.3776 C   0  0  0  0  0  0  0  0  0  0  0  0
    4.8599   -4.3128    0.5432 C   0  0  1  0  0  0  0  0  0  0  0  0
    5.6662   -3.1872    1.3364 C   0  0  0  0  0  0  0  0  0  0  0  0
    4.9001   -1.9366    1.4121 N   0  0  0  0  0  0  0  0  0  0  0  0
    4.0460   -1.5441    2.3182 C   0  0  0  0  0  0  0  0  0  0  0  0
    3.5504   -0.3291    2.0796 N   0  0  0  0  0  0  0  0  0  0  0  0
    4.1834    0.0059    0.8824 N   0  0  0  0  0  0  0  0  0  0  0  0
    5.0120   -0.9145    0.4803 N   0  0  0  0  0  0  0  0  0  0  0  0
    4.5198   -3.7447   -0.8545 C   0  0  0  0  0  0  0  0  0  0  0  0
    3.2088   -3.2913   -1.2165 C   0  0  0  0  0  0  0  0  0  0  0  0
    2.9645   -2.6335   -2.3693 N   0  0  0  0  0  0  0  0  0  0  0  0
    4.0101   -2.4095   -3.1805 C   0  0  0  0  0  0  0  0  0  0  0  0
    5.3157   -2.8545   -2.8396 C   0  0  0  0  0  0  0  0  0  0  0  0
    5.5524   -3.5174   -1.6917 N   0  0  0  0  0  0  0  0  0  0  0  0
    3.5464   -4.7321    1.3096 C   0  0  0  0  0  0  0  0  0  0  0  0
    1.4541  -11.2438    2.8940 H   0  0  0  0  0  0  0  0  0  0  0  0
    1.8586   -9.9405    4.0034 H   0  0  0  0  0  0  0  0  0  0  0  0
    3.1072  -10.6530    2.9752 H   0  0  0  0  0  0  0  0  0  0  0  0
    1.8822   -9.7690    0.9150 H   0  0  0  0  0  0  0  0  0  0  0  0
    0.7063   -9.0282    1.9836 H   0  0  0  0  0  0  0  0  0  0  0  0
    2.8065   -5.9295    2.9631 H   0  0  0  0  0  0  0  0  0  0  0  0
    4.7622   -4.2228    3.6814 H   0  0  0  0  0  0  0  0  0  0  0  0
    4.6109   -5.8119    4.4613 H   0  0  0  0  0  0  0  0  0  0  0  0
    6.9162   -5.0603    2.7512 H   0  0  0  0  0  0  0  0  0  0  0  0
    6.5981   -6.5311    3.6354 H   0  0  0  0  0  0  0  0  0  0  0  0
    6.4089   -7.3822    1.4366 H   0  0  0  0  0  0  0  0  0  0  0  0
    6.7791   -5.3056    0.1049 H   0  0  0  0  0  0  0  0  0  0  0  0
    5.3953   -6.1738   -0.4676 H   0  0  0  0  0  0  0  0  0  0  0  0
    5.9023   -3.4107    2.3403 H   0  0  0  0  0  0  0  0  0  0  0  0
    6.6101   -2.9587    0.7744 H   0  0  0  0  0  0  0  0  0  0  0  0
    3.7443   -2.1227    3.1986 H   0  0  0  0  0  0  0  0  0  0  0  0
    2.3697   -3.3494   -0.5507 H   0  0  0  0  0  0  0  0  0  0  0  0
    3.8140   -1.8883   -4.0969 H   0  0  0  0  0  0  0  0  0  0  0  0
    6.1538   -2.6736   -3.4871 H   0  0  0  0  0  0  0  0  0  0  0  0
    2.8664   -5.2496    0.6257 H   0  0  0  0  0  0  0  0  0  0  0  0
    2.9750   -3.8740    1.6609 H   0  0  0  0  0  0  0  0  0  0  0  0
  1  2  1  0
  1 26  1  0
  1 27  1  0
  1 28  1  0
  2  3  1  0
  2 29  1  0
  2 30  1  0
  3  4  1  0
  4  5  2  0
  4  6  1  0
  6 10  1  0
  6  7  1  0
  7 25  1  0
  7  8  1  0
  7 31  1  1
  8  9  1  0
  8 32  1  0
  8 33  1  0
  9 10  1  0
  9 34  1  0
  9 35  1  0
 10 11  1  0
 10 36  1  6
 11 12  1  0
 11 37  1  0
 11 38  1  0
 12 13  1  1
 12 19  1  0
 12 25  1  0
 13 14  1  0
 13 39  1  0
 13 40  1  0
 14 18  1  0
 14 15  1  0
 15 16  2  0
 15 41  1  0
 16 17  1  0
 17 18  2  0
 19 24  1  0
 19 20  2  0
 20 21  1  0
 20 42  1  0
 21 22  2  0
 22 23  1  0
 22 43  1  0
 23 24  2  0
 23 44  1  0
 25 45  1  0
 25 46  1  0
M  END
>  <i_m_ct_stereo_status>  (297) 
1

>  <s_m_source_file>  (297) 
/var/tmp/pbs.5076255.sched01/tmpwmgilt76/96rd2vfdyj.sdf

>  <i_m_source_file_index>  (297) 
29

>  <i_lp_mmshare_version>  (297) 
48012

>  <i_f3d_flags>  (297) 
0

>  <s_epik_input>  (297) 
W0NIM11bQ0gyXU9DKD1PKU4oW0NAQEhdMTIpW0NASF0oW0NIMl1bQ0gyXTEpW0NIMl1bQ0BAXShbQ0gyXTIpKFtDSDJdbjNbY0hdbm5uMyljNFtjSF1uW2NIXVtjSF1uNA==

>  <s_epik_cmdline>  (297) 
J2VwaWtfcHl0aG9uJywgJy1waHQnLCAnMi4wJywgJy1waCcsICc3LjAnLCAnLXRuJywgJzgnLCAnLW1hJywgJzIwMCcsICctaW1hZScsICc8aW5maWxlLm1hZT4nLCAnLW9tYWUnLCAnPG91dGZpbGUubWFlPic=

>  <r_lp_tautomer_probability>  (297) 
1

>  <r_epik_Ionization_Penalty>  (297) 
1.16924e-05

>  <r_epik_Ionization_Penalty_Charging>  (297) 
0

>  <r_epik_Ionization_Penalty_Neutral>  (297) 
1.16924e-05

>  <r_epik_State_Penalty>  (297) 
-0

>  <r_epik_Charging_Adjusted_Penalty>  (297) 
0

>  <i_epik_Tot_Q>  (297) 
0

>  <i_epik_Tot_abs_Q>  (297) 
0

>  <s_epik_Chemistry_Notes>  (297) 
This compound has an ester and may undergo hydrolysis at high or low pH.

>  <s_lp_Force_Field>  (297) 
OPLS3e

>  <r_lp_Energy>  (297) 
43.3181

>  <b_lp_Chiralities_Consistent>  (297) 
1

>  <s_lp_Variant>  (297) 
76:0-1

>  <s_i_glide_gridfile>  (297) 
pfpi4k_grid

>  <i_i_glide_lignum>  (297) 
29

>  <i_i_glide_rotatable_bonds>  (297) 
6

>  <r_i_docking_score>  (297) 
-2.5393

>  <r_i_glide_ligand_efficiency>  (297) 
-0.101572

>  <r_i_glide_ligand_efficiency_sa>  (297) 
-0.296999

>  <r_i_glide_ligand_efficiency_ln>  (297) 
-0.601891

>  <r_i_glide_gscore>  (297) 
-2.5393

>  <r_i_glide_lipo>  (297) 
-0.852673

>  <r_i_glide_hbond>  (297) 
0

>  <r_i_glide_metal>  (297) 
-0

>  <r_i_glide_rewards>  (297) 
-1.18687

>  <r_i_glide_evdw>  (297) 
-29.4677

>  <r_i_glide_ecoul>  (297) 
1.18148

>  <r_i_glide_erotb>  (297) 
0.804594

>  <r_i_glide_esite>  (297) 
-0.00819091

>  <r_i_glide_emodel>  (297) 
-31.3904

>  <r_i_glide_energy>  (297) 
-28.2863

>  <r_i_glide_einternal>  (297) 
2.51143

>  <r_i_glide_intrahb_reward>  (297) 
-0

>  <i_i_glide_confnum>  (297) 
1

>  <i_i_glide_posenum>  (297) 
30

>  <r_i_glide_eff_state_penalty>  (297) 
0

>  <ligand_id>  (297) 
76

>  <original_smiles>  (297) 
CCOC(=O)N1C2CCC1CC(Cn1cnnn1)(c1cnccn1)C2

>  <smiles>  (297) 
[H]c1nc([H])c(C2(C([H])([H])n3nnnc3[H])C([H])([H])C3([H])N(C(=O)OC([H])([H])C([H])([H])[H])C([H])(C([H])([H])C3([H])[H])C2([H])[H])nc1[H]

$$$$
76:1:0
     RDKit          3D

 46 49  0  0  1  0  0  0  0  0999 V2000
    3.5239   -2.9267    7.2941 C   0  0  0  0  0  0  0  0  0  0  0  0
    2.7895   -1.6861    6.7777 C   0  0  0  0  0  0  0  0  0  0  0  0
    2.8817   -1.6297    5.3662 O   0  0  0  0  0  0  0  0  0  0  0  0
    3.9113   -0.9941    4.7636 C   0  0  0  0  0  0  0  0  0  0  0  0
    4.7951   -0.3786    5.3630 O   0  0  0  0  0  0  0  0  0  0  0  0
    3.8208   -1.1383    3.3807 N   0  0  0  0  0  0  0  0  0  0  0  0
    2.7968   -1.8462    2.6307 C   0  0  1  0  0  0  0  0  0  0  0  0
    2.4599   -0.8381    1.5137 C   0  0  0  0  0  0  0  0  0  0  0  0
    3.6951    0.0824    1.3965 C   0  0  0  0  0  0  0  0  0  0  0  0
    4.7064   -0.5423    2.3926 C   0  0  2  0  0  0  0  0  0  0  0  0
    5.5835   -1.7160    1.8648 C   0  0  0  0  0  0  0  0  0  0  0  0
    4.7474   -2.8907    1.2255 C   0  0  2  0  0  0  0  0  0  0  0  0
    5.6066   -4.1866    1.1431 C   0  0  0  0  0  0  0  0  0  0  0  0
    6.8906   -3.9924    0.4926 N   0  0  0  0  0  0  0  0  0  0  0  0
    8.1164   -4.2790    0.9242 C   0  0  0  0  0  0  0  0  0  0  0  0
    9.0392   -3.9349    0.0337 N   0  0  0  0  0  0  0  0  0  0  0  0
    8.2869   -3.4225   -1.0160 N   0  0  0  0  0  0  0  0  0  0  0  0
    7.0393   -3.4564   -0.7557 N   0  0  0  0  0  0  0  0  0  0  0  0
    4.2978   -2.5526   -0.2134 C   0  0  0  0  0  0  0  0  0  0  0  0
    4.8366   -1.4771   -0.9764 C   0  0  0  0  0  0  0  0  0  0  0  0
    4.3800   -1.1638   -2.2137 N   0  0  0  0  0  0  0  0  0  0  0  0
    3.3869   -1.9419   -2.7020 C   0  0  0  0  0  0  0  0  0  0  0  0
    2.9145   -3.0565   -1.9867 C   0  0  0  0  0  0  0  0  0  0  0  0
    3.3899   -3.3860   -0.7771 N   0  0  0  0  0  0  0  0  0  0  0  0
    3.4728   -3.1501    2.1239 C   0  0  0  0  0  0  0  0  0  0  0  0
    3.4615   -2.9842    8.3795 H   0  0  0  0  0  0  0  0  0  0  0  0
    4.5792   -2.8981    7.0201 H   0  0  0  0  0  0  0  0  0  0  0  0
    3.0948   -3.8412    6.8822 H   0  0  0  0  0  0  0  0  0  0  0  0
    1.7356   -1.7383    7.0501 H   0  0  0  0  0  0  0  0  0  0  0  0
    3.1881   -0.7772    7.2277 H   0  0  0  0  0  0  0  0  0  0  0  0
    1.8920   -2.0902    3.1992 H   0  0  0  0  0  0  0  0  0  0  0  0
    2.2142   -1.3666    0.5972 H   0  0  0  0  0  0  0  0  0  0  0  0
    1.5706   -0.2536    1.7558 H   0  0  0  0  0  0  0  0  0  0  0  0
    4.0608    0.1908    0.3822 H   0  0  0  0  0  0  0  0  0  0  0  0
    3.4151    1.0874    1.7112 H   0  0  0  0  0  0  0  0  0  0  0  0
    5.3415    0.2294    2.8283 H   0  0  0  0  0  0  0  0  0  0  0  0
    6.3687   -1.3500    1.2016 H   0  0  0  0  0  0  0  0  0  0  0  0
    6.1492   -2.1144    2.7077 H   0  0  0  0  0  0  0  0  0  0  0  0
    5.7851   -4.5722    2.1444 H   0  0  0  0  0  0  0  0  0  0  0  0
    5.0624   -4.9716    0.6101 H   0  0  0  0  0  0  0  0  0  0  0  0
    8.3409   -4.7141    1.8907 H   0  0  0  0  0  0  0  0  0  0  0  0
    5.6135   -0.8240   -0.6147 H   0  0  0  0  0  0  0  0  0  0  0  0
    2.9955   -1.6569   -3.6656 H   0  0  0  0  0  0  0  0  0  0  0  0
    2.1458   -3.7109   -2.4097 H   0  0  0  0  0  0  0  0  0  0  0  0
    3.7595   -3.7317    2.9993 H   0  0  0  0  0  0  0  0  0  0  0  0
    2.7348   -3.7818    1.6229 H   0  0  0  0  0  0  0  0  0  0  0  0
  1  2  1  0
  1 26  1  0
  1 27  1  0
  1 28  1  0
  2  3  1  0
  2 29  1  0
  2 30  1  0
  3  4  1  0
  4  5  2  0
  4  6  1  0
  6 10  1  0
  6  7  1  0
  7 25  1  0
  7  8  1  0
  7 31  1  1
  8  9  1  0
  8 32  1  0
  8 33  1  0
  9 10  1  0
  9 34  1  0
  9 35  1  0
 10 11  1  0
 10 36  1  1
 11 12  1  0
 11 37  1  0
 11 38  1  0
 12 13  1  6
 12 19  1  0
 12 25  1  0
 13 14  1  0
 13 39  1  0
 13 40  1  0
 14 18  1  0
 14 15  1  0
 15 16  2  0
 15 41  1  0
 16 17  1  0
 17 18  2  0
 19 24  1  0
 19 20  2  0
 20 21  1  0
 20 42  1  0
 21 22  2  0
 22 23  1  0
 22 43  1  0
 23 24  2  0
 23 44  1  0
 25 45  1  0
 25 46  1  0
M  END
>  <i_m_ct_stereo_status>  (298) 
1

>  <s_m_source_file>  (298) 
/var/tmp/pbs.5076255.sched01/tmpwmgilt76/96rd2vfdyj.sdf

>  <i_m_source_file_index>  (298) 
30

>  <i_lp_mmshare_version>  (298) 
48012

>  <i_f3d_flags>  (298) 
0

>  <s_epik_input>  (298) 
W0NIM11bQ0gyXU9DKD1PKU4oW0NAQEhdMTIpW0NASF0oW0NIMl1bQ0gyXTEpW0NIMl1bQ0BAXShbQ0gyXTIpKFtDSDJdbjNbY0hdbm5uMyljNFtjSF1uW2NIXVtjSF1uNA==

>  <s_epik_cmdline>  (298) 
J2VwaWtfcHl0aG9uJywgJy1waHQnLCAnMi4wJywgJy1waCcsICc3LjAnLCAnLXRuJywgJzgnLCAnLW1hJywgJzIwMCcsICctaW1hZScsICc8aW5maWxlLm1hZT4nLCAnLW9tYWUnLCAnPG91dGZpbGUubWFlPic=

>  <r_lp_tautomer_probability>  (298) 
1

>  <r_epik_Ionization_Penalty>  (298) 
1.16924e-05

>  <r_epik_Ionization_Penalty_Charging>  (298) 
0

>  <r_epik_Ionization_Penalty_Neutral>  (298) 
1.16924e-05

>  <r_epik_State_Penalty>  (298) 
-0

>  <r_epik_Charging_Adjusted_Penalty>  (298) 
0

>  <i_epik_Tot_Q>  (298) 
0

>  <i_epik_Tot_abs_Q>  (298) 
0

>  <s_epik_Chemistry_Notes>  (298) 
This compound has an ester and may undergo hydrolysis at high or low pH.

>  <s_lp_Force_Field>  (298) 
OPLS3e

>  <r_lp_Energy>  (298) 
44.8909

>  <b_lp_Chiralities_Consistent>  (298) 
1

>  <s_lp_Variant>  (298) 
76:0-2

>  <s_i_glide_gridfile>  (298) 
pfpi4k_grid

>  <i_i_glide_lignum>  (298) 
30

>  <i_i_glide_rotatable_bonds>  (298) 
6

>  <r_i_docking_score>  (298) 
-2.63375

>  <r_i_glide_ligand_efficiency>  (298) 
-0.10535

>  <r_i_glide_ligand_efficiency_sa>  (298) 
-0.308046

>  <r_i_glide_ligand_efficiency_ln>  (298) 
-0.624278

>  <r_i_glide_gscore>  (298) 
-2.63375

>  <r_i_glide_lipo>  (298) 
-0.329113

>  <r_i_glide_hbond>  (298) 
0

>  <r_i_glide_metal>  (298) 
-0

>  <r_i_glide_rewards>  (298) 
-1.45222

>  <r_i_glide_evdw>  (298) 
-26.161

>  <r_i_glide_ecoul>  (298) 
-2.08452

>  <r_i_glide_erotb>  (298) 
0.804594

>  <r_i_glide_esite>  (298) 
-0.0362784

>  <r_i_glide_emodel>  (298) 
-30.7895

>  <r_i_glide_energy>  (298) 
-28.2456

>  <r_i_glide_einternal>  (298) 
2.49873

>  <r_i_glide_intrahb_reward>  (298) 
-0

>  <i_i_glide_confnum>  (298) 
3

>  <i_i_glide_posenum>  (298) 
5

>  <r_i_glide_eff_state_penalty>  (298) 
0

>  <ligand_id>  (298) 
76

>  <original_smiles>  (298) 
CCOC(=O)N1C2CCC1CC(Cn1cnnn1)(c1cnccn1)C2

>  <smiles>  (298) 
[H]c1nc([H])c(C2(C([H])([H])n3nnnc3[H])C([H])([H])C3([H])N(C(=O)OC([H])([H])C([H])([H])[H])C([H])(C([H])([H])C3([H])[H])C2([H])[H])nc1[H]

$$$$
76:1:1
     RDKit          3D

 46 49  0  0  1  0  0  0  0  0999 V2000
    6.4778   -2.6533    0.7953 C   0  0  0  0  0  0  0  0  0  0  0  0
    6.4209   -4.1451    0.4401 C   0  0  0  0  0  0  0  0  0  0  0  0
    5.2753   -4.7585    1.0060 O   0  0  0  0  0  0  0  0  0  0  0  0
    5.2705   -5.1547    2.2959 C   0  0  0  0  0  0  0  0  0  0  0  0
    6.2073   -5.0390    3.0660 O   0  0  0  0  0  0  0  0  0  0  0  0
    4.0323   -5.6856    2.6427 N   0  0  0  0  0  0  0  0  0  0  0  0
    3.6494   -6.1252    3.9716 C   0  0  1  0  0  0  0  0  0  0  0  0
    2.2245   -5.5274    4.1133 C   0  0  0  0  0  0  0  0  0  0  0  0
    1.7271   -5.3042    2.6717 C   0  0  0  0  0  0  0  0  0  0  0  0
    2.8583   -5.8802    1.7981 C   0  0  2  0  0  0  0  0  0  0  0  0
    2.8270   -7.4102    1.5345 C   0  0  0  0  0  0  0  0  0  0  0  0
    2.7501   -8.2992    2.8268 C   0  0  2  0  0  0  0  0  0  0  0  0
    3.1539   -9.7672    2.5267 C   0  0  0  0  0  0  0  0  0  0  0  0
    4.5702   -9.9808    2.2643 N   0  0  0  0  0  0  0  0  0  0  0  0
    5.4384  -10.8041    2.8891 C   0  0  0  0  0  0  0  0  0  0  0  0
    6.6507  -10.7531    2.3418 N   0  0  0  0  0  0  0  0  0  0  0  0
    6.4650   -9.8424    1.3034 N   0  0  0  0  0  0  0  0  0  0  0  0
    5.2480   -9.4029    1.2461 N   0  0  0  0  0  0  0  0  0  0  0  0
    1.2814   -8.3669    3.3398 C   0  0  0  0  0  0  0  0  0  0  0  0
    0.1652   -7.9485    2.5655 C   0  0  0  0  0  0  0  0  0  0  0  0
   -1.0948   -7.8666    3.1018 N   0  0  0  0  0  0  0  0  0  0  0  0
   -1.2023   -8.2699    4.3699 C   0  0  0  0  0  0  0  0  0  0  0  0
   -0.1295   -8.7812    5.1143 C   0  0  0  0  0  0  0  0  0  0  0  0
    1.1114   -8.8551    4.5837 N   0  0  0  0  0  0  0  0  0  0  0  0
    3.6776   -7.6740    3.9425 C   0  0  0  0  0  0  0  0  0  0  0  0
    7.3601   -2.1846    0.3607 H   0  0  0  0  0  0  0  0  0  0  0  0
    6.5265   -2.5097    1.8749 H   0  0  0  0  0  0  0  0  0  0  0  0
    5.5962   -2.1265    0.4278 H   0  0  0  0  0  0  0  0  0  0  0  0
    6.3735   -4.2574   -0.6438 H   0  0  0  0  0  0  0  0  0  0  0  0
    7.3228   -4.6594    0.7714 H   0  0  0  0  0  0  0  0  0  0  0  0
    4.3142   -5.7455    4.7588 H   0  0  0  0  0  0  0  0  0  0  0  0
    1.5899   -6.1848    4.7083 H   0  0  0  0  0  0  0  0  0  0  0  0
    2.2558   -4.5736    4.6487 H   0  0  0  0  0  0  0  0  0  0  0  0
    0.7567   -5.7375    2.4737 H   0  0  0  0  0  0  0  0  0  0  0  0
    1.6267   -4.2370    2.4854 H   0  0  0  0  0  0  0  0  0  0  0  0
    2.9228   -5.3535    0.8417 H   0  0  0  0  0  0  0  0  0  0  0  0
    2.0318   -7.6900    0.8670 H   0  0  0  0  0  0  0  0  0  0  0  0
    3.7138   -7.6138    0.9434 H   0  0  0  0  0  0  0  0  0  0  0  0
    2.8971  -10.3883    3.3891 H   0  0  0  0  0  0  0  0  0  0  0  0
    2.5743  -10.1542    1.6852 H   0  0  0  0  0  0  0  0  0  0  0  0
    5.1733  -11.4172    3.7365 H   0  0  0  0  0  0  0  0  0  0  0  0
    0.2046   -7.5702    1.5668 H   0  0  0  0  0  0  0  0  0  0  0  0
   -2.1707   -8.2252    4.8024 H   0  0  0  0  0  0  0  0  0  0  0  0
   -0.2615   -9.1556    6.1235 H   0  0  0  0  0  0  0  0  0  0  0  0
    4.7158   -7.9487    3.7748 H   0  0  0  0  0  0  0  0  0  0  0  0
    3.4674   -8.0731    4.9368 H   0  0  0  0  0  0  0  0  0  0  0  0
  1  2  1  0
  1 26  1  0
  1 27  1  0
  1 28  1  0
  2  3  1  0
  2 29  1  0
  2 30  1  0
  3  4  1  0
  4  5  2  0
  4  6  1  0
  6 10  1  0
  6  7  1  0
  7 25  1  0
  7  8  1  0
  7 31  1  1
  8  9  1  0
  8 32  1  0
  8 33  1  0
  9 10  1  0
  9 34  1  0
  9 35  1  0
 10 11  1  0
 10 36  1  6
 11 12  1  0
 11 37  1  0
 11 38  1  0
 12 13  1  6
 12 19  1  0
 12 25  1  0
 13 14  1  0
 13 39  1  0
 13 40  1  0
 14 18  1  0
 14 15  1  0
 15 16  2  0
 15 41  1  0
 16 17  1  0
 17 18  2  0
 19 24  1  0
 19 20  2  0
 20 21  1  0
 20 42  1  0
 21 22  2  0
 22 23  1  0
 22 43  1  0
 23 24  2  0
 23 44  1  0
 25 45  1  0
 25 46  1  0
M  END
>  <i_m_ct_stereo_status>  (299) 
1

>  <s_m_source_file>  (299) 
/var/tmp/pbs.5076255.sched01/tmpwmgilt76/96rd2vfdyj.sdf

>  <i_m_source_file_index>  (299) 
30

>  <i_lp_mmshare_version>  (299) 
48012

>  <i_f3d_flags>  (299) 
0

>  <s_epik_input>  (299) 
W0NIM11bQ0gyXU9DKD1PKU4oW0NAQEhdMTIpW0NASF0oW0NIMl1bQ0gyXTEpW0NIMl1bQ0BAXShbQ0gyXTIpKFtDSDJdbjNbY0hdbm5uMyljNFtjSF1uW2NIXVtjSF1uNA==

>  <s_epik_cmdline>  (299) 
J2VwaWtfcHl0aG9uJywgJy1waHQnLCAnMi4wJywgJy1waCcsICc3LjAnLCAnLXRuJywgJzgnLCAnLW1hJywgJzIwMCcsICctaW1hZScsICc8aW5maWxlLm1hZT4nLCAnLW9tYWUnLCAnPG91dGZpbGUubWFlPic=

>  <r_lp_tautomer_probability>  (299) 
1

>  <r_epik_Ionization_Penalty>  (299) 
1.16924e-05

>  <r_epik_Ionization_Penalty_Charging>  (299) 
0

>  <r_epik_Ionization_Penalty_Neutral>  (299) 
1.16924e-05

>  <r_epik_State_Penalty>  (299) 
-0

>  <r_epik_Charging_Adjusted_Penalty>  (299) 
0

>  <i_epik_Tot_Q>  (299) 
0

>  <i_epik_Tot_abs_Q>  (299) 
0

>  <s_epik_Chemistry_Notes>  (299) 
This compound has an ester and may undergo hydrolysis at high or low pH.

>  <s_lp_Force_Field>  (299) 
OPLS3e

>  <r_lp_Energy>  (299) 
44.8909

>  <b_lp_Chiralities_Consistent>  (299) 
1

>  <s_lp_Variant>  (299) 
76:0-2

>  <s_i_glide_gridfile>  (299) 
pfpi4k_grid

>  <i_i_glide_lignum>  (299) 
30

>  <i_i_glide_rotatable_bonds>  (299) 
6

>  <r_i_docking_score>  (299) 
-2.31677

>  <r_i_glide_ligand_efficiency>  (299) 
-0.092671

>  <r_i_glide_ligand_efficiency_sa>  (299) 
-0.270972

>  <r_i_glide_ligand_efficiency_ln>  (299) 
-0.549145

>  <r_i_glide_gscore>  (299) 
-2.31677

>  <r_i_glide_lipo>  (299) 
-0.213682

>  <r_i_glide_hbond>  (299) 
0

>  <r_i_glide_metal>  (299) 
-0

>  <r_i_glide_rewards>  (299) 
-1.08547

>  <r_i_glide_evdw>  (299) 
-23.4267

>  <r_i_glide_ecoul>  (299) 
-2.82973

>  <r_i_glide_erotb>  (299) 
0.804594

>  <r_i_glide_esite>  (299) 
-0.226425

>  <r_i_glide_emodel>  (299) 
-28.4209

>  <r_i_glide_energy>  (299) 
-26.2564

>  <r_i_glide_einternal>  (299) 
2.94431

>  <r_i_glide_intrahb_reward>  (299) 
-0

>  <i_i_glide_confnum>  (299) 
2

>  <i_i_glide_posenum>  (299) 
4

>  <r_i_glide_eff_state_penalty>  (299) 
0

>  <ligand_id>  (299) 
76

>  <original_smiles>  (299) 
CCOC(=O)N1C2CCC1CC(Cn1cnnn1)(c1cnccn1)C2

>  <smiles>  (299) 
[H]c1nc([H])c(C2(C([H])([H])n3nnnc3[H])C([H])([H])C3([H])N(C(=O)OC([H])([H])C([H])([H])[H])C([H])(C([H])([H])C3([H])[H])C2([H])[H])nc1[H]

$$$$
76:1:2
     RDKit          3D

 46 49  0  0  1  0  0  0  0  0999 V2000
    3.7492   -1.1627   -2.2742 C   0  0  0  0  0  0  0  0  0  0  0  0
    3.9697   -2.2784   -1.2447 C   0  0  0  0  0  0  0  0  0  0  0  0
    3.4567   -1.8958    0.0161 O   0  0  0  0  0  0  0  0  0  0  0  0
    4.1436   -1.0975    0.8497 C   0  0  0  0  0  0  0  0  0  0  0  0
    5.2904   -0.6593    0.6025 O   0  0  0  0  0  0  0  0  0  0  0  0
    3.4095   -0.8463    1.9973 N   0  0  0  0  0  0  0  0  0  0  0  0
    2.0732   -1.3400    2.3388 C   0  0  1  0  0  0  0  0  0  0  0  0
    2.2714   -1.8852    3.7895 C   0  0  0  0  0  0  0  0  0  0  0  0
    3.4433   -1.0080    4.3306 C   0  0  0  0  0  0  0  0  0  0  0  0
    3.8486   -0.0906    3.1547 C   0  0  2  0  0  0  0  0  0  0  0  0
    3.0725    1.2556    3.1111 C   0  0  0  0  0  0  0  0  0  0  0  0
    1.5028    1.1061    3.1176 C   0  0  2  0  0  0  0  0  0  0  0  0
    0.8305    2.4204    2.5858 C   0  0  0  0  0  0  0  0  0  0  0  0
    1.2586    3.6502    3.2471 N   0  0  0  0  0  0  0  0  0  0  0  0
    2.2295    4.5070    2.9457 C   0  0  0  0  0  0  0  0  0  0  0  0
    2.3777    5.4660    3.8650 N   0  0  0  0  0  0  0  0  0  0  0  0
    1.3291    5.1520    4.7483 N   0  0  0  0  0  0  0  0  0  0  0  0
    0.6392    4.1523    4.3722 N   0  0  0  0  0  0  0  0  0  0  0  0
    0.9966    0.8584    4.5634 C   0  0  0  0  0  0  0  0  0  0  0  0
   -0.0246   -0.0663    4.9113 C   0  0  0  0  0  0  0  0  0  0  0  0
   -0.4890   -0.2047    6.1702 N   0  0  0  0  0  0  0  0  0  0  0  0
    0.0947    0.5607    7.1144 C   0  0  0  0  0  0  0  0  0  0  0  0
    1.0903    1.5132    6.7816 C   0  0  0  0  0  0  0  0  0  0  0  0
    1.5044    1.6666    5.5134 N   0  0  0  0  0  0  0  0  0  0  0  0
    1.1342   -0.0980    2.1745 C   0  0  0  0  0  0  0  0  0  0  0  0
    4.1474   -1.4472   -3.2468 H   0  0  0  0  0  0  0  0  0  0  0  0
    4.2491   -0.2450   -1.9663 H   0  0  0  0  0  0  0  0  0  0  0  0
    2.6863   -0.9413   -2.3904 H   0  0  0  0  0  0  0  0  0  0  0  0
    3.4514   -3.1819   -1.5656 H   0  0  0  0  0  0  0  0  0  0  0  0
    5.0268   -2.5347   -1.1570 H   0  0  0  0  0  0  0  0  0  0  0  0
    1.7226   -2.1472    1.6967 H   0  0  0  0  0  0  0  0  0  0  0  0
    1.3824   -1.8677    4.4028 H   0  0  0  0  0  0  0  0  0  0  0  0
    2.6527   -2.9197    3.7306 H   0  0  0  0  0  0  0  0  0  0  0  0
    3.1585   -0.4192    5.1999 H   0  0  0  0  0  0  0  0  0  0  0  0
    4.2788   -1.6240    4.6688 H   0  0  0  0  0  0  0  0  0  0  0  0
    4.9324    0.0857    3.1520 H   0  0  0  0  0  0  0  0  0  0  0  0
    3.4676    1.9222    3.8831 H   0  0  0  0  0  0  0  0  0  0  0  0
    3.3289    1.7472    2.1755 H   0  0  0  0  0  0  0  0  0  0  0  0
    1.0637    2.5337    1.5258 H   0  0  0  0  0  0  0  0  0  0  0  0
   -0.2594    2.3375    2.6533 H   0  0  0  0  0  0  0  0  0  0  0  0
    2.8696    4.4322    2.0660 H   0  0  0  0  0  0  0  0  0  0  0  0
   -0.5198   -0.7119    4.1591 H   0  0  0  0  0  0  0  0  0  0  0  0
   -0.2513    0.4367    8.1464 H   0  0  0  0  0  0  0  0  0  0  0  0
    1.4678    2.2236    7.5066 H   0  0  0  0  0  0  0  0  0  0  0  0
    1.2354    0.2433    1.1400 H   0  0  0  0  0  0  0  0  0  0  0  0
    0.0822   -0.3779    2.2379 H   0  0  0  0  0  0  0  0  0  0  0  0
  1  2  1  0
  1 26  1  0
  1 27  1  0
  1 28  1  0
  2  3  1  0
  2 29  1  0
  2 30  1  0
  3  4  1  0
  4  5  2  0
  4  6  1  0
  6 10  1  0
  6  7  1  0
  7 25  1  0
  7  8  1  0
  7 31  1  6
  8  9  1  0
  8 32  1  0
  8 33  1  0
  9 10  1  0
  9 34  1  0
  9 35  1  0
 10 11  1  0
 10 36  1  6
 11 12  1  0
 11 37  1  0
 11 38  1  0
 12 13  1  6
 12 19  1  0
 12 25  1  0
 13 14  1  0
 13 39  1  0
 13 40  1  0
 14 18  1  0
 14 15  1  0
 15 16  2  0
 15 41  1  0
 16 17  1  0
 17 18  2  0
 19 24  1  0
 19 20  2  0
 20 21  1  0
 20 42  1  0
 21 22  2  0
 22 23  1  0
 22 43  1  0
 23 24  2  0
 23 44  1  0
 25 45  1  0
 25 46  1  0
M  END
>  <i_m_ct_stereo_status>  (300) 
1

>  <s_m_source_file>  (300) 
/var/tmp/pbs.5076255.sched01/tmpwmgilt76/96rd2vfdyj.sdf

>  <i_m_source_file_index>  (300) 
30

>  <i_lp_mmshare_version>  (300) 
48012

>  <i_f3d_flags>  (300) 
0

>  <s_epik_input>  (300) 
W0NIM11bQ0gyXU9DKD1PKU4oW0NAQEhdMTIpW0NASF0oW0NIMl1bQ0gyXTEpW0NIMl1bQ0BAXShbQ0gyXTIpKFtDSDJdbjNbY0hdbm5uMyljNFtjSF1uW2NIXVtjSF1uNA==

>  <s_epik_cmdline>  (300) 
J2VwaWtfcHl0aG9uJywgJy1waHQnLCAnMi4wJywgJy1waCcsICc3LjAnLCAnLXRuJywgJzgnLCAnLW1hJywgJzIwMCcsICctaW1hZScsICc8aW5maWxlLm1hZT4nLCAnLW9tYWUnLCAnPG91dGZpbGUubWFlPic=

>  <r_lp_tautomer_probability>  (300) 
1

>  <r_epik_Ionization_Penalty>  (300) 
1.16924e-05

>  <r_epik_Ionization_Penalty_Charging>  (300) 
0

>  <r_epik_Ionization_Penalty_Neutral>  (300) 
1.16924e-05

>  <r_epik_State_Penalty>  (300) 
-0

>  <r_epik_Charging_Adjusted_Penalty>  (300) 
0

>  <i_epik_Tot_Q>  (300) 
0

>  <i_epik_Tot_abs_Q>  (300) 
0

>  <s_epik_Chemistry_Notes>  (300) 
This compound has an ester and may undergo hydrolysis at high or low pH.

>  <s_lp_Force_Field>  (300) 
OPLS3e

>  <r_lp_Energy>  (300) 
44.8909

>  <b_lp_Chiralities_Consistent>  (300) 
1

>  <s_lp_Variant>  (300) 
76:0-2

>  <s_i_glide_gridfile>  (300) 
pfpi4k_grid

>  <i_i_glide_lignum>  (300) 
30

>  <i_i_glide_rotatable_bonds>  (300) 
6

>  <r_i_docking_score>  (300) 
-2.29671

>  <r_i_glide_ligand_efficiency>  (300) 
-0.0918685

>  <r_i_glide_ligand_efficiency_sa>  (300) 
-0.268625

>  <r_i_glide_ligand_efficiency_ln>  (300) 
-0.54439

>  <r_i_glide_gscore>  (300) 
-2.29671

>  <r_i_glide_lipo>  (300) 
-0.0116435

>  <r_i_glide_hbond>  (300) 
0

>  <r_i_glide_metal>  (300) 
-0

>  <r_i_glide_rewards>  (300) 
-1.06784

>  <r_i_glide_evdw>  (300) 
-23.6076

>  <r_i_glide_ecoul>  (300) 
-4.01811

>  <r_i_glide_erotb>  (300) 
0.804594

>  <r_i_glide_esite>  (300) 
-0.23873

>  <r_i_glide_emodel>  (300) 
-30.7418

>  <r_i_glide_energy>  (300) 
-27.6257

>  <r_i_glide_einternal>  (300) 
0.309235

>  <r_i_glide_intrahb_reward>  (300) 
-0

>  <i_i_glide_confnum>  (300) 
3

>  <i_i_glide_posenum>  (300) 
15

>  <r_i_glide_eff_state_penalty>  (300) 
0

>  <ligand_id>  (300) 
76

>  <original_smiles>  (300) 
CCOC(=O)N1C2CCC1CC(Cn1cnnn1)(c1cnccn1)C2

>  <smiles>  (300) 
[H]c1nc([H])c(C2(C([H])([H])n3nnnc3[H])C([H])([H])C3([H])N(C(=O)OC([H])([H])C([H])([H])[H])C([H])(C([H])([H])C3([H])[H])C2([H])[H])nc1[H]

$$$$
79:0:0
     RDKit          3D

 87 92  0  0  1  0  0  0  0  0999 V2000
    4.8211   -4.2909   -0.6636 C   0  0  0  0  0  0  0  0  0  0  0  0
    4.8679   -5.3424    0.4569 C   0  0  2  0  0  0  0  0  0  0  0  0
    3.4569   -5.6696    0.9210 C   0  0  0  0  0  0  0  0  0  0  0  0
    2.9908   -5.5633    2.1885 C   0  0  0  0  0  0  0  0  0  0  0  0
    1.5264   -5.8282    2.5094 C   0  0  1  0  0  0  0  0  0  0  0  0
    0.7829   -6.8673    1.6612 C   0  0  0  0  0  0  0  0  0  0  0  0
   -0.4531   -7.2486    2.5031 C   0  0  1  0  0  0  0  0  0  0  0  0
   -0.8241   -8.7325    2.3634 C   0  0  0  0  0  0  0  0  0  0  0  0
   -0.1644   -6.7431    3.9433 C   0  0  1  0  0  0  0  0  0  0  0  0
   -0.4848   -7.7565    5.0546 C   0  0  0  0  0  0  0  0  0  0  0  0
    1.3123   -6.2959    3.9252 C   0  0  2  0  0  0  0  0  0  0  0  0
    1.8783   -5.3023    4.9958 C   0  0  2  0  0  0  0  0  0  0  0  0
    0.8969   -4.7275    6.0416 C   0  0  0  0  0  0  0  0  0  0  0  0
    0.7907   -3.2361    6.0732 C   0  0  0  0  0  0  0  0  0  0  0  0
    1.4857   -2.3571    5.3290 C   0  0  0  0  0  0  0  0  0  0  0  0
    1.1700   -0.8654    5.5560 C   0  0  2  0  0  0  0  0  0  0  0  0
    0.1543   -0.2989    4.5245 C   0  0  0  0  0  0  0  0  0  0  0  0
   -0.2944    1.1481    4.8363 C   0  0  1  0  0  0  0  0  0  0  0  0
   -1.2688    1.6543    3.7532 C   0  0  0  0  0  0  0  0  0  0  0  0
   -1.0701    1.2148    6.1767 C   0  0  0  0  0  0  0  0  0  0  0  0
   -0.9589    2.2483    6.8759 O   0  0  0  0  0  0  0  0  0  0  0  0
   -1.7992    0.2352    6.4751 O   0  0  0  0  0  0  0  0  0  0  0  0
    0.9902    2.0154    4.8382 C   0  0  0  0  0  0  0  0  0  0  0  0
    2.0496    1.5221    5.8395 C   0  0  0  0  0  0  0  0  0  0  0  0
    2.4327    0.0163    5.7287 C   0  0  1  0  0  0  0  0  0  0  0  0
    3.1581   -0.3435    7.0494 C   0  0  0  0  0  0  0  0  0  0  0  0
    3.3569   -0.2444    4.5255 C   0  0  0  0  0  0  0  0  0  0  0  0
    3.7528   -1.7329    4.3925 C   0  0  0  0  0  0  0  0  0  0  0  0
    2.5732   -2.7869    4.2996 C   0  0  2  0  0  0  0  0  0  0  0  0
    1.9267   -2.5861    2.9063 C   0  0  0  0  0  0  0  0  0  0  0  0
    3.0691   -4.3365    4.5517 C   0  0  1  0  0  0  0  0  0  0  0  0
    4.0043   -4.2997    5.8119 C   0  0  0  0  0  0  0  0  0  0  0  0
    3.8847   -5.0819    3.3596 C   0  0  1  0  0  0  0  0  0  0  0  0
    4.5902   -6.3687    3.9056 C   0  0  0  0  0  0  0  0  0  0  0  0
    5.0268   -4.2188    2.7428 C   0  0  0  0  0  0  0  0  0  0  0  0
    5.7974   -4.9130    1.6075 C   0  0  0  0  0  0  0  0  0  0  0  0
    4.2239   -4.6541   -1.5008 H   0  0  0  0  0  0  0  0  0  0  0  0
    5.8183   -4.0857   -1.0501 H   0  0  0  0  0  0  0  0  0  0  0  0
    4.3884   -3.3501   -0.3184 H   0  0  0  0  0  0  0  0  0  0  0  0
    5.2761   -6.2566    0.0259 H   0  0  0  0  0  0  0  0  0  0  0  0
    2.7918   -5.9817    0.1316 H   0  0  0  0  0  0  0  0  0  0  0  0
    0.9933   -4.8967    2.4003 H   0  0  0  0  0  0  0  0  0  0  0  0
    0.5029   -6.4813    0.6810 H   0  0  0  0  0  0  0  0  0  0  0  0
    1.4197   -7.7371    1.4955 H   0  0  0  0  0  0  0  0  0  0  0  0
   -1.3053   -6.6850    2.1221 H   0  0  0  0  0  0  0  0  0  0  0  0
   -0.0128   -9.3867    2.6912 H   0  0  0  0  0  0  0  0  0  0  0  0
   -1.0292   -8.9491    1.3172 H   0  0  0  0  0  0  0  0  0  0  0  0
   -1.7270   -8.9942    2.9154 H   0  0  0  0  0  0  0  0  0  0  0  0
   -0.7957   -5.8643    4.0804 H   0  0  0  0  0  0  0  0  0  0  0  0
    0.0931   -8.6752    4.9577 H   0  0  0  0  0  0  0  0  0  0  0  0
   -1.5408   -8.0284    5.0315 H   0  0  0  0  0  0  0  0  0  0  0  0
   -0.2650   -7.3458    6.0386 H   0  0  0  0  0  0  0  0  0  0  0  0
    1.8755   -7.2248    4.0089 H   0  0  0  0  0  0  0  0  0  0  0  0
    2.3434   -6.0527    5.6338 H   0  0  0  0  0  0  0  0  0  0  0  0
   -0.1160   -5.1071    5.9477 H   0  0  0  0  0  0  0  0  0  0  0  0
    1.2245   -5.0203    7.0411 H   0  0  0  0  0  0  0  0  0  0  0  0
    0.0669   -2.8664    6.7824 H   0  0  0  0  0  0  0  0  0  0  0  0
    0.6692   -0.8191    6.5232 H   0  0  0  0  0  0  0  0  0  0  0  0
    0.5833   -0.2797    3.5269 H   0  0  0  0  0  0  0  0  0  0  0  0
   -0.7133   -0.9560    4.4594 H   0  0  0  0  0  0  0  0  0  0  0  0
   -0.8064    1.6363    2.7617 H   0  0  0  0  0  0  0  0  0  0  0  0
   -1.5823    2.6827    3.9517 H   0  0  0  0  0  0  0  0  0  0  0  0
   -2.1698    1.0396    3.7239 H   0  0  0  0  0  0  0  0  0  0  0  0
    1.4193    2.0152    3.8354 H   0  0  0  0  0  0  0  0  0  0  0  0
    0.7489    3.0588    5.0448 H   0  0  0  0  0  0  0  0  0  0  0  0
    2.9444    2.1348    5.7309 H   0  0  0  0  0  0  0  0  0  0  0  0
    1.6812    1.7295    6.8453 H   0  0  0  0  0  0  0  0  0  0  0  0
    4.1025    0.1964    7.1352 H   0  0  0  0  0  0  0  0  0  0  0  0
    3.3723   -1.4082    7.1302 H   0  0  0  0  0  0  0  0  0  0  0  0
    2.5474   -0.0855    7.9171 H   0  0  0  0  0  0  0  0  0  0  0  0
    2.8859    0.1063    3.6095 H   0  0  0  0  0  0  0  0  0  0  0  0
    4.2635    0.3549    4.6255 H   0  0  0  0  0  0  0  0  0  0  0  0
    4.4017   -1.7754    3.5288 H   0  0  0  0  0  0  0  0  0  0  0  0
    4.4041   -1.9243    5.2366 H   0  0  0  0  0  0  0  0  0  0  0  0
    2.4391   -3.0990    2.1022 H   0  0  0  0  0  0  0  0  0  0  0  0
    1.9326   -1.5517    2.5822 H   0  0  0  0  0  0  0  0  0  0  0  0
    0.8797   -2.8849    2.9095 H   0  0  0  0  0  0  0  0  0  0  0  0
    4.9960   -3.9068    5.5949 H   0  0  0  0  0  0  0  0  0  0  0  0
    4.1932   -5.2772    6.2565 H   0  0  0  0  0  0  0  0  0  0  0  0
    3.5812   -3.6974    6.6147 H   0  0  0  0  0  0  0  0  0  0  0  0
    5.4931   -6.1328    4.4725 H   0  0  0  0  0  0  0  0  0  0  0  0
    4.8986   -7.0327    3.0959 H   0  0  0  0  0  0  0  0  0  0  0  0
    3.9678   -6.9857    4.5503 H   0  0  0  0  0  0  0  0  0  0  0  0
    4.6069   -3.3383    2.2716 H   0  0  0  0  0  0  0  0  0  0  0  0
    5.7298   -3.8840    3.5034 H   0  0  0  0  0  0  0  0  0  0  0  0
    6.3461   -5.7748    1.9887 H   0  0  0  0  0  0  0  0  0  0  0  0
    6.5688   -4.2426    1.2295 H   0  0  0  0  0  0  0  0  0  0  0  0
  1  2  1  0
  1 37  1  0
  1 38  1  0
  1 39  1  0
  2 36  1  0
  2  3  1  0
  2 40  1  6
  3  4  2  0
  3 41  1  0
  4 33  1  0
  4  5  1  0
  5 11  1  0
  5  6  1  0
  5 42  1  1
  6  7  1  0
  6 43  1  0
  6 44  1  0
  7  8  1  0
  7  9  1  0
  7 45  1  6
  8 46  1  0
  8 47  1  0
  8 48  1  0
  9 10  1  0
  9 11  1  0
  9 49  1  1
 10 50  1  0
 10 51  1  0
 10 52  1  0
 11 12  1  0
 11 53  1  6
 12 31  1  0
 12 13  1  0
 12 54  1  1
 13 14  1  0
 13 55  1  0
 13 56  1  0
 14 15  2  0
 14 57  1  0
 15 29  1  0
 15 16  1  0
 16 25  1  0
 16 17  1  0
 16 58  1  1
 17 18  1  0
 17 59  1  0
 17 60  1  0
 18 19  1  6
 18 20  1  0
 18 23  1  0
 19 61  1  0
 19 62  1  0
 19 63  1  0
 20 21  2  0
 20 22  1  0
 23 24  1  0
 23 64  1  0
 23 65  1  0
 24 25  1  0
 24 66  1  0
 24 67  1  0
 25 26  1  1
 25 27  1  0
 26 68  1  0
 26 69  1  0
 26 70  1  0
 27 28  1  0
 27 71  1  0
 27 72  1  0
 28 29  1  0
 28 73  1  0
 28 74  1  0
 29 30  1  6
 29 31  1  0
 30 75  1  0
 30 76  1  0
 30 77  1  0
 31 32  1  1
 31 33  1  0
 32 78  1  0
 32 79  1  0
 32 80  1  0
 33 34  1  1
 33 35  1  0
 34 81  1  0
 34 82  1  0
 34 83  1  0
 35 36  1  0
 35 84  1  0
 35 85  1  0
 36 86  1  0
 36 87  1  0
M  CHG  1  22  -1
M  END
>  <i_m_ct_stereo_status>  (301) 
1

>  <s_m_source_file>  (301) 
/var/tmp/pbs.5076255.sched01/tmpwmgilt76/96rd2vfdyj.sdf

>  <i_m_source_file_index>  (301) 
33

>  <i_lp_mmshare_version>  (301) 
48012

>  <i_f3d_flags>  (301) 
0

>  <s_epik_input>  (301) 
W0NIM11bQ0BIXShbQ0hdPTEpW0NIMl1bQ0gyXVtDQF0yKFtDSDNdKUMxW0NAQEhdKFtDSDJdW0NAQEhdKFtDSDNdKVtDQEhdM1tDSDNdKVtDQEhdM1tDQEhdKFtDSDJdW0NIXT00KVtDQF0yKFtDSDNdKVtDQF0oW0NIM10pKFtDSDJdW0NIMl01KUM0W0NAQEhdKFtDQEBdNTZbQ0gzXSlbQ0gyXVtDQEBdKFtDSDNdKShDKD1PKVtPSF0pW0NIMl1bQ0gyXTY=

>  <s_epik_cmdline>  (301) 
J2VwaWtfcHl0aG9uJywgJy1waHQnLCAnMi4wJywgJy1waCcsICc3LjAnLCAnLXRuJywgJzgnLCAnLW1hJywgJzIwMCcsICctaW1hZScsICc8aW5maWxlLm1hZT4nLCAnLW9tYWUnLCAnPG91dGZpbGUubWFlPic=

>  <r_epik_Ionization_Penalty>  (301) 
0.00728111

>  <r_epik_Ionization_Penalty_Charging>  (301) 
0.00728111

>  <r_epik_Ionization_Penalty_Neutral>  (301) 
0

>  <r_epik_State_Penalty>  (301) 
0.00543125

>  <r_epik_Charging_Adjusted_Penalty>  (301) 
0.0127124

>  <i_epik_Tot_Q>  (301) 
-1

>  <i_epik_Tot_abs_Q>  (301) 
1

>  <s_lp_Force_Field>  (301) 
OPLS3e

>  <r_lp_Energy>  (301) 
99.5443

>  <b_lp_Chiralities_Consistent>  (301) 
1

>  <s_lp_Variant>  (301) 
79:0-1

>  <s_i_glide_gridfile>  (301) 
pfpi4k_grid

>  <i_i_glide_lignum>  (301) 
33

>  <i_i_glide_rotatable_bonds>  (301) 
1

>  <r_i_docking_score>  (301) 
-2.39849

>  <r_i_glide_ligand_efficiency>  (301) 
-0.0666247

>  <r_i_glide_ligand_efficiency_sa>  (301) 
-0.21999

>  <r_i_glide_ligand_efficiency_ln>  (301) 
-0.523286

>  <r_i_glide_gscore>  (301) 
-2.39849

>  <r_i_glide_lipo>  (301) 
-0.181065

>  <r_i_glide_hbond>  (301) 
-0.2

>  <r_i_glide_metal>  (301) 
-0

>  <r_i_glide_rewards>  (301) 
-0.0561304

>  <r_i_glide_evdw>  (301) 
-28.1536

>  <r_i_glide_ecoul>  (301) 
-3.50176

>  <r_i_glide_erotb>  (301) 
0

>  <r_i_glide_esite>  (301) 
-0.0283518

>  <r_i_glide_emodel>  (301) 
-37.9408

>  <r_i_glide_energy>  (301) 
-31.6553

>  <r_i_glide_einternal>  (301) 
1.11145e-06

>  <r_i_glide_intrahb_reward>  (301) 
-0

>  <i_i_glide_confnum>  (301) 
2

>  <i_i_glide_posenum>  (301) 
26

>  <r_i_glide_eff_state_penalty>  (301) 
0

>  <ligand_id>  (301) 
79

>  <original_smiles>  (301) 
CC1C=C2C3CC(C)C(C)C3C3CC=C4C5CC(C)(C(=O)O)CCC5(C)CCC4(C)C3(C)C2(C)CC1

>  <smiles>  (301) 
[H]C1=C2C3([H])C([H])([H])C(C(=O)[O-])(C([H])([H])[H])C([H])([H])C([H])([H])C3(C([H])([H])[H])C([H])([H])C([H])([H])C2(C([H])([H])[H])C2(C([H])([H])[H])C([H])(C1([H])[H])C1([H])C([H])(C3=C([H])C([H])(C([H])([H])[H])C([H])([H])C([H])([H])C32C([H])([H])[H])C([H])([H])C([H])(C([H])([H])[H])C1([H])C([H])([H])[H]

$$$$
79:0:1
     RDKit          3D

 87 92  0  0  1  0  0  0  0  0999 V2000
   -2.0142   -7.9995    2.8656 C   0  0  0  0  0  0  0  0  0  0  0  0
   -1.1739   -8.3974    4.0778 C   0  0  2  0  0  0  0  0  0  0  0  0
   -0.7860   -7.1615    4.8702 C   0  0  0  0  0  0  0  0  0  0  0  0
    0.4711   -6.7915    5.1990 C   0  0  0  0  0  0  0  0  0  0  0  0
    0.7284   -5.4779    5.9219 C   0  0  1  0  0  0  0  0  0  0  0  0
   -0.3392   -4.9807    6.9027 C   0  0  0  0  0  0  0  0  0  0  0  0
    0.3914   -3.9590    7.7967 C   0  0  1  0  0  0  0  0  0  0  0  0
   -0.1276   -3.9983    9.2468 C   0  0  0  0  0  0  0  0  0  0  0  0
    1.9136   -4.2108    7.5831 C   0  0  1  0  0  0  0  0  0  0  0  0
    2.7639   -4.2446    8.8704 C   0  0  0  0  0  0  0  0  0  0  0  0
    1.9890   -5.5111    6.7493 C   0  0  2  0  0  0  0  0  0  0  0  0
    3.2646   -5.8879    5.9184 C   0  0  2  0  0  0  0  0  0  0  0  0
    4.4326   -4.8785    5.8927 C   0  0  0  0  0  0  0  0  0  0  0  0
    4.8286   -4.3902    4.5371 C   0  0  0  0  0  0  0  0  0  0  0  0
    4.3092   -4.7670    3.3539 C   0  0  0  0  0  0  0  0  0  0  0  0
    4.8974   -4.0934    2.1027 C   0  0  2  0  0  0  0  0  0  0  0  0
    4.0568   -2.8836    1.6078 C   0  0  0  0  0  0  0  0  0  0  0  0
    4.7268   -2.1034    0.4484 C   0  0  1  0  0  0  0  0  0  0  0  0
    3.8290   -0.9390    0.0087 C   0  0  0  0  0  0  0  0  0  0  0  0
    6.0774   -1.4778    0.8743 C   0  0  0  0  0  0  0  0  0  0  0  0
    6.1562   -1.0548    2.0500 O   0  0  0  0  0  0  0  0  0  0  0  0
    7.0026   -1.4326    0.0309 O   0  0  0  0  0  0  0  0  0  0  0  0
    4.9000   -3.1109   -0.7090 C   0  0  0  0  0  0  0  0  0  0  0  0
    5.7379   -4.3327   -0.2938 C   0  0  0  0  0  0  0  0  0  0  0  0
    5.2619   -5.0863    0.9776 C   0  0  1  0  0  0  0  0  0  0  0  0
    6.4476   -5.9811    1.4186 C   0  0  0  0  0  0  0  0  0  0  0  0
    4.0211   -5.9479    0.6827 C   0  0  0  0  0  0  0  0  0  0  0  0
    3.5216   -6.7077    1.9314 C   0  0  0  0  0  0  0  0  0  0  0  0
    3.1927   -5.8436    3.2188 C   0  0  2  0  0  0  0  0  0  0  0  0
    1.8981   -5.0567    2.8883 C   0  0  0  0  0  0  0  0  0  0  0  0
    3.0555   -6.7454    4.5869 C   0  0  1  0  0  0  0  0  0  0  0  0
    4.2715   -7.7365    4.5897 C   0  0  0  0  0  0  0  0  0  0  0  0
    1.7055   -7.6292    4.7819 C   0  0  1  0  0  0  0  0  0  0  0  0
    1.9041   -8.6882    5.9202 C   0  0  0  0  0  0  0  0  0  0  0  0
    1.3073   -8.4533    3.5181 C   0  0  0  0  0  0  0  0  0  0  0  0
    0.0258   -9.2813    3.6868 C   0  0  0  0  0  0  0  0  0  0  0  0
   -2.9025   -7.4558    3.1883 H   0  0  0  0  0  0  0  0  0  0  0  0
   -2.3539   -8.8785    2.3164 H   0  0  0  0  0  0  0  0  0  0  0  0
   -1.4508   -7.3675    2.1776 H   0  0  0  0  0  0  0  0  0  0  0  0
   -1.8188   -8.9922    4.7244 H   0  0  0  0  0  0  0  0  0  0  0  0
   -1.6176   -6.5445    5.1630 H   0  0  0  0  0  0  0  0  0  0  0  0
    0.8325   -4.6943    5.1845 H   0  0  0  0  0  0  0  0  0  0  0  0
   -1.1876   -4.5257    6.3917 H   0  0  0  0  0  0  0  0  0  0  0  0
   -0.7205   -5.8122    7.4974 H   0  0  0  0  0  0  0  0  0  0  0  0
    0.1801   -2.9627    7.4057 H   0  0  0  0  0  0  0  0  0  0  0  0
    0.0592   -4.9670    9.7119 H   0  0  0  0  0  0  0  0  0  0  0  0
   -1.2033   -3.8238    9.2827 H   0  0  0  0  0  0  0  0  0  0  0  0
    0.3462   -3.2316    9.8603 H   0  0  0  0  0  0  0  0  0  0  0  0
    2.2626   -3.3846    6.9622 H   0  0  0  0  0  0  0  0  0  0  0  0
    2.4389   -5.0324    9.5491 H   0  0  0  0  0  0  0  0  0  0  0  0
    2.7093   -3.2951    9.4028 H   0  0  0  0  0  0  0  0  0  0  0  0
    3.8146   -4.4295    8.6526 H   0  0  0  0  0  0  0  0  0  0  0  0
    1.8335   -6.3066    7.4797 H   0  0  0  0  0  0  0  0  0  0  0  0
    3.6898   -6.5839    6.6397 H   0  0  0  0  0  0  0  0  0  0  0  0
    4.2586   -3.9942    6.4984 H   0  0  0  0  0  0  0  0  0  0  0  0
    5.3263   -5.3464    6.3110 H   0  0  0  0  0  0  0  0  0  0  0  0
    5.6141   -3.6494    4.5515 H   0  0  0  0  0  0  0  0  0  0  0  0
    5.8526   -3.6765    2.4203 H   0  0  0  0  0  0  0  0  0  0  0  0
    3.0893   -3.2118    1.2371 H   0  0  0  0  0  0  0  0  0  0  0  0
    3.8388   -2.2138    2.4403 H   0  0  0  0  0  0  0  0  0  0  0  0
    2.8651   -1.3196   -0.3217 H   0  0  0  0  0  0  0  0  0  0  0  0
    4.2704   -0.3851   -0.8231 H   0  0  0  0  0  0  0  0  0  0  0  0
    3.6527   -0.2317    0.8227 H   0  0  0  0  0  0  0  0  0  0  0  0
    3.9195   -3.4393   -1.0531 H   0  0  0  0  0  0  0  0  0  0  0  0
    5.3597   -2.6242   -1.5698 H   0  0  0  0  0  0  0  0  0  0  0  0
    5.7469   -5.0340   -1.1234 H   0  0  0  0  0  0  0  0  0  0  0  0
    6.7740   -4.0121   -0.1653 H   0  0  0  0  0  0  0  0  0  0  0  0
    6.6566   -6.7492    0.6744 H   0  0  0  0  0  0  0  0  0  0  0  0
    6.2645   -6.4780    2.3697 H   0  0  0  0  0  0  0  0  0  0  0  0
    7.3593   -5.3940    1.5461 H   0  0  0  0  0  0  0  0  0  0  0  0
    3.2237   -5.3331    0.2681 H   0  0  0  0  0  0  0  0  0  0  0  0
    4.2513   -6.6675   -0.1047 H   0  0  0  0  0  0  0  0  0  0  0  0
    2.6674   -7.2783    1.5914 H   0  0  0  0  0  0  0  0  0  0  0  0
    4.2847   -7.4528    2.1262 H   0  0  0  0  0  0  0  0  0  0  0  0
    0.9855   -5.6194    3.0388 H   0  0  0  0  0  0  0  0  0  0  0  0
    1.8433   -4.7653    1.8459 H   0  0  0  0  0  0  0  0  0  0  0  0
    1.8432   -4.1285    3.4566 H   0  0  0  0  0  0  0  0  0  0  0  0
    4.1424   -8.5697    3.9002 H   0  0  0  0  0  0  0  0  0  0  0  0
    4.4592   -8.2092    5.5537 H   0  0  0  0  0  0  0  0  0  0  0  0
    5.2026   -7.2348    4.3278 H   0  0  0  0  0  0  0  0  0  0  0  0
    2.4979   -9.5420    5.5875 H   0  0  0  0  0  0  0  0  0  0  0  0
    0.9528   -9.0979    6.2666 H   0  0  0  0  0  0  0  0  0  0  0  0
    2.3861   -8.3051    6.8164 H   0  0  0  0  0  0  0  0  0  0  0  0
    1.0686   -7.7846    2.7010 H   0  0  0  0  0  0  0  0  0  0  0  0
    2.1128   -9.1080    3.1888 H   0  0  0  0  0  0  0  0  0  0  0  0
    0.1655  -10.0631    4.4335 H   0  0  0  0  0  0  0  0  0  0  0  0
   -0.1933   -9.8241    2.7666 H   0  0  0  0  0  0  0  0  0  0  0  0
  1  2  1  0
  1 37  1  0
  1 38  1  0
  1 39  1  0
  2 36  1  0
  2  3  1  0
  2 40  1  1
  3  4  2  0
  3 41  1  0
  4 33  1  0
  4  5  1  0
  5 11  1  0
  5  6  1  0
  5 42  1  6
  6  7  1  0
  6 43  1  0
  6 44  1  0
  7  8  1  0
  7  9  1  0
  7 45  1  6
  8 46  1  0
  8 47  1  0
  8 48  1  0
  9 10  1  0
  9 11  1  0
  9 49  1  6
 10 50  1  0
 10 51  1  0
 10 52  1  0
 11 12  1  0
 11 53  1  1
 12 31  1  0
 12 13  1  0
 12 54  1  1
 13 14  1  0
 13 55  1  0
 13 56  1  0
 14 15  2  0
 14 57  1  0
 15 29  1  0
 15 16  1  0
 16 25  1  0
 16 17  1  0
 16 58  1  1
 17 18  1  0
 17 59  1  0
 17 60  1  0
 18 19  1  6
 18 20  1  0
 18 23  1  0
 19 61  1  0
 19 62  1  0
 19 63  1  0
 20 21  2  0
 20 22  1  0
 23 24  1  0
 23 64  1  0
 23 65  1  0
 24 25  1  0
 24 66  1  0
 24 67  1  0
 25 26  1  1
 25 27  1  0
 26 68  1  0
 26 69  1  0
 26 70  1  0
 27 28  1  0
 27 71  1  0
 27 72  1  0
 28 29  1  0
 28 73  1  0
 28 74  1  0
 29 30  1  6
 29 31  1  0
 30 75  1  0
 30 76  1  0
 30 77  1  0
 31 32  1  6
 31 33  1  0
 32 78  1  0
 32 79  1  0
 32 80  1  0
 33 34  1  1
 33 35  1  0
 34 81  1  0
 34 82  1  0
 34 83  1  0
 35 36  1  0
 35 84  1  0
 35 85  1  0
 36 86  1  0
 36 87  1  0
M  CHG  1  22  -1
M  END
>  <i_m_ct_stereo_status>  (302) 
1

>  <s_m_source_file>  (302) 
/var/tmp/pbs.5076255.sched01/tmpwmgilt76/96rd2vfdyj.sdf

>  <i_m_source_file_index>  (302) 
33

>  <i_lp_mmshare_version>  (302) 
48012

>  <i_f3d_flags>  (302) 
0

>  <s_epik_input>  (302) 
W0NIM11bQ0BIXShbQ0hdPTEpW0NIMl1bQ0gyXVtDQF0yKFtDSDNdKUMxW0NAQEhdKFtDSDJdW0NAQEhdKFtDSDNdKVtDQEhdM1tDSDNdKVtDQEhdM1tDQEhdKFtDSDJdW0NIXT00KVtDQF0yKFtDSDNdKVtDQF0oW0NIM10pKFtDSDJdW0NIMl01KUM0W0NAQEhdKFtDQEBdNTZbQ0gzXSlbQ0gyXVtDQEBdKFtDSDNdKShDKD1PKVtPSF0pW0NIMl1bQ0gyXTY=

>  <s_epik_cmdline>  (302) 
J2VwaWtfcHl0aG9uJywgJy1waHQnLCAnMi4wJywgJy1waCcsICc3LjAnLCAnLXRuJywgJzgnLCAnLW1hJywgJzIwMCcsICctaW1hZScsICc8aW5maWxlLm1hZT4nLCAnLW9tYWUnLCAnPG91dGZpbGUubWFlPic=

>  <r_epik_Ionization_Penalty>  (302) 
0.00728111

>  <r_epik_Ionization_Penalty_Charging>  (302) 
0.00728111

>  <r_epik_Ionization_Penalty_Neutral>  (302) 
0

>  <r_epik_State_Penalty>  (302) 
0.00543125

>  <r_epik_Charging_Adjusted_Penalty>  (302) 
0.0127124

>  <i_epik_Tot_Q>  (302) 
-1

>  <i_epik_Tot_abs_Q>  (302) 
1

>  <s_lp_Force_Field>  (302) 
OPLS3e

>  <r_lp_Energy>  (302) 
99.5443

>  <b_lp_Chiralities_Consistent>  (302) 
1

>  <s_lp_Variant>  (302) 
79:0-1

>  <s_i_glide_gridfile>  (302) 
pfpi4k_grid

>  <i_i_glide_lignum>  (302) 
33

>  <i_i_glide_rotatable_bonds>  (302) 
1

>  <r_i_docking_score>  (302) 
-2.34681

>  <r_i_glide_ligand_efficiency>  (302) 
-0.0651891

>  <r_i_glide_ligand_efficiency_sa>  (302) 
-0.21525

>  <r_i_glide_ligand_efficiency_ln>  (302) 
-0.51201

>  <r_i_glide_gscore>  (302) 
-2.34681

>  <r_i_glide_lipo>  (302) 
-0.392916

>  <r_i_glide_hbond>  (302) 
-0.12675

>  <r_i_glide_metal>  (302) 
-0

>  <r_i_glide_rewards>  (302) 
-0.261933

>  <r_i_glide_evdw>  (302) 
-29.6926

>  <r_i_glide_ecoul>  (302) 
-0.537179

>  <r_i_glide_erotb>  (302) 
0

>  <r_i_glide_esite>  (302) 
0

>  <r_i_glide_emodel>  (302) 
-36.2874

>  <r_i_glide_energy>  (302) 
-30.2298

>  <r_i_glide_einternal>  (302) 
0.183527

>  <r_i_glide_intrahb_reward>  (302) 
-0

>  <i_i_glide_confnum>  (302) 
1

>  <i_i_glide_posenum>  (302) 
10

>  <r_i_glide_eff_state_penalty>  (302) 
0

>  <ligand_id>  (302) 
79

>  <original_smiles>  (302) 
CC1C=C2C3CC(C)C(C)C3C3CC=C4C5CC(C)(C(=O)O)CCC5(C)CCC4(C)C3(C)C2(C)CC1

>  <smiles>  (302) 
[H]C1=C2C3([H])C([H])([H])C(C(=O)[O-])(C([H])([H])[H])C([H])([H])C([H])([H])C3(C([H])([H])[H])C([H])([H])C([H])([H])C2(C([H])([H])[H])C2(C([H])([H])[H])C([H])(C1([H])[H])C1([H])C([H])(C3=C([H])C([H])(C([H])([H])[H])C([H])([H])C([H])([H])C32C([H])([H])[H])C([H])([H])C([H])(C([H])([H])[H])C1([H])C([H])([H])[H]

$$$$
79:0:2
     RDKit          3D

 87 92  0  0  1  0  0  0  0  0999 V2000
    5.9218   -5.4302    0.5023 C   0  0  0  0  0  0  0  0  0  0  0  0
    5.8107   -6.4005    1.6901 C   0  0  2  0  0  0  0  0  0  0  0  0
    4.3502   -6.7379    1.9441 C   0  0  0  0  0  0  0  0  0  0  0  0
    3.6824   -6.5565    3.1099 C   0  0  0  0  0  0  0  0  0  0  0  0
    2.1897   -6.8360    3.2076 C   0  0  1  0  0  0  0  0  0  0  0  0
    1.6272   -7.9603    2.3313 C   0  0  0  0  0  0  0  0  0  0  0  0
    0.2821   -8.3337    2.9857 C   0  0  1  0  0  0  0  0  0  0  0  0
   -0.0025   -9.8440    2.8868 C   0  0  0  0  0  0  0  0  0  0  0  0
    0.3109   -7.7176    4.4164 C   0  0  1  0  0  0  0  0  0  0  0  0
   -0.1676   -8.6557    5.5422 C   0  0  0  0  0  0  0  0  0  0  0  0
    1.7601   -7.2175    4.6014 C   0  0  2  0  0  0  0  0  0  0  0  0
    2.1298   -6.1400    5.6744 C   0  0  2  0  0  0  0  0  0  0  0  0
    0.9832   -5.5252    6.5050 C   0  0  0  0  0  0  0  0  0  0  0  0
    0.8391   -4.0382    6.4101 C   0  0  0  0  0  0  0  0  0  0  0  0
    1.6224   -3.1913    5.7204 C   0  0  0  0  0  0  0  0  0  0  0  0
    1.2436   -1.6982    5.7908 C   0  0  2  0  0  0  0  0  0  0  0  0
    0.3937   -1.2345    4.5770 C   0  0  0  0  0  0  0  0  0  0  0  0
   -0.1294    0.2151    4.7092 C   0  0  1  0  0  0  0  0  0  0  0  0
   -0.9113    0.6130    3.4405 C   0  0  0  0  0  0  0  0  0  0  0  0
   -1.1164    0.3522    5.9085 C   0  0  0  0  0  0  0  0  0  0  0  0
   -1.0107    1.3362    6.6735 O   0  0  0  0  0  0  0  0  0  0  0  0
   -1.9821   -0.5422    6.0608 O   0  0  0  0  0  0  0  0  0  0  0  0
    1.1246    1.1176    4.8427 C   0  0  0  0  0  0  0  0  0  0  0  0
    2.0234    0.7299    6.0292 C   0  0  0  0  0  0  0  0  0  0  0  0
    2.4424   -0.7674    6.0935 C   0  0  1  0  0  0  0  0  0  0  0  0
    2.9544   -1.0116    7.5342 C   0  0  0  0  0  0  0  0  0  0  0  0
    3.5572   -1.0812    5.0790 C   0  0  0  0  0  0  0  0  0  0  0  0
    3.9992   -2.5622    5.1173 C   0  0  0  0  0  0  0  0  0  0  0  0
    2.8718   -3.6559    4.9167 C   0  0  2  0  0  0  0  0  0  0  0  0
    2.4559   -3.5753    3.4268 C   0  0  0  0  0  0  0  0  0  0  0  0
    3.3548   -5.1671    5.3570 C   0  0  1  0  0  0  0  0  0  0  0  0
    4.0752   -5.0130    6.7443 C   0  0  0  0  0  0  0  0  0  0  0  0
    4.3669   -5.9653    4.3665 C   0  0  1  0  0  0  0  0  0  0  0  0
    5.0049   -7.1853    5.1132 C   0  0  0  0  0  0  0  0  0  0  0  0
    5.5779   -5.1130    3.8812 C   0  0  0  0  0  0  0  0  0  0  0  0
    6.5342   -5.8598    2.9351 C   0  0  0  0  0  0  0  0  0  0  0  0
    5.4684   -5.8625   -0.3903 H   0  0  0  0  0  0  0  0  0  0  0  0
    6.9632   -5.2202    0.2645 H   0  0  0  0  0  0  0  0  0  0  0  0
    5.4225   -4.4834    0.7037 H   0  0  0  0  0  0  0  0  0  0  0  0
    6.3075   -7.3259    1.3967 H   0  0  0  0  0  0  0  0  0  0  0  0
    3.8283   -7.1259    1.0849 H   0  0  0  0  0  0  0  0  0  0  0  0
    1.6488   -5.9451    2.9202 H   0  0  0  0  0  0  0  0  0  0  0  0
    1.4937   -7.6516    1.2930 H   0  0  0  0  0  0  0  0  0  0  0  0
    2.3039   -8.8179    2.3351 H   0  0  0  0  0  0  0  0  0  0  0  0
   -0.5101   -7.8250    2.4350 H   0  0  0  0  0  0  0  0  0  0  0  0
    0.7421  -10.4343    3.4265 H   0  0  0  0  0  0  0  0  0  0  0  0
    0.0075  -10.1822    1.8540 H   0  0  0  0  0  0  0  0  0  0  0  0
   -0.9861  -10.0899    3.2827 H   0  0  0  0  0  0  0  0  0  0  0  0
   -0.3531   -6.8532    4.3785 H   0  0  0  0  0  0  0  0  0  0  0  0
    0.4347   -9.5611    5.6072 H   0  0  0  0  0  0  0  0  0  0  0  0
   -1.2031   -8.9608    5.3814 H   0  0  0  0  0  0  0  0  0  0  0  0
   -0.1209   -8.1760    6.5174 H   0  0  0  0  0  0  0  0  0  0  0  0
    2.3258   -8.1184    4.8380 H   0  0  0  0  0  0  0  0  0  0  0  0
    2.5029   -6.8290    6.4313 H   0  0  0  0  0  0  0  0  0  0  0  0
    0.0074   -5.9460    6.2789 H   0  0  0  0  0  0  0  0  0  0  0  0
    1.1496   -5.7390    7.5617 H   0  0  0  0  0  0  0  0  0  0  0  0
   -0.0009   -3.6497    6.9673 H   0  0  0  0  0  0  0  0  0  0  0  0
    0.5882   -1.6011    6.6553 H   0  0  0  0  0  0  0  0  0  0  0  0
    0.9733   -1.2765    3.6595 H   0  0  0  0  0  0  0  0  0  0  0  0
   -0.4392   -1.9195    4.4221 H   0  0  0  0  0  0  0  0  0  0  0  0
   -0.2935    0.5457    2.5384 H   0  0  0  0  0  0  0  0  0  0  0  0
   -1.2886    1.6365    3.5030 H   0  0  0  0  0  0  0  0  0  0  0  0
   -1.7746   -0.0405    3.3072 H   0  0  0  0  0  0  0  0  0  0  0  0
    1.7081    1.0643    3.9219 H   0  0  0  0  0  0  0  0  0  0  0  0
    0.8344    2.1639    4.9308 H   0  0  0  0  0  0  0  0  0  0  0  0
    2.9163    1.3586    6.0142 H   0  0  0  0  0  0  0  0  0  0  0  0
    1.5103    0.9940    6.9529 H   0  0  0  0  0  0  0  0  0  0  0  0
    3.8603   -0.4363    7.7322 H   0  0  0  0  0  0  0  0  0  0  0  0
    3.1758   -2.0605    7.7294 H   0  0  0  0  0  0  0  0  0  0  0  0
    2.2067   -0.7152    8.2729 H   0  0  0  0  0  0  0  0  0  0  0  0
    3.2329   -0.8121    4.0759 H   0  0  0  0  0  0  0  0  0  0  0  0
    4.4228   -0.4478    5.2764 H   0  0  0  0  0  0  0  0  0  0  0  0
    4.7822   -2.6428    4.3750 H   0  0  0  0  0  0  0  0  0  0  0  0
    4.5100   -2.6714    6.0650 H   0  0  0  0  0  0  0  0  0  0  0  0
    3.1052   -4.1253    2.7551 H   0  0  0  0  0  0  0  0  0  0  0  0
    2.4919   -2.5662    3.0338 H   0  0  0  0  0  0  0  0  0  0  0  0
    1.4300   -3.9092    3.2837 H   0  0  0  0  0  0  0  0  0  0  0  0
    5.0803   -4.6033    6.6603 H   0  0  0  0  0  0  0  0  0  0  0  0
    4.2110   -5.9516    7.2844 H   0  0  0  0  0  0  0  0  0  0  0  0
    3.5144   -4.3708    7.4228 H   0  0  0  0  0  0  0  0  0  0  0  0
    5.8002   -6.8834    5.7982 H   0  0  0  0  0  0  0  0  0  0  0  0
    5.4554   -7.8945    4.4148 H   0  0  0  0  0  0  0  0  0  0  0  0
    4.3014   -7.7798    5.6938 H   0  0  0  0  0  0  0  0  0  0  0  0
    5.2236   -4.2821    3.2848 H   0  0  0  0  0  0  0  0  0  0  0  0
    6.1427   -4.7039    4.7157 H   0  0  0  0  0  0  0  0  0  0  0  0
    7.0368   -6.6741    3.4628 H   0  0  0  0  0  0  0  0  0  0  0  0
    7.3432   -5.1970    2.6300 H   0  0  0  0  0  0  0  0  0  0  0  0
  1  2  1  0
  1 37  1  0
  1 38  1  0
  1 39  1  0
  2 36  1  0
  2  3  1  0
  2 40  1  6
  3  4  2  0
  3 41  1  0
  4 33  1  0
  4  5  1  0
  5 11  1  0
  5  6  1  0
  5 42  1  6
  6  7  1  0
  6 43  1  0
  6 44  1  0
  7  8  1  0
  7  9  1  0
  7 45  1  6
  8 46  1  0
  8 47  1  0
  8 48  1  0
  9 10  1  0
  9 11  1  0
  9 49  1  6
 10 50  1  0
 10 51  1  0
 10 52  1  0
 11 12  1  0
 11 53  1  1
 12 31  1  0
 12 13  1  0
 12 54  1  1
 13 14  1  0
 13 55  1  0
 13 56  1  0
 14 15  2  0
 14 57  1  0
 15 29  1  0
 15 16  1  0
 16 25  1  0
 16 17  1  0
 16 58  1  1
 17 18  1  0
 17 59  1  0
 17 60  1  0
 18 19  1  6
 18 20  1  0
 18 23  1  0
 19 61  1  0
 19 62  1  0
 19 63  1  0
 20 21  2  0
 20 22  1  0
 23 24  1  0
 23 64  1  0
 23 65  1  0
 24 25  1  0
 24 66  1  0
 24 67  1  0
 25 26  1  1
 25 27  1  0
 26 68  1  0
 26 69  1  0
 26 70  1  0
 27 28  1  0
 27 71  1  0
 27 72  1  0
 28 29  1  0
 28 73  1  0
 28 74  1  0
 29 30  1  6
 29 31  1  0
 30 75  1  0
 30 76  1  0
 30 77  1  0
 31 32  1  1
 31 33  1  0
 32 78  1  0
 32 79  1  0
 32 80  1  0
 33 34  1  1
 33 35  1  0
 34 81  1  0
 34 82  1  0
 34 83  1  0
 35 36  1  0
 35 84  1  0
 35 85  1  0
 36 86  1  0
 36 87  1  0
M  CHG  1  22  -1
M  END
>  <i_m_ct_stereo_status>  (303) 
1

>  <s_m_source_file>  (303) 
/var/tmp/pbs.5076255.sched01/tmpwmgilt76/96rd2vfdyj.sdf

>  <i_m_source_file_index>  (303) 
33

>  <i_lp_mmshare_version>  (303) 
48012

>  <i_f3d_flags>  (303) 
0

>  <s_epik_input>  (303) 
W0NIM11bQ0BIXShbQ0hdPTEpW0NIMl1bQ0gyXVtDQF0yKFtDSDNdKUMxW0NAQEhdKFtDSDJdW0NAQEhdKFtDSDNdKVtDQEhdM1tDSDNdKVtDQEhdM1tDQEhdKFtDSDJdW0NIXT00KVtDQF0yKFtDSDNdKVtDQF0oW0NIM10pKFtDSDJdW0NIMl01KUM0W0NAQEhdKFtDQEBdNTZbQ0gzXSlbQ0gyXVtDQEBdKFtDSDNdKShDKD1PKVtPSF0pW0NIMl1bQ0gyXTY=

>  <s_epik_cmdline>  (303) 
J2VwaWtfcHl0aG9uJywgJy1waHQnLCAnMi4wJywgJy1waCcsICc3LjAnLCAnLXRuJywgJzgnLCAnLW1hJywgJzIwMCcsICctaW1hZScsICc8aW5maWxlLm1hZT4nLCAnLW9tYWUnLCAnPG91dGZpbGUubWFlPic=

>  <r_epik_Ionization_Penalty>  (303) 
0.00728111

>  <r_epik_Ionization_Penalty_Charging>  (303) 
0.00728111

>  <r_epik_Ionization_Penalty_Neutral>  (303) 
0

>  <r_epik_State_Penalty>  (303) 
0.00543125

>  <r_epik_Charging_Adjusted_Penalty>  (303) 
0.0127124

>  <i_epik_Tot_Q>  (303) 
-1

>  <i_epik_Tot_abs_Q>  (303) 
1

>  <s_lp_Force_Field>  (303) 
OPLS3e

>  <r_lp_Energy>  (303) 
99.5443

>  <b_lp_Chiralities_Consistent>  (303) 
1

>  <s_lp_Variant>  (303) 
79:0-1

>  <s_i_glide_gridfile>  (303) 
pfpi4k_grid

>  <i_i_glide_lignum>  (303) 
33

>  <i_i_glide_rotatable_bonds>  (303) 
1

>  <r_i_docking_score>  (303) 
-2.25278

>  <r_i_glide_ligand_efficiency>  (303) 
-0.0625772

>  <r_i_glide_ligand_efficiency_sa>  (303) 
-0.206625

>  <r_i_glide_ligand_efficiency_ln>  (303) 
-0.491496

>  <r_i_glide_gscore>  (303) 
-2.25278

>  <r_i_glide_lipo>  (303) 
-0.239967

>  <r_i_glide_hbond>  (303) 
-0.148721

>  <r_i_glide_metal>  (303) 
-0

>  <r_i_glide_rewards>  (303) 
-0.0561304

>  <r_i_glide_evdw>  (303) 
-25.0928

>  <r_i_glide_ecoul>  (303) 
-3.36444

>  <r_i_glide_erotb>  (303) 
0

>  <r_i_glide_esite>  (303) 
-0.0486547

>  <r_i_glide_emodel>  (303) 
-34.2736

>  <r_i_glide_energy>  (303) 
-28.4572

>  <r_i_glide_einternal>  (303) 
0.192955

>  <r_i_glide_intrahb_reward>  (303) 
-0

>  <i_i_glide_confnum>  (303) 
2

>  <i_i_glide_posenum>  (303) 
21

>  <r_i_glide_eff_state_penalty>  (303) 
0

>  <ligand_id>  (303) 
79

>  <original_smiles>  (303) 
CC1C=C2C3CC(C)C(C)C3C3CC=C4C5CC(C)(C(=O)O)CCC5(C)CCC4(C)C3(C)C2(C)CC1

>  <smiles>  (303) 
[H]C1=C2C3([H])C([H])([H])C(C(=O)[O-])(C([H])([H])[H])C([H])([H])C([H])([H])C3(C([H])([H])[H])C([H])([H])C([H])([H])C2(C([H])([H])[H])C2(C([H])([H])[H])C([H])(C1([H])[H])C1([H])C([H])(C3=C([H])C([H])(C([H])([H])[H])C([H])([H])C([H])([H])C32C([H])([H])[H])C([H])([H])C([H])(C([H])([H])[H])C1([H])C([H])([H])[H]

$$$$
80:0:0
     RDKit          3D

 55 61  0  0  1  0  0  0  0  0999 V2000
    4.6521   -4.2314   -0.9957 O   0  0  0  0  0  0  0  0  0  0  0  0
    5.2567   -4.4493    0.0558 C   0  0  0  0  0  0  0  0  0  0  0  0
    6.6108   -3.8386    0.2616 C   0  0  0  0  0  0  0  0  0  0  0  0
    7.7391   -4.6602    0.5166 C   0  0  0  0  0  0  0  0  0  0  0  0
    8.9889   -4.1561    0.6152 N   0  0  0  0  0  0  0  0  0  0  0  0
    9.1084   -2.8190    0.4702 C   0  0  0  0  0  0  0  0  0  0  0  0
    7.9935   -2.0003    0.2047 C   0  0  0  0  0  0  0  0  0  0  0  0
    6.7466   -2.5037    0.0842 N   0  0  0  0  0  0  0  0  0  0  0  0
    4.7989   -5.2930    1.0007 N   0  0  0  0  0  0  0  0  0  0  0  0
    3.8518   -6.4001    0.6747 C   0  0  0  0  0  0  0  0  0  0  0  0
    3.9788   -7.1470    1.9689 C   0  0  2  0  0  0  0  0  0  0  0  0
    3.1449   -8.0480    2.8996 C   0  0  2  0  0  0  0  0  0  0  0  0
    3.8529   -7.2073    4.0128 C   0  0  0  0  0  0  0  0  0  0  0  0
    3.9236   -6.0468    3.0060 C   0  0  2  0  0  0  0  0  0  0  0  0
    2.7789   -5.0375    3.0894 C   0  0  0  0  0  0  0  0  0  0  0  0
    3.4022   -3.6511    3.0866 C   0  0  0  0  0  0  0  0  0  0  0  0
    4.8454   -3.8660    3.1150 N   0  0  0  0  0  0  0  0  0  0  0  0
    5.2985   -3.8038    4.5126 C   0  0  0  0  0  0  0  0  0  0  0  0
    5.3052   -2.4030    5.0578 C   0  0  0  0  0  0  0  0  0  0  0  0
    4.9647   -1.2337    4.4130 C   0  0  0  0  0  0  0  0  0  0  0  0
    5.0543   -0.0816    5.2005 N   0  0  0  0  0  0  0  0  0  0  0  0
    5.4811   -0.3704    6.4301 C   0  0  0  0  0  0  0  0  0  0  0  0
    5.8088   -2.0805    6.6987 S   0  0  0  0  0  0  0  0  0  0  0  0
    5.0545   -5.1803    2.4845 C   0  0  2  0  0  0  0  0  0  0  0  0
    3.6602   -9.5143    2.9039 C   0  0  0  0  0  0  0  0  0  0  0  0
    4.8318   -9.8434    3.0823 O   0  0  0  0  0  0  0  0  0  0  0  0
    2.6539  -10.3741    2.7372 N   0  0  0  0  0  0  0  0  0  0  0  0
    1.4410   -9.6999    2.6627 C   0  0  0  0  0  0  0  0  0  0  0  0
    0.1692  -10.2582    2.5151 C   0  0  0  0  0  0  0  0  0  0  0  0
   -0.9398   -9.3894    2.4846 C   0  0  0  0  0  0  0  0  0  0  0  0
   -0.7534   -7.9967    2.6212 C   0  0  0  0  0  0  0  0  0  0  0  0
    0.5408   -7.4517    2.7663 C   0  0  0  0  0  0  0  0  0  0  0  0
    1.6483   -8.3266    2.7693 C   0  0  0  0  0  0  0  0  0  0  0  0
    7.6533   -5.7331    0.5954 H   0  0  0  0  0  0  0  0  0  0  0  0
   10.0963   -2.3935    0.5756 H   0  0  0  0  0  0  0  0  0  0  0  0
    8.1032   -0.9336    0.1022 H   0  0  0  0  0  0  0  0  0  0  0  0
    2.8439   -6.0433    0.4588 H   0  0  0  0  0  0  0  0  0  0  0  0
    4.1956   -6.9811   -0.1827 H   0  0  0  0  0  0  0  0  0  0  0  0
    4.9832   -7.5860    1.9612 H   0  0  0  0  0  0  0  0  0  0  0  0
    3.2342   -7.0143    4.8841 H   0  0  0  0  0  0  0  0  0  0  0  0
    4.8472   -7.5504    4.3009 H   0  0  0  0  0  0  0  0  0  0  0  0
    2.1145   -5.0822    2.2290 H   0  0  0  0  0  0  0  0  0  0  0  0
    2.1745   -5.1815    3.9878 H   0  0  0  0  0  0  0  0  0  0  0  0
    3.1436   -3.1242    2.1666 H   0  0  0  0  0  0  0  0  0  0  0  0
    3.0268   -3.0683    3.9291 H   0  0  0  0  0  0  0  0  0  0  0  0
    4.6929   -4.4489    5.1493 H   0  0  0  0  0  0  0  0  0  0  0  0
    6.2972   -4.2247    4.5749 H   0  0  0  0  0  0  0  0  0  0  0  0
    4.6173   -1.1290    3.3945 H   0  0  0  0  0  0  0  0  0  0  0  0
    5.5963    0.4169    7.1625 H   0  0  0  0  0  0  0  0  0  0  0  0
    6.0417   -5.5916    2.7208 H   0  0  0  0  0  0  0  0  0  0  0  0
    2.7468  -11.3802    2.7097 H   0  0  0  0  0  0  0  0  0  0  0  0
    0.0688  -11.3252    2.4074 H   0  0  0  0  0  0  0  0  0  0  0  0
   -1.9316   -9.7947    2.3700 H   0  0  0  0  0  0  0  0  0  0  0  0
   -1.6145   -7.3492    2.6168 H   0  0  0  0  0  0  0  0  0  0  0  0
    0.6424   -6.3917    2.8931 H   0  0  0  0  0  0  0  0  0  0  0  0
  1  2  2  0
  2  3  1  0
  2  9  1  0
  3  8  1  0
  3  4  2  0
  4  5  1  0
  4 34  1  0
  5  6  2  0
  6  7  1  0
  6 35  1  0
  7  8  2  0
  7 36  1  0
  9 24  1  0
  9 10  1  0
 10 11  1  0
 10 37  1  0
 10 38  1  0
 11 14  1  0
 11 12  1  0
 11 39  1  6
 12 33  1  0
 12 13  1  1
 12 25  1  0
 14 13  1  1
 13 40  1  0
 13 41  1  0
 14 24  1  0
 14 15  1  0
 15 16  1  0
 15 42  1  0
 15 43  1  0
 16 17  1  0
 16 44  1  0
 16 45  1  0
 17 18  1  0
 17 24  1  0
 18 19  1  0
 18 46  1  0
 18 47  1  0
 19 23  1  0
 19 20  2  0
 20 21  1  0
 20 48  1  0
 21 22  2  0
 22 23  1  0
 22 49  1  0
 24 50  1  6
 25 26  2  0
 25 27  1  0
 27 28  1  0
 27 51  1  0
 28 33  2  0
 28 29  1  0
 29 30  2  0
 29 52  1  0
 30 31  1  0
 30 53  1  0
 31 32  2  0
 31 54  1  0
 32 33  1  0
 32 55  1  0
M  END
>  <i_m_ct_stereo_status>  (304) 
1

>  <s_m_source_file>  (304) 
/var/tmp/pbs.5076255.sched01/tmpwmgilt76/96rd2vfdyj.sdf

>  <i_m_source_file_index>  (304) 
34

>  <i_lp_mmshare_version>  (304) 
48012

>  <i_f3d_flags>  (304) 
0

>  <s_epik_input>  (304) 
bjFbY0hdW2NIXW5bY0hdYzFDKD1PKU4oW0NIMl0yKVtDQEBIXShOKFtDSDJdW0NIMl0zKVtDSDJdYzRbY0hdbltjSF1zNClbQ0BdMyhbQ0gyXTUpW0NASF0yW0NAXTU2YzdjKFtOSF1DNj1PKVtjSF1bY0hdW2NIXVtjSF03

>  <s_epik_cmdline>  (304) 
J2VwaWtfcHl0aG9uJywgJy1waHQnLCAnMi4wJywgJy1waCcsICc3LjAnLCAnLXRuJywgJzgnLCAnLW1hJywgJzIwMCcsICctaW1hZScsICc8aW5maWxlLm1hZT4nLCAnLW9tYWUnLCAnPG91dGZpbGUubWFlPic=

>  <r_lp_tautomer_probability>  (304) 
1

>  <r_epik_Ionization_Penalty>  (304) 
0.00330446

>  <r_epik_Ionization_Penalty_Charging>  (304) 
0

>  <r_epik_Ionization_Penalty_Neutral>  (304) 
0.00330446

>  <r_epik_State_Penalty>  (304) 
0.00230311

>  <r_epik_Charging_Adjusted_Penalty>  (304) 
0.00230311

>  <i_epik_Tot_Q>  (304) 
0

>  <i_epik_Tot_abs_Q>  (304) 
0

>  <s_epik_Chemistry_Notes>  (304) 
This compound contains an acetal/aminal-like group ( X-CH(R)-Y where X, Y are N, S, or O) that may be acid/base labile, releasing an aldehyde.

>  <s_lp_Force_Field>  (304) 
OPLS3e

>  <r_lp_Energy>  (304) 
94.3212

>  <b_lp_Chiralities_Consistent>  (304) 
1

>  <s_lp_Variant>  (304) 
80:0-1

>  <s_i_glide_gridfile>  (304) 
pfpi4k_grid

>  <i_i_glide_lignum>  (304) 
34

>  <i_i_glide_rotatable_bonds>  (304) 
4

>  <r_i_docking_score>  (304) 
-2.63786

>  <r_i_glide_ligand_efficiency>  (304) 
-0.0799351

>  <r_i_glide_ligand_efficiency_sa>  (304) 
-0.256395

>  <r_i_glide_ligand_efficiency_ln>  (304) 
-0.586646

>  <r_i_glide_gscore>  (304) 
-2.63786

>  <r_i_glide_lipo>  (304) 
-1.01646

>  <r_i_glide_hbond>  (304) 
-0.0315666

>  <r_i_glide_metal>  (304) 
-0

>  <r_i_glide_rewards>  (304) 
-0.443704

>  <r_i_glide_evdw>  (304) 
-32.0915

>  <r_i_glide_ecoul>  (304) 
0.763872

>  <r_i_glide_erotb>  (304) 
0.382649

>  <r_i_glide_esite>  (304) 
-0.0387888

>  <r_i_glide_emodel>  (304) 
-34.6104

>  <r_i_glide_energy>  (304) 
-31.3276

>  <r_i_glide_einternal>  (304) 
4.82764

>  <r_i_glide_intrahb_reward>  (304) 
-0

>  <i_i_glide_confnum>  (304) 
5

>  <i_i_glide_posenum>  (304) 
3

>  <r_i_glide_eff_state_penalty>  (304) 
0

>  <ligand_id>  (304) 
80

>  <original_smiles>  (304) 
O=C(c1cnccn1)N1CC2C3(CC24CCN(Cc2cncs2)C14)C(=O)Nc1ccccc13

>  <smiles>  (304) 
[H]c1nc([H])c(C([H])([H])N2C([H])([H])C([H])([H])C34C2([H])N(C(=O)c2nc([H])c([H])nc2[H])C([H])([H])C3([H])C2(C(=O)N([H])c3c([H])c([H])c([H])c([H])c32)C4([H])[H])s1

$$$$
80:0:1
     RDKit          3D

 55 61  0  0  1  0  0  0  0  0999 V2000
    3.6815   -3.6960   -1.1348 O   0  0  0  0  0  0  0  0  0  0  0  0
    4.2566   -3.7233   -0.0548 C   0  0  0  0  0  0  0  0  0  0  0  0
    5.4853   -2.8832    0.1114 C   0  0  0  0  0  0  0  0  0  0  0  0
    6.5967   -3.0452   -0.7494 C   0  0  0  0  0  0  0  0  0  0  0  0
    7.7313   -2.3183   -0.5959 N   0  0  0  0  0  0  0  0  0  0  0  0
    7.7509   -1.4550    0.4298 C   0  0  0  0  0  0  0  0  0  0  0  0
    6.6193   -1.2458    1.2452 C   0  0  0  0  0  0  0  0  0  0  0  0
    5.4688   -1.8897    1.0160 N   0  0  0  0  0  0  0  0  0  0  0  0
    3.8980   -4.5830    0.9469 N   0  0  0  0  0  0  0  0  0  0  0  0
    2.9381   -5.7008    0.7037 C   0  0  0  0  0  0  0  0  0  0  0  0
    3.2381   -6.5076    1.9391 C   0  0  2  0  0  0  0  0  0  0  0  0
    2.5409   -7.4485    2.9283 C   0  0  2  0  0  0  0  0  0  0  0  0
    3.3995   -6.6766    3.9748 C   0  0  0  0  0  0  0  0  0  0  0  0
    3.3340   -5.4709    3.0253 C   0  0  2  0  0  0  0  0  0  0  0  0
    2.2147   -4.4624    3.3141 C   0  0  0  0  0  0  0  0  0  0  0  0
    2.8268   -3.0797    3.3111 C   0  0  0  0  0  0  0  0  0  0  0  0
    4.2427   -3.3514    3.1711 N   0  0  0  0  0  0  0  0  0  0  0  0
    4.9327   -3.3111    4.4516 C   0  0  0  0  0  0  0  0  0  0  0  0
    5.0223   -1.9274    5.0326 C   0  0  0  0  0  0  0  0  0  0  0  0
    5.3571   -1.6112    6.3279 C   0  0  0  0  0  0  0  0  0  0  0  0
    5.3783   -0.2379    6.5976 N   0  0  0  0  0  0  0  0  0  0  0  0
    5.0755    0.5023    5.5191 C   0  0  0  0  0  0  0  0  0  0  0  0
    4.7404   -0.4645    4.0867 S   0  0  0  0  0  0  0  0  0  0  0  0
    4.3710   -4.5804    2.3861 C   0  0  2  0  0  0  0  0  0  0  0  0
    3.0222   -8.9208    2.7946 C   0  0  0  0  0  0  0  0  0  0  0  0
    4.1988   -9.2793    2.8000 O   0  0  0  0  0  0  0  0  0  0  0  0
    2.0065   -9.7757    2.7360 N   0  0  0  0  0  0  0  0  0  0  0  0
    0.8066   -9.0819    2.8609 C   0  0  0  0  0  0  0  0  0  0  0  0
   -0.4871   -9.6181    2.8662 C   0  0  0  0  0  0  0  0  0  0  0  0
   -1.5753   -8.7356    3.0391 C   0  0  0  0  0  0  0  0  0  0  0  0
   -1.3434   -7.3568    3.2233 C   0  0  0  0  0  0  0  0  0  0  0  0
   -0.0325   -6.8286    3.2056 C   0  0  0  0  0  0  0  0  0  0  0  0
    1.0481   -7.7180    2.9969 C   0  0  0  0  0  0  0  0  0  0  0  0
    6.5824   -3.7520   -1.5604 H   0  0  0  0  0  0  0  0  0  0  0  0
    8.6370   -0.8612    0.5983 H   0  0  0  0  0  0  0  0  0  0  0  0
    6.6386   -0.5689    2.0720 H   0  0  0  0  0  0  0  0  0  0  0  0
    1.9061   -5.3652    0.6362 H   0  0  0  0  0  0  0  0  0  0  0  0
    3.1573   -6.2450   -0.2135 H   0  0  0  0  0  0  0  0  0  0  0  0
    4.2187   -6.9591    1.7849 H   0  0  0  0  0  0  0  0  0  0  0  0
    2.9086   -6.5094    4.9291 H   0  0  0  0  0  0  0  0  0  0  0  0
    4.4233   -7.0291    4.0879 H   0  0  0  0  0  0  0  0  0  0  0  0
    1.4396   -4.4586    2.5518 H   0  0  0  0  0  0  0  0  0  0  0  0
    1.7407   -4.6473    4.2750 H   0  0  0  0  0  0  0  0  0  0  0  0
    2.5042   -2.5247    2.4282 H   0  0  0  0  0  0  0  0  0  0  0  0
    2.5803   -2.5106    4.2085 H   0  0  0  0  0  0  0  0  0  0  0  0
    4.4774   -4.0045    5.1640 H   0  0  0  0  0  0  0  0  0  0  0  0
    5.9403   -3.6727    4.2850 H   0  0  0  0  0  0  0  0  0  0  0  0
    5.5836   -2.3224    7.1273 H   0  0  0  0  0  0  0  0  0  0  0  0
    5.0401    1.5914    5.5736 H   0  0  0  0  0  0  0  0  0  0  0  0
    5.3784   -4.9996    2.4443 H   0  0  0  0  0  0  0  0  0  0  0  0
    2.0682  -10.7864    2.6809 H   0  0  0  0  0  0  0  0  0  0  0  0
   -0.6063  -10.6785    2.7468 H   0  0  0  0  0  0  0  0  0  0  0  0
   -2.5785   -9.1476    3.0624 H   0  0  0  0  0  0  0  0  0  0  0  0
   -2.1830   -6.6991    3.3999 H   0  0  0  0  0  0  0  0  0  0  0  0
    0.1032   -5.7814    3.3827 H   0  0  0  0  0  0  0  0  0  0  0  0
  1  2  2  0
  2  3  1  0
  2  9  1  0
  3  8  1  0
  3  4  2  0
  4  5  1  0
  4 34  1  0
  5  6  2  0
  6  7  1  0
  6 35  1  0
  7  8  2  0
  7 36  1  0
  9 24  1  0
  9 10  1  0
 10 11  1  0
 10 37  1  0
 10 38  1  0
 11 14  1  0
 11 12  1  0
 11 39  1  6
 12 33  1  0
 12 13  1  1
 12 25  1  0
 14 13  1  1
 13 40  1  0
 13 41  1  0
 14 24  1  0
 14 15  1  0
 15 16  1  0
 15 42  1  0
 15 43  1  0
 16 17  1  0
 16 44  1  0
 16 45  1  0
 17 18  1  0
 17 24  1  0
 18 19  1  0
 18 46  1  0
 18 47  1  0
 19 23  1  0
 19 20  2  0
 20 21  1  0
 20 48  1  0
 21 22  2  0
 22 23  1  0
 22 49  1  0
 24 50  1  6
 25 26  2  0
 25 27  1  0
 27 28  1  0
 27 51  1  0
 28 33  2  0
 28 29  1  0
 29 30  2  0
 29 52  1  0
 30 31  1  0
 30 53  1  0
 31 32  2  0
 31 54  1  0
 32 33  1  0
 32 55  1  0
M  END
>  <i_m_ct_stereo_status>  (305) 
1

>  <s_m_source_file>  (305) 
/var/tmp/pbs.5076255.sched01/tmpwmgilt76/96rd2vfdyj.sdf

>  <i_m_source_file_index>  (305) 
34

>  <i_lp_mmshare_version>  (305) 
48012

>  <i_f3d_flags>  (305) 
0

>  <s_epik_input>  (305) 
bjFbY0hdW2NIXW5bY0hdYzFDKD1PKU4oW0NIMl0yKVtDQEBIXShOKFtDSDJdW0NIMl0zKVtDSDJdYzRbY0hdbltjSF1zNClbQ0BdMyhbQ0gyXTUpW0NASF0yW0NAXTU2YzdjKFtOSF1DNj1PKVtjSF1bY0hdW2NIXVtjSF03

>  <s_epik_cmdline>  (305) 
J2VwaWtfcHl0aG9uJywgJy1waHQnLCAnMi4wJywgJy1waCcsICc3LjAnLCAnLXRuJywgJzgnLCAnLW1hJywgJzIwMCcsICctaW1hZScsICc8aW5maWxlLm1hZT4nLCAnLW9tYWUnLCAnPG91dGZpbGUubWFlPic=

>  <r_lp_tautomer_probability>  (305) 
1

>  <r_epik_Ionization_Penalty>  (305) 
0.00330446

>  <r_epik_Ionization_Penalty_Charging>  (305) 
0

>  <r_epik_Ionization_Penalty_Neutral>  (305) 
0.00330446

>  <r_epik_State_Penalty>  (305) 
0.00230311

>  <r_epik_Charging_Adjusted_Penalty>  (305) 
0.00230311

>  <i_epik_Tot_Q>  (305) 
0

>  <i_epik_Tot_abs_Q>  (305) 
0

>  <s_epik_Chemistry_Notes>  (305) 
This compound contains an acetal/aminal-like group ( X-CH(R)-Y where X, Y are N, S, or O) that may be acid/base labile, releasing an aldehyde.

>  <s_lp_Force_Field>  (305) 
OPLS3e

>  <r_lp_Energy>  (305) 
94.3212

>  <b_lp_Chiralities_Consistent>  (305) 
1

>  <s_lp_Variant>  (305) 
80:0-1

>  <s_i_glide_gridfile>  (305) 
pfpi4k_grid

>  <i_i_glide_lignum>  (305) 
34

>  <i_i_glide_rotatable_bonds>  (305) 
4

>  <r_i_docking_score>  (305) 
-2.15095

>  <r_i_glide_ligand_efficiency>  (305) 
-0.0651804

>  <r_i_glide_ligand_efficiency_sa>  (305) 
-0.209068

>  <r_i_glide_ligand_efficiency_ln>  (305) 
-0.478361

>  <r_i_glide_gscore>  (305) 
-2.15095

>  <r_i_glide_lipo>  (305) 
-0.352331

>  <r_i_glide_hbond>  (305) 
-0.16

>  <r_i_glide_metal>  (305) 
-0

>  <r_i_glide_rewards>  (305) 
-0.33143

>  <r_i_glide_evdw>  (305) 
-32.2659

>  <r_i_glide_ecoul>  (305) 
-0.43277

>  <r_i_glide_erotb>  (305) 
0.382649

>  <r_i_glide_esite>  (305) 
-0.0116319

>  <r_i_glide_emodel>  (305) 
-34.3541

>  <r_i_glide_energy>  (305) 
-32.6987

>  <r_i_glide_einternal>  (305) 
4.64858

>  <r_i_glide_intrahb_reward>  (305) 
-0

>  <i_i_glide_confnum>  (305) 
4

>  <i_i_glide_posenum>  (305) 
5

>  <r_i_glide_eff_state_penalty>  (305) 
0

>  <ligand_id>  (305) 
80

>  <original_smiles>  (305) 
O=C(c1cnccn1)N1CC2C3(CC24CCN(Cc2cncs2)C14)C(=O)Nc1ccccc13

>  <smiles>  (305) 
[H]c1nc([H])c(C([H])([H])N2C([H])([H])C([H])([H])C34C2([H])N(C(=O)c2nc([H])c([H])nc2[H])C([H])([H])C3([H])C2(C(=O)N([H])c3c([H])c([H])c([H])c([H])c32)C4([H])[H])s1

$$$$
80:0:2
     RDKit          3D

 55 61  0  0  1  0  0  0  0  0999 V2000
    1.0553   -3.9908   -1.5068 O   0  0  0  0  0  0  0  0  0  0  0  0
    2.1932   -3.8264   -1.0665 C   0  0  0  0  0  0  0  0  0  0  0  0
    3.0092   -2.6949   -1.5742 C   0  0  0  0  0  0  0  0  0  0  0  0
    3.0430   -2.2959   -2.9275 C   0  0  0  0  0  0  0  0  0  0  0  0
    3.8184   -1.2887   -3.3746 N   0  0  0  0  0  0  0  0  0  0  0  0
    4.4818   -0.5796   -2.4330 C   0  0  0  0  0  0  0  0  0  0  0  0
    4.2879   -0.8070   -1.0529 C   0  0  0  0  0  0  0  0  0  0  0  0
    3.5945   -1.8824   -0.6737 N   0  0  0  0  0  0  0  0  0  0  0  0
    2.6506   -4.6497   -0.0951 N   0  0  0  0  0  0  0  0  0  0  0  0
    1.8810   -5.8434    0.3841 C   0  0  0  0  0  0  0  0  0  0  0  0
    3.0055   -6.5837    1.0367 C   0  0  2  0  0  0  0  0  0  0  0  0
    3.2800   -7.4925    2.2504 C   0  0  2  0  0  0  0  0  0  0  0  0
    4.5386   -6.5831    2.4305 C   0  0  0  0  0  0  0  0  0  0  0  0
    3.7041   -5.4768    1.7915 C   0  0  2  0  0  0  0  0  0  0  0  0
    2.9859   -4.5288    2.7788 C   0  0  0  0  0  0  0  0  0  0  0  0
    3.3399   -3.1070    2.3824 C   0  0  0  0  0  0  0  0  0  0  0  0
    4.3258   -3.3411    1.3483 N   0  0  0  0  0  0  0  0  0  0  0  0
    5.7200   -3.1106    1.7055 C   0  0  0  0  0  0  0  0  0  0  0  0
    6.7198   -3.1597    0.5656 C   0  0  0  0  0  0  0  0  0  0  0  0
    6.7873   -2.4556   -0.6082 C   0  0  0  0  0  0  0  0  0  0  0  0
    7.7907   -2.6577   -1.4895 N   0  0  0  0  0  0  0  0  0  0  0  0
    8.6143   -3.5385   -0.9746 C   0  0  0  0  0  0  0  0  0  0  0  0
    8.1353   -4.1940    0.5978 S   0  0  0  0  0  0  0  0  0  0  0  0
    3.9775   -4.5633    0.6418 C   0  0  2  0  0  0  0  0  0  0  0  0
    3.6943   -8.9179    1.8111 C   0  0  0  0  0  0  0  0  0  0  0  0
    4.5872   -9.1466    0.9925 O   0  0  0  0  0  0  0  0  0  0  0  0
    2.9828   -9.8403    2.4624 N   0  0  0  0  0  0  0  0  0  0  0  0
    2.1182   -9.2403    3.3782 C   0  0  0  0  0  0  0  0  0  0  0  0
    1.2328   -9.8836    4.2591 C   0  0  0  0  0  0  0  0  0  0  0  0
    0.4744   -9.0817    5.1392 C   0  0  0  0  0  0  0  0  0  0  0  0
    0.6223   -7.6771    5.1285 C   0  0  0  0  0  0  0  0  0  0  0  0
    1.5186   -7.0530    4.2302 C   0  0  0  0  0  0  0  0  0  0  0  0
    2.2600   -7.8588    3.3306 C   0  0  0  0  0  0  0  0  0  0  0  0
    2.4024   -2.8064   -3.6568 H   0  0  0  0  0  0  0  0  0  0  0  0
    5.2144    0.1473   -2.7088 H   0  0  0  0  0  0  0  0  0  0  0  0
    4.9563   -0.4119   -0.3095 H   0  0  0  0  0  0  0  0  0  0  0  0
    1.0947   -5.5657    1.0785 H   0  0  0  0  0  0  0  0  0  0  0  0
    1.4156   -6.4075   -0.4239 H   0  0  0  0  0  0  0  0  0  0  0  0
    3.6149   -6.9697    0.2042 H   0  0  0  0  0  0  0  0  0  0  0  0
    4.8299   -6.3870    3.4619 H   0  0  0  0  0  0  0  0  0  0  0  0
    5.4167   -6.8367    1.8272 H   0  0  0  0  0  0  0  0  0  0  0  0
    1.8997   -4.6096    2.7727 H   0  0  0  0  0  0  0  0  0  0  0  0
    3.3211   -4.6849    3.8023 H   0  0  0  0  0  0  0  0  0  0  0  0
    2.4675   -2.5811    1.9712 H   0  0  0  0  0  0  0  0  0  0  0  0
    3.7421   -2.5009    3.1893 H   0  0  0  0  0  0  0  0  0  0  0  0
    5.7701   -2.1223    2.1794 H   0  0  0  0  0  0  0  0  0  0  0  0
    5.9541   -3.8576    2.4634 H   0  0  0  0  0  0  0  0  0  0  0  0
    6.2298   -1.7105   -1.0266 H   0  0  0  0  0  0  0  0  0  0  0  0
    9.4345   -3.8029   -1.5713 H   0  0  0  0  0  0  0  0  0  0  0  0
    4.7896   -4.9083   -0.0095 H   0  0  0  0  0  0  0  0  0  0  0  0
    3.0712  -10.8402    2.3482 H   0  0  0  0  0  0  0  0  0  0  0  0
    1.1322  -10.9563    4.2761 H   0  0  0  0  0  0  0  0  0  0  0  0
   -0.2138   -9.5503    5.8281 H   0  0  0  0  0  0  0  0  0  0  0  0
    0.0465   -7.0774    5.8175 H   0  0  0  0  0  0  0  0  0  0  0  0
    1.5977   -5.9887    4.2864 H   0  0  0  0  0  0  0  0  0  0  0  0
  1  2  2  0
  2  3  1  0
  2  9  1  0
  3  8  1  0
  3  4  2  0
  4  5  1  0
  4 34  1  0
  5  6  2  0
  6  7  1  0
  6 35  1  0
  7  8  2  0
  7 36  1  0
  9 24  1  0
  9 10  1  0
 10 11  1  0
 10 37  1  0
 10 38  1  0
 11 14  1  0
 11 12  1  0
 11 39  1  6
 12 33  1  0
 12 13  1  1
 12 25  1  0
 14 13  1  1
 13 40  1  0
 13 41  1  0
 14 24  1  0
 14 15  1  0
 15 16  1  0
 15 42  1  0
 15 43  1  0
 16 17  1  0
 16 44  1  0
 16 45  1  0
 17 18  1  0
 17 24  1  0
 18 19  1  0
 18 46  1  0
 18 47  1  0
 19 23  1  0
 19 20  2  0
 20 21  1  0
 20 48  1  0
 21 22  2  0
 22 23  1  0
 22 49  1  0
 24 50  1  6
 25 26  2  0
 25 27  1  0
 27 28  1  0
 27 51  1  0
 28 33  2  0
 28 29  1  0
 29 30  2  0
 29 52  1  0
 30 31  1  0
 30 53  1  0
 31 32  2  0
 31 54  1  0
 32 33  1  0
 32 55  1  0
M  END
>  <i_m_ct_stereo_status>  (306) 
1

>  <s_m_source_file>  (306) 
/var/tmp/pbs.5076255.sched01/tmpwmgilt76/96rd2vfdyj.sdf

>  <i_m_source_file_index>  (306) 
34

>  <i_lp_mmshare_version>  (306) 
48012

>  <i_f3d_flags>  (306) 
0

>  <s_epik_input>  (306) 
bjFbY0hdW2NIXW5bY0hdYzFDKD1PKU4oW0NIMl0yKVtDQEBIXShOKFtDSDJdW0NIMl0zKVtDSDJdYzRbY0hdbltjSF1zNClbQ0BdMyhbQ0gyXTUpW0NASF0yW0NAXTU2YzdjKFtOSF1DNj1PKVtjSF1bY0hdW2NIXVtjSF03

>  <s_epik_cmdline>  (306) 
J2VwaWtfcHl0aG9uJywgJy1waHQnLCAnMi4wJywgJy1waCcsICc3LjAnLCAnLXRuJywgJzgnLCAnLW1hJywgJzIwMCcsICctaW1hZScsICc8aW5maWxlLm1hZT4nLCAnLW9tYWUnLCAnPG91dGZpbGUubWFlPic=

>  <r_lp_tautomer_probability>  (306) 
1

>  <r_epik_Ionization_Penalty>  (306) 
0.00330446

>  <r_epik_Ionization_Penalty_Charging>  (306) 
0

>  <r_epik_Ionization_Penalty_Neutral>  (306) 
0.00330446

>  <r_epik_State_Penalty>  (306) 
0.00230311

>  <r_epik_Charging_Adjusted_Penalty>  (306) 
0.00230311

>  <i_epik_Tot_Q>  (306) 
0

>  <i_epik_Tot_abs_Q>  (306) 
0

>  <s_epik_Chemistry_Notes>  (306) 
This compound contains an acetal/aminal-like group ( X-CH(R)-Y where X, Y are N, S, or O) that may be acid/base labile, releasing an aldehyde.

>  <s_lp_Force_Field>  (306) 
OPLS3e

>  <r_lp_Energy>  (306) 
94.3212

>  <b_lp_Chiralities_Consistent>  (306) 
1

>  <s_lp_Variant>  (306) 
80:0-1

>  <s_i_glide_gridfile>  (306) 
pfpi4k_grid

>  <i_i_glide_lignum>  (306) 
34

>  <i_i_glide_rotatable_bonds>  (306) 
4

>  <r_i_docking_score>  (306) 
-1.76264

>  <r_i_glide_ligand_efficiency>  (306) 
-0.0534135

>  <r_i_glide_ligand_efficiency_sa>  (306) 
-0.171326

>  <r_i_glide_ligand_efficiency_ln>  (306) 
-0.392003

>  <r_i_glide_gscore>  (306) 
-1.76264

>  <r_i_glide_lipo>  (306) 
-0.35863

>  <r_i_glide_hbond>  (306) 
-0.177416

>  <r_i_glide_metal>  (306) 
-0

>  <r_i_glide_rewards>  (306) 
-0.309439

>  <r_i_glide_evdw>  (306) 
-34.6693

>  <r_i_glide_ecoul>  (306) 
-2.19585

>  <r_i_glide_erotb>  (306) 
0.382649

>  <r_i_glide_esite>  (306) 
-0.157875

>  <r_i_glide_emodel>  (306) 
-34.0939

>  <r_i_glide_energy>  (306) 
-36.8652

>  <r_i_glide_einternal>  (306) 
2.97153

>  <r_i_glide_intrahb_reward>  (306) 
-0

>  <i_i_glide_confnum>  (306) 
3

>  <i_i_glide_posenum>  (306) 
14

>  <r_i_glide_eff_state_penalty>  (306) 
0

>  <ligand_id>  (306) 
80

>  <original_smiles>  (306) 
O=C(c1cnccn1)N1CC2C3(CC24CCN(Cc2cncs2)C14)C(=O)Nc1ccccc13

>  <smiles>  (306) 
[H]c1nc([H])c(C([H])([H])N2C([H])([H])C([H])([H])C34C2([H])N(C(=O)c2nc([H])c([H])nc2[H])C([H])([H])C3([H])C2(C(=O)N([H])c3c([H])c([H])c([H])c([H])c32)C4([H])[H])s1

$$$$
81:0:0
     RDKit          3D

 29 31  0  0  1  0  0  0  0  0999 V2000
    2.1980   -3.0129   -2.4157 N   0  0  0  0  0  0  0  0  0  0  0  0
    3.5881   -3.3775   -2.0695 C   0  0  2  0  0  0  0  0  0  0  0  0
    3.7016   -3.8492   -0.5946 C   0  0  1  0  0  0  0  0  0  0  0  0
    5.1467   -4.3316   -0.3266 C   0  0  0  0  0  0  0  0  0  0  0  0
    6.1296   -3.1657   -0.5745 C   0  0  2  0  0  0  0  0  0  0  0  0
    5.7951   -1.9961    0.3727 C   0  0  0  0  0  0  0  0  0  0  0  0
    4.3548   -1.5172    0.1021 C   0  0  2  0  0  0  0  0  0  0  0  0
    3.3781   -2.6809    0.3691 C   0  0  0  0  0  0  0  0  0  0  0  0
    4.2395   -1.0551   -1.3652 C   0  0  0  0  0  0  0  0  0  0  0  0
    4.5719   -2.2167   -2.3153 C   0  0  1  0  0  0  0  0  0  0  0  0
    6.0136   -2.6987   -2.0400 C   0  0  0  0  0  0  0  0  0  0  0  0
    1.8768   -2.2458   -1.8232 H   0  0  0  0  0  0  0  0  0  0  0  0
    1.5848   -3.8059   -2.2818 H   0  0  0  0  0  0  0  0  0  0  0  0
    3.8777   -4.1924   -2.7398 H   0  0  0  0  0  0  0  0  0  0  0  0
    3.0146   -4.6775   -0.4144 H   0  0  0  0  0  0  0  0  0  0  0  0
    5.2401   -4.6975    0.6954 H   0  0  0  0  0  0  0  0  0  0  0  0
    5.3845   -5.1771   -0.9796 H   0  0  0  0  0  0  0  0  0  0  0  0
    7.1521   -3.4974   -0.3876 H   0  0  0  0  0  0  0  0  0  0  0  0
    5.8943   -2.3129    1.4117 H   0  0  0  0  0  0  0  0  0  0  0  0
    6.5002   -1.1768    0.2285 H   0  0  0  0  0  0  0  0  0  0  0  0
    4.1157   -0.6841    0.7641 H   0  0  0  0  0  0  0  0  0  0  0  0
    2.3475   -2.3433    0.2509 H   0  0  0  0  0  0  0  0  0  0  0  0
    3.4633   -3.0144    1.4043 H   0  0  0  0  0  0  0  0  0  0  0  0
    3.2440   -0.6558   -1.5599 H   0  0  0  0  0  0  0  0  0  0  0  0
    4.9373   -0.2458   -1.5513 H   0  0  0  0  0  0  0  0  0  0  0  0
    4.4998   -1.8817   -3.3504 H   0  0  0  0  0  0  0  0  0  0  0  0
    6.7202   -1.8945   -2.2233 H   0  0  0  0  0  0  0  0  0  0  0  0
    6.2834   -3.5105   -2.7211 H   0  0  0  0  0  0  0  0  0  0  0  0
    2.1285   -2.7222   -3.3788 H   0  0  0  0  0  0  0  0  0  0  0  0
  1  2  1  0
  1 12  1  0
  1 13  1  0
  1 29  1  0
  2 10  1  0
  2  3  1  0
  2 14  1  6
  3  8  1  0
  3  4  1  0
  3 15  1  6
  4  5  1  0
  4 16  1  0
  4 17  1  0
  5 11  1  0
  5  6  1  0
  5 18  1  1
  6  7  1  0
  6 19  1  0
  6 20  1  0
  7  8  1  0
  7  9  1  0
  7 21  1  1
  8 22  1  0
  8 23  1  0
  9 10  1  0
  9 24  1  0
  9 25  1  0
 10 11  1  0
 10 26  1  6
 11 27  1  0
 11 28  1  0
M  CHG  1   1   1
M  END
>  <i_m_ct_stereo_status>  (307) 
1

>  <s_m_source_file>  (307) 
/var/tmp/pbs.5076255.sched01/tmpwmgilt76/96rd2vfdyj.sdf

>  <i_m_source_file_index>  (307) 
35

>  <i_lp_mmshare_version>  (307) 
48012

>  <i_f3d_flags>  (307) 
0

>  <s_epik_input>  (307) 
W05IMl1bQ0BIXShbQ0BASF0xMilbQ0BIXTNbQ0gyXVtDQEBIXShbQ0gyXTIpW0NIMl1bQ0BASF0oW0NIMl0xKVtDSDJdMw==

>  <s_epik_cmdline>  (307) 
J2VwaWtfcHl0aG9uJywgJy1waHQnLCAnMi4wJywgJy1waCcsICc3LjAnLCAnLXRuJywgJzgnLCAnLW1hJywgJzIwMCcsICctaW1hZScsICc8aW5maWxlLm1hZT4nLCAnLW9tYWUnLCAnPG91dGZpbGUubWFlPic=

>  <r_lp_tautomer_probability>  (307) 
1

>  <r_epik_Ionization_Penalty>  (307) 
0.000164672

>  <r_epik_Ionization_Penalty_Charging>  (307) 
0.000164672

>  <r_epik_Ionization_Penalty_Neutral>  (307) 
0

>  <r_epik_State_Penalty>  (307) 
-0

>  <r_epik_Charging_Adjusted_Penalty>  (307) 
0.000164672

>  <i_epik_Tot_Q>  (307) 
1

>  <i_epik_Tot_abs_Q>  (307) 
1

>  <s_lp_Force_Field>  (307) 
OPLS3e

>  <r_lp_Energy>  (307) 
6.10956

>  <b_lp_Chiralities_Consistent>  (307) 
1

>  <s_lp_Variant>  (307) 
81:0-1

>  <s_i_glide_gridfile>  (307) 
pfpi4k_grid

>  <i_i_glide_lignum>  (307) 
35

>  <i_i_glide_rotatable_bonds>  (307) 
0

>  <r_i_docking_score>  (307) 
-4.34857

>  <r_i_glide_ligand_efficiency>  (307) 
-0.395325

>  <r_i_glide_ligand_efficiency_sa>  (307) 
-0.879194

>  <r_i_glide_ligand_efficiency_ln>  (307) 
-1.27978

>  <r_i_glide_gscore>  (307) 
-4.34857

>  <r_i_glide_lipo>  (307) 
-0.248137

>  <r_i_glide_hbond>  (307) 
-0.2

>  <r_i_glide_metal>  (307) 
-0

>  <r_i_glide_rewards>  (307) 
-2.25

>  <r_i_glide_evdw>  (307) 
-14.1397

>  <r_i_glide_ecoul>  (307) 
-6.28968

>  <r_i_glide_erotb>  (307) 
0

>  <r_i_glide_esite>  (307) 
0

>  <r_i_glide_emodel>  (307) 
-27.6883

>  <r_i_glide_energy>  (307) 
-20.4293

>  <r_i_glide_einternal>  (307) 
0

>  <r_i_glide_intrahb_reward>  (307) 
-0

>  <i_i_glide_confnum>  (307) 
2

>  <i_i_glide_posenum>  (307) 
28

>  <r_i_glide_eff_state_penalty>  (307) 
0

>  <ligand_id>  (307) 
81

>  <original_smiles>  (307) 
NC1C2CC3CC(C2)CC1C3

>  <smiles>  (307) 
[H]C1([H])C2([H])C([H])([H])C3([H])C([H])([H])C1([H])C([H])([H])C([H])(C2([H])[H])C3([H])[N+]([H])([H])[H]

$$$$
81:0:1
     RDKit          3D

 29 31  0  0  1  0  0  0  0  0999 V2000
    4.2170   -5.4198   -0.1986 N   0  0  0  0  0  0  0  0  0  0  0  0
    4.5815   -4.0408    0.1846 C   0  0  2  0  0  0  0  0  0  0  0  0
    3.4018   -3.0580   -0.0224 C   0  0  1  0  0  0  0  0  0  0  0  0
    3.8055   -1.6579    0.4976 C   0  0  0  0  0  0  0  0  0  0  0  0
    5.0322   -1.1537   -0.2890 C   0  0  2  0  0  0  0  0  0  0  0  0
    4.6777   -1.0645   -1.7881 C   0  0  0  0  0  0  0  0  0  0  0  0
    4.2894   -2.4623   -2.3110 C   0  0  2  0  0  0  0  0  0  0  0  0
    3.0534   -2.9522   -1.5291 C   0  0  0  0  0  0  0  0  0  0  0  0
    5.4696   -3.4361   -2.1113 C   0  0  0  0  0  0  0  0  0  0  0  0
    5.8124   -3.5316   -0.6048 C   0  0  1  0  0  0  0  0  0  0  0  0
    6.2133   -2.1313   -0.0856 C   0  0  0  0  0  0  0  0  0  0  0  0
    3.9609   -5.4512   -1.1842 H   0  0  0  0  0  0  0  0  0  0  0  0
    3.4313   -5.7369    0.3536 H   0  0  0  0  0  0  0  0  0  0  0  0
    4.8334   -4.0664    1.2493 H   0  0  0  0  0  0  0  0  0  0  0  0
    2.5287   -3.3960    0.5337 H   0  0  0  0  0  0  0  0  0  0  0  0
    2.9755   -0.9581    0.3856 H   0  0  0  0  0  0  0  0  0  0  0  0
    4.0294   -1.6916    1.5669 H   0  0  0  0  0  0  0  0  0  0  0  0
    5.3159   -0.1647    0.0778 H   0  0  0  0  0  0  0  0  0  0  0  0
    3.8517   -0.3735   -1.9455 H   0  0  0  0  0  0  0  0  0  0  0  0
    5.5287   -0.6674   -2.3378 H   0  0  0  0  0  0  0  0  0  0  0  0
    4.0463   -2.4006   -3.3722 H   0  0  0  0  0  0  0  0  0  0  0  0
    2.7045   -3.9038   -1.9270 H   0  0  0  0  0  0  0  0  0  0  0  0
    2.2276   -2.2585   -1.6854 H   0  0  0  0  0  0  0  0  0  0  0  0
    5.2253   -4.4137   -2.5279 H   0  0  0  0  0  0  0  0  0  0  0  0
    6.3382   -3.0842   -2.6691 H   0  0  0  0  0  0  0  0  0  0  0  0
    6.6550   -4.2091   -0.4547 H   0  0  0  0  0  0  0  0  0  0  0  0
    7.0963   -1.7803   -0.6200 H   0  0  0  0  0  0  0  0  0  0  0  0
    6.4874   -2.1734    0.9716 H   0  0  0  0  0  0  0  0  0  0  0  0
    4.9970   -6.0414   -0.0424 H   0  0  0  0  0  0  0  0  0  0  0  0
  1  2  1  0
  1 12  1  0
  1 13  1  0
  1 29  1  0
  2 10  1  0
  2  3  1  0
  2 14  1  1
  3  8  1  0
  3  4  1  0
  3 15  1  1
  4  5  1  0
  4 16  1  0
  4 17  1  0
  5 11  1  0
  5  6  1  0
  5 18  1  1
  6  7  1  0
  6 19  1  0
  6 20  1  0
  7  8  1  0
  7  9  1  0
  7 21  1  6
  8 22  1  0
  8 23  1  0
  9 10  1  0
  9 24  1  0
  9 25  1  0
 10 11  1  0
 10 26  1  6
 11 27  1  0
 11 28  1  0
M  CHG  1   1   1
M  END
>  <i_m_ct_stereo_status>  (308) 
1

>  <s_m_source_file>  (308) 
/var/tmp/pbs.5076255.sched01/tmpwmgilt76/96rd2vfdyj.sdf

>  <i_m_source_file_index>  (308) 
35

>  <i_lp_mmshare_version>  (308) 
48012

>  <i_f3d_flags>  (308) 
0

>  <s_epik_input>  (308) 
W05IMl1bQ0BIXShbQ0BASF0xMilbQ0BIXTNbQ0gyXVtDQEBIXShbQ0gyXTIpW0NIMl1bQ0BASF0oW0NIMl0xKVtDSDJdMw==

>  <s_epik_cmdline>  (308) 
J2VwaWtfcHl0aG9uJywgJy1waHQnLCAnMi4wJywgJy1waCcsICc3LjAnLCAnLXRuJywgJzgnLCAnLW1hJywgJzIwMCcsICctaW1hZScsICc8aW5maWxlLm1hZT4nLCAnLW9tYWUnLCAnPG91dGZpbGUubWFlPic=

>  <r_lp_tautomer_probability>  (308) 
1

>  <r_epik_Ionization_Penalty>  (308) 
0.000164672

>  <r_epik_Ionization_Penalty_Charging>  (308) 
0.000164672

>  <r_epik_Ionization_Penalty_Neutral>  (308) 
0

>  <r_epik_State_Penalty>  (308) 
-0

>  <r_epik_Charging_Adjusted_Penalty>  (308) 
0.000164672

>  <i_epik_Tot_Q>  (308) 
1

>  <i_epik_Tot_abs_Q>  (308) 
1

>  <s_lp_Force_Field>  (308) 
OPLS3e

>  <r_lp_Energy>  (308) 
6.10956

>  <b_lp_Chiralities_Consistent>  (308) 
1

>  <s_lp_Variant>  (308) 
81:0-1

>  <s_i_glide_gridfile>  (308) 
pfpi4k_grid

>  <i_i_glide_lignum>  (308) 
35

>  <i_i_glide_rotatable_bonds>  (308) 
0

>  <r_i_docking_score>  (308) 
-4.05147

>  <r_i_glide_ligand_efficiency>  (308) 
-0.368315

>  <r_i_glide_ligand_efficiency_sa>  (308) 
-0.819126

>  <r_i_glide_ligand_efficiency_ln>  (308) 
-1.19235

>  <r_i_glide_gscore>  (308) 
-4.05147

>  <r_i_glide_lipo>  (308) 
-0.316209

>  <r_i_glide_hbond>  (308) 
0

>  <r_i_glide_metal>  (308) 
-0

>  <r_i_glide_rewards>  (308) 
-2.25

>  <r_i_glide_evdw>  (308) 
-15.3827

>  <r_i_glide_ecoul>  (308) 
-4.58863

>  <r_i_glide_erotb>  (308) 
0

>  <r_i_glide_esite>  (308) 
-0.0278317

>  <r_i_glide_emodel>  (308) 
-26.7354

>  <r_i_glide_energy>  (308) 
-19.9713

>  <r_i_glide_einternal>  (308) 
0

>  <r_i_glide_intrahb_reward>  (308) 
-0

>  <i_i_glide_confnum>  (308) 
1

>  <i_i_glide_posenum>  (308) 
9

>  <r_i_glide_eff_state_penalty>  (308) 
0

>  <ligand_id>  (308) 
81

>  <original_smiles>  (308) 
NC1C2CC3CC(C2)CC1C3

>  <smiles>  (308) 
[H]C1([H])C2([H])C([H])([H])C3([H])C([H])([H])C1([H])C([H])([H])C([H])(C2([H])[H])C3([H])[N+]([H])([H])[H]

$$$$
81:0:2
     RDKit          3D

 29 31  0  0  1  0  0  0  0  0999 V2000
    3.0405   -0.3066   -3.3329 N   0  0  0  0  0  0  0  0  0  0  0  0
    4.1458   -1.2721   -3.1276 C   0  0  2  0  0  0  0  0  0  0  0  0
    3.6610   -2.7274   -3.3052 C   0  0  1  0  0  0  0  0  0  0  0  0
    4.8830   -3.6702   -3.1627 C   0  0  0  0  0  0  0  0  0  0  0  0
    5.4777   -3.5305   -1.7444 C   0  0  2  0  0  0  0  0  0  0  0  0
    4.4265   -3.8656   -0.6745 C   0  0  0  0  0  0  0  0  0  0  0  0
    3.2445   -2.8977   -0.8099 C   0  0  2  0  0  0  0  0  0  0  0  0
    2.6139   -3.0541   -2.2144 C   0  0  0  0  0  0  0  0  0  0  0  0
    3.7730   -1.4551   -0.6133 C   0  0  0  0  0  0  0  0  0  0  0  0
    4.7924   -1.1266   -1.7201 C   0  0  1  0  0  0  0  0  0  0  0  0
    5.9809   -2.0943   -1.5602 C   0  0  0  0  0  0  0  0  0  0  0  0
    2.3370   -0.4961   -2.6269 H   0  0  0  0  0  0  0  0  0  0  0  0
    2.6215   -0.4260   -4.2454 H   0  0  0  0  0  0  0  0  0  0  0  0
    4.8982   -1.0654   -3.8880 H   0  0  0  0  0  0  0  0  0  0  0  0
    3.2150   -2.8655   -4.2901 H   0  0  0  0  0  0  0  0  0  0  0  0
    4.6200   -4.7136   -3.3427 H   0  0  0  0  0  0  0  0  0  0  0  0
    5.6404   -3.4353   -3.9134 H   0  0  0  0  0  0  0  0  0  0  0  0
    6.3036   -4.2195   -1.6100 H   0  0  0  0  0  0  0  0  0  0  0  0
    4.0951   -4.8988   -0.7782 H   0  0  0  0  0  0  0  0  0  0  0  0
    4.8718   -3.7846    0.3172 H   0  0  0  0  0  0  0  0  0  0  0  0
    2.4988   -3.1186   -0.0432 H   0  0  0  0  0  0  0  0  0  0  0  0
    1.7462   -2.4083   -2.3187 H   0  0  0  0  0  0  0  0  0  0  0  0
    2.2145   -4.0594   -2.3429 H   0  0  0  0  0  0  0  0  0  0  0  0
    2.9632   -0.7326   -0.6354 H   0  0  0  0  0  0  0  0  0  0  0  0
    4.2240   -1.3519    0.3759 H   0  0  0  0  0  0  0  0  0  0  0  0
    5.1514   -0.1098   -1.5922 H   0  0  0  0  0  0  0  0  0  0  0  0
    6.4392   -1.9759   -0.5775 H   0  0  0  0  0  0  0  0  0  0  0  0
    6.7535   -1.8874   -2.2988 H   0  0  0  0  0  0  0  0  0  0  0  0
    3.3322    0.6558   -3.2256 H   0  0  0  0  0  0  0  0  0  0  0  0
  1  2  1  0
  1 12  1  0
  1 13  1  0
  1 29  1  0
  2 10  1  0
  2  3  1  0
  2 14  1  6
  3  8  1  0
  3  4  1  0
  3 15  1  6
  4  5  1  0
  4 16  1  0
  4 17  1  0
  5 11  1  0
  5  6  1  0
  5 18  1  6
  6  7  1  0
  6 19  1  0
  6 20  1  0
  7  8  1  0
  7  9  1  0
  7 21  1  1
  8 22  1  0
  8 23  1  0
  9 10  1  0
  9 24  1  0
  9 25  1  0
 10 11  1  0
 10 26  1  1
 11 27  1  0
 11 28  1  0
M  CHG  1   1   1
M  END
>  <i_m_ct_stereo_status>  (309) 
1

>  <s_m_source_file>  (309) 
/var/tmp/pbs.5076255.sched01/tmpwmgilt76/96rd2vfdyj.sdf

>  <i_m_source_file_index>  (309) 
35

>  <i_lp_mmshare_version>  (309) 
48012

>  <i_f3d_flags>  (309) 
0

>  <s_epik_input>  (309) 
W05IMl1bQ0BIXShbQ0BASF0xMilbQ0BIXTNbQ0gyXVtDQEBIXShbQ0gyXTIpW0NIMl1bQ0BASF0oW0NIMl0xKVtDSDJdMw==

>  <s_epik_cmdline>  (309) 
J2VwaWtfcHl0aG9uJywgJy1waHQnLCAnMi4wJywgJy1waCcsICc3LjAnLCAnLXRuJywgJzgnLCAnLW1hJywgJzIwMCcsICctaW1hZScsICc8aW5maWxlLm1hZT4nLCAnLW9tYWUnLCAnPG91dGZpbGUubWFlPic=

>  <r_lp_tautomer_probability>  (309) 
1

>  <r_epik_Ionization_Penalty>  (309) 
0.000164672

>  <r_epik_Ionization_Penalty_Charging>  (309) 
0.000164672

>  <r_epik_Ionization_Penalty_Neutral>  (309) 
0

>  <r_epik_State_Penalty>  (309) 
-0

>  <r_epik_Charging_Adjusted_Penalty>  (309) 
0.000164672

>  <i_epik_Tot_Q>  (309) 
1

>  <i_epik_Tot_abs_Q>  (309) 
1

>  <s_lp_Force_Field>  (309) 
OPLS3e

>  <r_lp_Energy>  (309) 
6.10956

>  <b_lp_Chiralities_Consistent>  (309) 
1

>  <s_lp_Variant>  (309) 
81:0-1

>  <s_i_glide_gridfile>  (309) 
pfpi4k_grid

>  <i_i_glide_lignum>  (309) 
35

>  <i_i_glide_rotatable_bonds>  (309) 
0

>  <r_i_docking_score>  (309) 
-3.92319

>  <r_i_glide_ligand_efficiency>  (309) 
-0.356654

>  <r_i_glide_ligand_efficiency_sa>  (309) 
-0.79319

>  <r_i_glide_ligand_efficiency_ln>  (309) 
-1.15459

>  <r_i_glide_gscore>  (309) 
-3.92319

>  <r_i_glide_lipo>  (309) 
-0.407022

>  <r_i_glide_hbond>  (309) 
0

>  <r_i_glide_metal>  (309) 
-0

>  <r_i_glide_rewards>  (309) 
-2.25

>  <r_i_glide_evdw>  (309) 
-14.8574

>  <r_i_glide_ecoul>  (309) 
-3.48864

>  <r_i_glide_erotb>  (309) 
0

>  <r_i_glide_esite>  (309) 
0

>  <r_i_glide_emodel>  (309) 
-24.7727

>  <r_i_glide_energy>  (309) 
-18.3461

>  <r_i_glide_einternal>  (309) 
0

>  <r_i_glide_intrahb_reward>  (309) 
-0

>  <i_i_glide_confnum>  (309) 
1

>  <i_i_glide_posenum>  (309) 
7

>  <r_i_glide_eff_state_penalty>  (309) 
0

>  <ligand_id>  (309) 
81

>  <original_smiles>  (309) 
NC1C2CC3CC(C2)CC1C3

>  <smiles>  (309) 
[H]C1([H])C2([H])C([H])([H])C3([H])C([H])([H])C1([H])C([H])([H])C([H])(C2([H])[H])C3([H])[N+]([H])([H])[H]

$$$$
82:0:0
     RDKit          3D

 40 42  0  0  1  0  0  0  0  0999 V2000
    8.6066   -3.1523   -0.1649 C   0  0  0  0  0  0  0  0  0  0  0  0
    7.5503   -2.8179   -1.0500 O   0  0  0  0  0  0  0  0  0  0  0  0
    6.2973   -2.9759   -0.4730 C   0  0  2  0  0  0  0  0  0  0  0  0
    6.0809   -4.3011   -0.0820 O   0  0  0  0  0  0  0  0  0  0  0  0
    4.9383   -4.5016    0.6921 C   0  0  1  0  0  0  0  0  0  0  0  0
    4.9568   -5.9754    1.1302 C   0  0  0  0  0  0  0  0  0  0  0  0
    4.8700   -3.6769    1.8461 O   0  0  0  0  0  0  0  0  0  0  0  0
    3.7326   -4.2434   -0.2089 C   0  0  0  0  0  0  0  0  0  0  0  0
    3.8288   -3.0277   -1.0880 C   0  0  0  0  0  0  0  0  0  0  0  0
    2.7356   -2.5762   -1.7107 C   0  0  0  0  0  0  0  0  0  0  0  0
    2.6725   -1.4727   -2.7390 C   0  0  0  0  0  0  0  0  0  0  0  0
    3.9945   -1.0465   -3.3693 C   0  0  1  0  0  0  0  0  0  0  0  0
    3.7049   -0.1687   -4.5973 C   0  0  0  0  0  0  0  0  0  0  0  0
    4.8126   -0.3012   -2.5015 O   0  0  0  0  0  0  0  0  0  0  0  0
    5.1043   -1.0639   -1.2350 O   0  0  0  0  0  0  0  0  0  0  0  0
    5.1887   -2.4761   -1.4482 C   0  0  1  0  0  0  0  0  0  0  0  0
    5.4831   -2.8707   -2.9340 C   0  0  1  0  0  0  0  0  0  0  0  0
    5.2253   -4.2431   -3.0340 O   0  0  0  0  0  0  0  0  0  0  0  0
    4.6076   -4.6811   -4.2305 C   0  0  0  0  0  0  0  0  0  0  0  0
    4.6752   -2.1754   -3.8499 O   0  0  0  0  0  0  0  0  0  0  0  0
    9.5328   -3.0064   -0.6982 H   0  0  0  0  0  0  0  0  0  0  0  0
    8.5719   -4.1994    0.1365 H   0  0  0  0  0  0  0  0  0  0  0  0
    8.6327   -2.5235    0.7264 H   0  0  0  0  0  0  0  0  0  0  0  0
    6.2936   -2.3389    0.4087 H   0  0  0  0  0  0  0  0  0  0  0  0
    5.8038   -6.1579    1.7913 H   0  0  0  0  0  0  0  0  0  0  0  0
    5.0660   -6.6261    0.2593 H   0  0  0  0  0  0  0  0  0  0  0  0
    4.0398   -6.2574    1.6497 H   0  0  0  0  0  0  0  0  0  0  0  0
    4.5013   -2.8451    1.6002 H   0  0  0  0  0  0  0  0  0  0  0  0
    3.7141   -5.0613   -0.9189 H   0  0  0  0  0  0  0  0  0  0  0  0
    2.7997   -4.2518    0.3607 H   0  0  0  0  0  0  0  0  0  0  0  0
    1.7925   -3.0368   -1.4594 H   0  0  0  0  0  0  0  0  0  0  0  0
    2.0083   -1.8549   -3.5143 H   0  0  0  0  0  0  0  0  0  0  0  0
    2.2219   -0.5783   -2.3108 H   0  0  0  0  0  0  0  0  0  0  0  0
    4.6248    0.1216   -5.0818 H   0  0  0  0  0  0  0  0  0  0  0  0
    3.1874    0.7505   -4.3174 H   0  0  0  0  0  0  0  0  0  0  0  0
    3.1166   -0.6893   -5.3574 H   0  0  0  0  0  0  0  0  0  0  0  0
    6.5147   -2.6578   -3.1956 H   0  0  0  0  0  0  0  0  0  0  0  0
    4.6080   -5.7679   -4.2639 H   0  0  0  0  0  0  0  0  0  0  0  0
    5.1571   -4.3469   -5.1090 H   0  0  0  0  0  0  0  0  0  0  0  0
    3.5744   -4.3379   -4.2816 H   0  0  0  0  0  0  0  0  0  0  0  0
  1  2  1  0
  1 21  1  0
  1 22  1  0
  1 23  1  0
  2  3  1  0
  3 16  1  0
  3  4  1  0
  3 24  1  1
  4  5  1  0
  5  6  1  0
  5  7  1  1
  5  8  1  0
  6 25  1  0
  6 26  1  0
  6 27  1  0
  7 28  1  0
  8  9  1  0
  8 29  1  0
  8 30  1  0
  9 16  1  0
  9 10  2  0
 10 11  1  0
 10 31  1  0
 11 12  1  0
 11 32  1  0
 11 33  1  0
 12 20  1  0
 12 13  1  6
 12 14  1  0
 13 34  1  0
 13 35  1  0
 13 36  1  0
 14 15  1  0
 16 15  1  6
 16 17  1  0
 17 18  1  0
 17 20  1  0
 17 37  1  6
 18 19  1  0
 19 38  1  0
 19 39  1  0
 19 40  1  0
M  END
>  <i_m_ct_stereo_status>  (310) 
1

>  <s_m_source_file>  (310) 
/var/tmp/pbs.5076255.sched01/tmpwmgilt76/96rd2vfdyj.sdf

>  <i_m_source_file_index>  (310) 
36

>  <i_lp_mmshare_version>  (310) 
48012

>  <i_f3d_flags>  (310) 
0

>  <s_epik_input>  (310) 
W0NIM11PW0NAQEhdMU9bQ0BAXShbQ0gzXSkoW09IXSlbQ0gyXUMoW0NAXTEyMyk9W0NIXVtDSDJdW0NAQF0oW0NIM10pKE9PMilPW0NAQEhdM09bQ0gzXQ==

>  <s_epik_cmdline>  (310) 
J2VwaWtfcHl0aG9uJywgJy1waHQnLCAnMi4wJywgJy1waCcsICc3LjAnLCAnLXRuJywgJzgnLCAnLW1hJywgJzIwMCcsICctaW1hZScsICc8aW5maWxlLm1hZT4nLCAnLW9tYWUnLCAnPG91dGZpbGUubWFlPic=

>  <r_lp_tautomer_probability>  (310) 
1

>  <r_epik_Ionization_Penalty>  (310) 
1.07259e-05

>  <r_epik_Ionization_Penalty_Charging>  (310) 
0

>  <r_epik_Ionization_Penalty_Neutral>  (310) 
1.07259e-05

>  <r_epik_State_Penalty>  (310) 
-0

>  <r_epik_Charging_Adjusted_Penalty>  (310) 
0

>  <i_epik_Tot_Q>  (310) 
0

>  <i_epik_Tot_abs_Q>  (310) 
0

>  <s_epik_Chemistry_Notes>  (310) 
This compound contains an acetal/aminal-like group ( X-CH(R)-Y where X, Y are N, S, or O) that may be acid/base labile, releasing an aldehyde.

>  <s_lp_Force_Field>  (310) 
OPLS3e

>  <r_lp_Energy>  (310) 
16.8891

>  <b_lp_Chiralities_Consistent>  (310) 
1

>  <s_lp_Variant>  (310) 
82:0-1

>  <s_i_glide_gridfile>  (310) 
pfpi4k_grid

>  <i_i_glide_lignum>  (310) 
36

>  <i_i_glide_rotatable_bonds>  (310) 
3

>  <r_i_docking_score>  (310) 
-3.63197

>  <r_i_glide_ligand_efficiency>  (310) 
-0.181599

>  <r_i_glide_ligand_efficiency_sa>  (310) 
-0.492934

>  <r_i_glide_ligand_efficiency_ln>  (310) 
-0.908963

>  <r_i_glide_gscore>  (310) 
-3.63197

>  <r_i_glide_lipo>  (310) 
-0.415124

>  <r_i_glide_hbond>  (310) 
-0.120346

>  <r_i_glide_metal>  (310) 
-0

>  <r_i_glide_rewards>  (310) 
-1.97661

>  <r_i_glide_evdw>  (310) 
-17.4883

>  <r_i_glide_ecoul>  (310) 
-1.63649

>  <r_i_glide_erotb>  (310) 
0

>  <r_i_glide_esite>  (310) 
0

>  <r_i_glide_emodel>  (310) 
-17.9697

>  <r_i_glide_energy>  (310) 
-19.1248

>  <r_i_glide_einternal>  (310) 
4.67609

>  <r_i_glide_intrahb_reward>  (310) 
-0

>  <i_i_glide_confnum>  (310) 
2

>  <i_i_glide_posenum>  (310) 
18

>  <r_i_glide_eff_state_penalty>  (310) 
0

>  <ligand_id>  (310) 
82

>  <original_smiles>  (310) 
COC1OC(C)(O)CC2=CCC3(C)OOC21C(OC)O3

>  <smiles>  (310) 
[H]OC1(C([H])([H])[H])OC([H])(OC([H])([H])[H])C23OOC(C([H])([H])[H])(OC2([H])OC([H])([H])[H])C([H])([H])C([H])=C3C1([H])[H]

$$$$
82:0:1
     RDKit          3D

 40 42  0  0  1  0  0  0  0  0999 V2000
    8.6165   -3.0289   -0.1613 C   0  0  0  0  0  0  0  0  0  0  0  0
    7.5564   -2.7954   -1.0693 O   0  0  0  0  0  0  0  0  0  0  0  0
    6.3046   -2.9659   -0.4914 C   0  0  2  0  0  0  0  0  0  0  0  0
    6.1034   -4.3000   -0.0957 O   0  0  0  0  0  0  0  0  0  0  0  0
    4.9595   -4.4976    0.6810 C   0  0  1  0  0  0  0  0  0  0  0  0
    4.9822   -5.9745    1.1214 C   0  0  0  0  0  0  0  0  0  0  0  0
    4.8933   -3.6744    1.8323 O   0  0  0  0  0  0  0  0  0  0  0  0
    3.7542   -4.2390   -0.2148 C   0  0  0  0  0  0  0  0  0  0  0  0
    3.8376   -3.0193   -1.1042 C   0  0  0  0  0  0  0  0  0  0  0  0
    2.7438   -2.5732   -1.7116 C   0  0  0  0  0  0  0  0  0  0  0  0
    2.6760   -1.4716   -2.7490 C   0  0  0  0  0  0  0  0  0  0  0  0
    3.9888   -1.0508   -3.3875 C   0  0  1  0  0  0  0  0  0  0  0  0
    3.6989   -0.1779   -4.6135 C   0  0  0  0  0  0  0  0  0  0  0  0
    4.8058   -0.2946   -2.5224 O   0  0  0  0  0  0  0  0  0  0  0  0
    5.1229   -1.0577   -1.2630 O   0  0  0  0  0  0  0  0  0  0  0  0
    5.1962   -2.4676   -1.4660 C   0  0  1  0  0  0  0  0  0  0  0  0
    5.4767   -2.8655   -2.9523 C   0  0  1  0  0  0  0  0  0  0  0  0
    5.2313   -4.2518   -3.0466 O   0  0  0  0  0  0  0  0  0  0  0  0
    4.6134   -4.6884   -4.2506 C   0  0  0  0  0  0  0  0  0  0  0  0
    4.6617   -2.1773   -3.8638 O   0  0  0  0  0  0  0  0  0  0  0  0
    9.5395   -2.8991   -0.7049 H   0  0  0  0  0  0  0  0  0  0  0  0
    8.6208   -4.0479    0.2329 H   0  0  0  0  0  0  0  0  0  0  0  0
    8.6279   -2.3202    0.6702 H   0  0  0  0  0  0  0  0  0  0  0  0
    6.2859   -2.3266    0.3836 H   0  0  0  0  0  0  0  0  0  0  0  0
    5.8331   -6.1551    1.7771 H   0  0  0  0  0  0  0  0  0  0  0  0
    5.0839   -6.6262    0.2503 H   0  0  0  0  0  0  0  0  0  0  0  0
    4.0633   -6.2477    1.6467 H   0  0  0  0  0  0  0  0  0  0  0  0
    5.4822   -4.0264    2.4850 H   0  0  0  0  0  0  0  0  0  0  0  0
    3.7225   -5.0596   -0.9178 H   0  0  0  0  0  0  0  0  0  0  0  0
    2.8253   -4.2451    0.3588 H   0  0  0  0  0  0  0  0  0  0  0  0
    1.8047   -3.0148   -1.4414 H   0  0  0  0  0  0  0  0  0  0  0  0
    1.9976   -1.8463   -3.5178 H   0  0  0  0  0  0  0  0  0  0  0  0
    2.2788   -0.5563   -2.3246 H   0  0  0  0  0  0  0  0  0  0  0  0
    4.6153    0.1125   -5.0966 H   0  0  0  0  0  0  0  0  0  0  0  0
    3.1828    0.7445   -4.3405 H   0  0  0  0  0  0  0  0  0  0  0  0
    3.1102   -0.6964   -5.3720 H   0  0  0  0  0  0  0  0  0  0  0  0
    6.5168   -2.6691   -3.2211 H   0  0  0  0  0  0  0  0  0  0  0  0
    4.6129   -5.7706   -4.2591 H   0  0  0  0  0  0  0  0  0  0  0  0
    5.1729   -4.3702   -5.1243 H   0  0  0  0  0  0  0  0  0  0  0  0
    3.5861   -4.3406   -4.3035 H   0  0  0  0  0  0  0  0  0  0  0  0
  1  2  1  0
  1 21  1  0
  1 22  1  0
  1 23  1  0
  2  3  1  0
  3 16  1  0
  3  4  1  0
  3 24  1  1
  4  5  1  0
  5  6  1  0
  5  7  1  1
  5  8  1  0
  6 25  1  0
  6 26  1  0
  6 27  1  0
  7 28  1  0
  8  9  1  0
  8 29  1  0
  8 30  1  0
  9 16  1  0
  9 10  2  0
 10 11  1  0
 10 31  1  0
 11 12  1  0
 11 32  1  0
 11 33  1  0
 12 20  1  0
 12 13  1  6
 12 14  1  0
 13 34  1  0
 13 35  1  0
 13 36  1  0
 14 15  1  0
 16 15  1  6
 16 17  1  0
 17 18  1  0
 17 20  1  0
 17 37  1  6
 18 19  1  0
 19 38  1  0
 19 39  1  0
 19 40  1  0
M  END
>  <i_m_ct_stereo_status>  (311) 
1

>  <s_m_source_file>  (311) 
/var/tmp/pbs.5076255.sched01/tmpwmgilt76/96rd2vfdyj.sdf

>  <i_m_source_file_index>  (311) 
36

>  <i_lp_mmshare_version>  (311) 
48012

>  <i_f3d_flags>  (311) 
0

>  <s_epik_input>  (311) 
W0NIM11PW0NAQEhdMU9bQ0BAXShbQ0gzXSkoW09IXSlbQ0gyXUMoW0NAXTEyMyk9W0NIXVtDSDJdW0NAQF0oW0NIM10pKE9PMilPW0NAQEhdM09bQ0gzXQ==

>  <s_epik_cmdline>  (311) 
J2VwaWtfcHl0aG9uJywgJy1waHQnLCAnMi4wJywgJy1waCcsICc3LjAnLCAnLXRuJywgJzgnLCAnLW1hJywgJzIwMCcsICctaW1hZScsICc8aW5maWxlLm1hZT4nLCAnLW9tYWUnLCAnPG91dGZpbGUubWFlPic=

>  <r_lp_tautomer_probability>  (311) 
1

>  <r_epik_Ionization_Penalty>  (311) 
1.07259e-05

>  <r_epik_Ionization_Penalty_Charging>  (311) 
0

>  <r_epik_Ionization_Penalty_Neutral>  (311) 
1.07259e-05

>  <r_epik_State_Penalty>  (311) 
-0

>  <r_epik_Charging_Adjusted_Penalty>  (311) 
0

>  <i_epik_Tot_Q>  (311) 
0

>  <i_epik_Tot_abs_Q>  (311) 
0

>  <s_epik_Chemistry_Notes>  (311) 
This compound contains an acetal/aminal-like group ( X-CH(R)-Y where X, Y are N, S, or O) that may be acid/base labile, releasing an aldehyde.

>  <s_lp_Force_Field>  (311) 
OPLS3e

>  <r_lp_Energy>  (311) 
16.8891

>  <b_lp_Chiralities_Consistent>  (311) 
1

>  <s_lp_Variant>  (311) 
82:0-1

>  <s_i_glide_gridfile>  (311) 
pfpi4k_grid

>  <i_i_glide_lignum>  (311) 
36

>  <i_i_glide_rotatable_bonds>  (311) 
3

>  <r_i_docking_score>  (311) 
-3.54938

>  <r_i_glide_ligand_efficiency>  (311) 
-0.177469

>  <r_i_glide_ligand_efficiency_sa>  (311) 
-0.481724

>  <r_i_glide_ligand_efficiency_ln>  (311) 
-0.888292

>  <r_i_glide_gscore>  (311) 
-3.54938

>  <r_i_glide_lipo>  (311) 
-0.385758

>  <r_i_glide_hbond>  (311) 
-0.144296

>  <r_i_glide_metal>  (311) 
-0

>  <r_i_glide_rewards>  (311) 
-1.97671

>  <r_i_glide_evdw>  (311) 
-17.4836

>  <r_i_glide_ecoul>  (311) 
-1.12291

>  <r_i_glide_erotb>  (311) 
0

>  <r_i_glide_esite>  (311) 
0

>  <r_i_glide_emodel>  (311) 
-17.5083

>  <r_i_glide_energy>  (311) 
-18.6065

>  <r_i_glide_einternal>  (311) 
4.53859

>  <r_i_glide_intrahb_reward>  (311) 
-0

>  <i_i_glide_confnum>  (311) 
1

>  <i_i_glide_posenum>  (311) 
35

>  <r_i_glide_eff_state_penalty>  (311) 
0

>  <ligand_id>  (311) 
82

>  <original_smiles>  (311) 
COC1OC(C)(O)CC2=CCC3(C)OOC21C(OC)O3

>  <smiles>  (311) 
[H]OC1(C([H])([H])[H])OC([H])(OC([H])([H])[H])C23OOC(C([H])([H])[H])(OC2([H])OC([H])([H])[H])C([H])([H])C([H])=C3C1([H])[H]

$$$$
83:0:0
     RDKit          3D

 44 47  0  0  1  0  0  0  0  0999 V2000
    1.2714   -4.5417    4.3735 C   0  0  0  0  0  0  0  0  0  0  0  0
    1.3621   -3.1087    3.8794 C   0  0  0  0  0  0  0  0  0  0  0  0
    2.2612   -2.9030    2.8877 N   0  0  0  0  0  0  0  0  0  0  0  0
    2.3955   -1.6571    2.3701 C   0  0  0  0  0  0  0  0  0  0  0  0
    3.3004   -1.4479    1.3513 O   0  0  0  0  0  0  0  0  0  0  0  0
    4.4090   -2.3127    1.1542 C   0  0  2  0  0  0  0  0  0  0  0  0
    5.5196   -1.4928    0.4506 C   0  0  1  0  0  0  0  0  0  0  0  0
    6.7687   -2.3792    0.2711 C   0  0  0  0  0  0  0  0  0  0  0  0
    6.3983   -3.5960   -0.6013 C   0  0  1  0  0  0  0  0  0  0  0  0
    5.2822   -4.4102    0.0819 C   0  0  0  0  0  0  0  0  0  0  0  0
    4.0369   -3.5187    0.2592 C   0  0  2  0  0  0  0  0  0  0  0  0
    3.5419   -3.0177   -1.1195 C   0  0  0  0  0  0  0  0  0  0  0  0
    4.6616   -2.2160   -1.8382 C   0  0  2  0  0  0  0  0  0  0  0  0
    4.1786   -1.7649   -3.2445 C   0  0  0  0  0  0  0  0  0  0  0  0
    4.0671   -0.5388   -3.4690 O   0  0  0  0  0  0  0  0  0  0  0  0
    3.9624   -2.6501   -4.1034 O   0  0  0  0  0  0  0  0  0  0  0  0
    5.9161   -3.1203   -1.9895 C   0  0  0  0  0  0  0  0  0  0  0  0
    5.0363   -1.0037   -0.9366 C   0  0  0  0  0  0  0  0  0  0  0  0
    1.6430   -0.5571    2.8285 C   0  0  0  0  0  0  0  0  0  0  0  0
    1.8055    0.8360    2.2393 C   0  0  0  0  0  0  0  0  0  0  0  0
    1.6313    1.7426    3.2060 F   0  0  0  0  0  0  0  0  0  0  0  0
    3.0044    1.0356    1.6935 F   0  0  0  0  0  0  0  0  0  0  0  0
    0.8736    1.0173    1.3101 F   0  0  0  0  0  0  0  0  0  0  0  0
    0.7143   -0.7793    3.8616 C   0  0  0  0  0  0  0  0  0  0  0  0
    0.5626   -2.0660    4.4043 C   0  0  0  0  0  0  0  0  0  0  0  0
   -0.5863   -2.3290    5.6780 Cl  0  0  0  0  0  0  0  0  0  0  0  0
    0.5423   -4.6708    5.1723 H   0  0  0  0  0  0  0  0  0  0  0  0
    2.2371   -4.8740    4.7556 H   0  0  0  0  0  0  0  0  0  0  0  0
    0.9843   -5.2107    3.5613 H   0  0  0  0  0  0  0  0  0  0  0  0
    4.7807   -2.6477    2.1222 H   0  0  0  0  0  0  0  0  0  0  0  0
    5.7746   -0.6275    1.0618 H   0  0  0  0  0  0  0  0  0  0  0  0
    7.5751   -1.8113   -0.1957 H   0  0  0  0  0  0  0  0  0  0  0  0
    7.1469   -2.7037    1.2395 H   0  0  0  0  0  0  0  0  0  0  0  0
    7.2786   -4.2210   -0.7214 H   0  0  0  0  0  0  0  0  0  0  0  0
    5.0323   -5.2845   -0.5164 H   0  0  0  0  0  0  0  0  0  0  0  0
    5.6259   -4.7760    1.0496 H   0  0  0  0  0  0  0  0  0  0  0  0
    3.2506   -4.1121    0.7295 H   0  0  0  0  0  0  0  0  0  0  0  0
    3.2262   -3.8591   -1.7305 H   0  0  0  0  0  0  0  0  0  0  0  0
    2.6571   -2.3921   -0.9889 H   0  0  0  0  0  0  0  0  0  0  0  0
    6.7171   -2.5774   -2.4914 H   0  0  0  0  0  0  0  0  0  0  0  0
    5.6936   -3.9853   -2.6158 H   0  0  0  0  0  0  0  0  0  0  0  0
    4.1879   -0.3262   -0.8087 H   0  0  0  0  0  0  0  0  0  0  0  0
    5.8177   -0.4143   -1.4102 H   0  0  0  0  0  0  0  0  0  0  0  0
    0.1139    0.0353    4.2409 H   0  0  0  0  0  0  0  0  0  0  0  0
  1  2  1  0
  1 27  1  0
  1 28  1  0
  1 29  1  0
  2 25  2  0
  2  3  1  0
  3  4  2  0
  4  5  1  0
  4 19  1  0
  5  6  1  0
  6 11  1  0
  6  7  1  0
  6 30  1  1
  7 18  1  0
  7  8  1  0
  7 31  1  1
  8  9  1  0
  8 32  1  0
  8 33  1  0
  9 17  1  0
  9 10  1  0
  9 34  1  6
 10 11  1  0
 10 35  1  0
 10 36  1  0
 11 12  1  0
 11 37  1  1
 12 13  1  0
 12 38  1  0
 12 39  1  0
 13 14  1  6
 13 17  1  0
 13 18  1  0
 14 15  2  0
 14 16  1  0
 17 40  1  0
 17 41  1  0
 18 42  1  0
 18 43  1  0
 19 20  1  0
 19 24  2  0
 20 21  1  0
 20 22  1  0
 20 23  1  0
 24 25  1  0
 24 44  1  0
 25 26  1  0
M  CHG  1  16  -1
M  END
>  <i_m_ct_stereo_status>  (312) 
1

>  <s_m_source_file>  (312) 
/var/tmp/pbs.5076255.sched01/tmpwmgilt76/96rd2vfdyj.sdf

>  <i_m_source_file_index>  (312) 
37

>  <i_lp_mmshare_version>  (312) 
48012

>  <i_f3d_flags>  (312) 
0

>  <s_epik_input>  (312) 
Q2xjMVtjSF1jKEMoRikoRilGKWMobmMxW0NIM10pT1tDQEhdKFtDQEhdKFtDSDJdMilbQ0gyXVtDQEBIXShbQ0gyXTMpW0NIMl00KVtDQEhdM1tDSDJdW0NAQF0yNEMoPU8pW09IXQ==

>  <s_epik_cmdline>  (312) 
J2VwaWtfcHl0aG9uJywgJy1waHQnLCAnMi4wJywgJy1waCcsICc3LjAnLCAnLXRuJywgJzgnLCAnLW1hJywgJzIwMCcsICctaW1hZScsICc8aW5maWxlLm1hZT4nLCAnLW9tYWUnLCAnPG91dGZpbGUubWFlPic=

>  <r_lp_tautomer_probability>  (312) 
1

>  <r_epik_Ionization_Penalty>  (312) 
0.00575512

>  <r_epik_Ionization_Penalty_Charging>  (312) 
0.00575494

>  <r_epik_Ionization_Penalty_Neutral>  (312) 
1.78582e-07

>  <r_epik_State_Penalty>  (312) 
0.00422412

>  <r_epik_Charging_Adjusted_Penalty>  (312) 
0.00997907

>  <i_epik_Tot_Q>  (312) 
-1

>  <i_epik_Tot_abs_Q>  (312) 
1

>  <s_lp_Force_Field>  (312) 
OPLS3e

>  <r_lp_Energy>  (312) 
28.0784

>  <b_lp_Chiralities_Consistent>  (312) 
1

>  <s_lp_Variant>  (312) 
83:0-1

>  <s_i_glide_gridfile>  (312) 
pfpi4k_grid

>  <i_i_glide_lignum>  (312) 
37

>  <i_i_glide_rotatable_bonds>  (312) 
4

>  <r_i_docking_score>  (312) 
-2.95747

>  <r_i_glide_ligand_efficiency>  (312) 
-0.113749

>  <r_i_glide_ligand_efficiency_sa>  (312) 
-0.336981

>  <r_i_glide_ligand_efficiency_ln>  (312) 
-0.694553

>  <r_i_glide_gscore>  (312) 
-2.95747

>  <r_i_glide_lipo>  (312) 
-0.536768

>  <r_i_glide_hbond>  (312) 
-0.146565

>  <r_i_glide_metal>  (312) 
-0

>  <r_i_glide_rewards>  (312) 
-1.02413

>  <r_i_glide_evdw>  (312) 
-24.8465

>  <r_i_glide_ecoul>  (312) 
-1.0883

>  <r_i_glide_erotb>  (312) 
0.257847

>  <r_i_glide_esite>  (312) 
-0.102286

>  <r_i_glide_emodel>  (312) 
-32.2962

>  <r_i_glide_energy>  (312) 
-25.9348

>  <r_i_glide_einternal>  (312) 
2.14524

>  <r_i_glide_intrahb_reward>  (312) 
-0

>  <i_i_glide_confnum>  (312) 
6

>  <i_i_glide_posenum>  (312) 
3

>  <r_i_glide_eff_state_penalty>  (312) 
0

>  <ligand_id>  (312) 
83

>  <original_smiles>  (312) 
Cc1nc(OC2C3CC4CC2CC(C(=O)O)(C4)C3)c(C(F)(F)F)cc1Cl

>  <smiles>  (312) 
[H]c1c(Cl)c(C([H])([H])[H])nc(OC2([H])C3([H])C([H])([H])C4([H])C([H])([H])C2([H])C([H])([H])C(C(=O)[O-])(C4([H])[H])C3([H])[H])c1C(F)(F)F

$$$$
83:0:1
     RDKit          3D

 44 47  0  0  1  0  0  0  0  0999 V2000
   -0.0266    1.5336    1.8489 C   0  0  0  0  0  0  0  0  0  0  0  0
    1.2794    1.1548    2.5219 C   0  0  0  0  0  0  0  0  0  0  0  0
    1.8847    0.0500    2.0258 N   0  0  0  0  0  0  0  0  0  0  0  0
    3.0497   -0.3701    2.5758 C   0  0  0  0  0  0  0  0  0  0  0  0
    3.6459   -1.5178    2.0875 O   0  0  0  0  0  0  0  0  0  0  0  0
    3.2701   -2.0700    0.8206 C   0  0  2  0  0  0  0  0  0  0  0  0
    3.7484   -3.5397    0.7716 C   0  0  1  0  0  0  0  0  0  0  0  0
    3.3090   -4.1639   -0.5694 C   0  0  0  0  0  0  0  0  0  0  0  0
    3.9642   -3.3948   -1.7375 C   0  0  1  0  0  0  0  0  0  0  0  0
    3.5231   -1.9222   -1.7002 C   0  0  0  0  0  0  0  0  0  0  0  0
    3.9373   -1.3012   -0.3457 C   0  0  2  0  0  0  0  0  0  0  0  0
    5.4702   -1.3684   -0.2144 C   0  0  0  0  0  0  0  0  0  0  0  0
    5.9584   -2.8438   -0.2738 C   0  0  2  0  0  0  0  0  0  0  0  0
    7.5025   -2.9241   -0.1595 C   0  0  0  0  0  0  0  0  0  0  0  0
    8.0165   -4.0416    0.0781 O   0  0  0  0  0  0  0  0  0  0  0  0
    8.1485   -1.8632   -0.3205 O   0  0  0  0  0  0  0  0  0  0  0  0
    5.4986   -3.4802   -1.6126 C   0  0  0  0  0  0  0  0  0  0  0  0
    5.2899   -3.6219    0.8912 C   0  0  0  0  0  0  0  0  0  0  0  0
    3.6616    0.3009    3.6566 C   0  0  0  0  0  0  0  0  0  0  0  0
    4.9771   -0.1954    4.2327 C   0  0  0  0  0  0  0  0  0  0  0  0
    4.8079   -1.4123    4.7445 F   0  0  0  0  0  0  0  0  0  0  0  0
    5.8910   -0.2515    3.2701 F   0  0  0  0  0  0  0  0  0  0  0  0
    5.4328    0.6098    5.1955 F   0  0  0  0  0  0  0  0  0  0  0  0
    3.0280    1.4509    4.1709 C   0  0  0  0  0  0  0  0  0  0  0  0
    1.8184    1.8864    3.6056 C   0  0  0  0  0  0  0  0  0  0  0  0
    1.0397    3.2902    4.2458 Cl  0  0  0  0  0  0  0  0  0  0  0  0
   -0.4824    2.4241    2.2776 H   0  0  0  0  0  0  0  0  0  0  0  0
   -0.7532    0.7258    1.9230 H   0  0  0  0  0  0  0  0  0  0  0  0
    0.1415    1.7415    0.7953 H   0  0  0  0  0  0  0  0  0  0  0  0
    2.1895   -2.0740    0.7076 H   0  0  0  0  0  0  0  0  0  0  0  0
    3.2917   -4.0903    1.5964 H   0  0  0  0  0  0  0  0  0  0  0  0
    3.6051   -5.2107   -0.5946 H   0  0  0  0  0  0  0  0  0  0  0  0
    2.2226   -4.1466   -0.6656 H   0  0  0  0  0  0  0  0  0  0  0  0
    3.6530   -3.8379   -2.6829 H   0  0  0  0  0  0  0  0  0  0  0  0
    3.9685   -1.3692   -2.5269 H   0  0  0  0  0  0  0  0  0  0  0  0
    2.4487   -1.8705   -1.8594 H   0  0  0  0  0  0  0  0  0  0  0  0
    3.6300   -0.2611   -0.3146 H   0  0  0  0  0  0  0  0  0  0  0  0
    5.9100   -0.7730   -1.0128 H   0  0  0  0  0  0  0  0  0  0  0  0
    5.7843   -0.9097    0.7256 H   0  0  0  0  0  0  0  0  0  0  0  0
    5.7939   -4.5285   -1.6492 H   0  0  0  0  0  0  0  0  0  0  0  0
    5.9726   -2.9901   -2.4647 H   0  0  0  0  0  0  0  0  0  0  0  0
    5.6177   -3.2200    1.8515 H   0  0  0  0  0  0  0  0  0  0  0  0
    5.5906   -4.6700    0.8821 H   0  0  0  0  0  0  0  0  0  0  0  0
    3.4560    2.0004    4.9986 H   0  0  0  0  0  0  0  0  0  0  0  0
  1  2  1  0
  1 27  1  0
  1 28  1  0
  1 29  1  0
  2 25  2  0
  2  3  1  0
  3  4  2  0
  4  5  1  0
  4 19  1  0
  5  6  1  0
  6 11  1  0
  6  7  1  0
  6 30  1  6
  7 18  1  0
  7  8  1  0
  7 31  1  1
  8  9  1  0
  8 32  1  0
  8 33  1  0
  9 17  1  0
  9 10  1  0
  9 34  1  6
 10 11  1  0
 10 35  1  0
 10 36  1  0
 11 12  1  0
 11 37  1  6
 12 13  1  0
 12 38  1  0
 12 39  1  0
 13 14  1  1
 13 17  1  0
 13 18  1  0
 14 15  2  0
 14 16  1  0
 17 40  1  0
 17 41  1  0
 18 42  1  0
 18 43  1  0
 19 20  1  0
 19 24  2  0
 20 21  1  0
 20 22  1  0
 20 23  1  0
 24 25  1  0
 24 44  1  0
 25 26  1  0
M  CHG  1  16  -1
M  END
>  <i_m_ct_stereo_status>  (313) 
1

>  <s_m_source_file>  (313) 
/var/tmp/pbs.5076255.sched01/tmpwmgilt76/96rd2vfdyj.sdf

>  <i_m_source_file_index>  (313) 
37

>  <i_lp_mmshare_version>  (313) 
48012

>  <i_f3d_flags>  (313) 
0

>  <s_epik_input>  (313) 
Q2xjMVtjSF1jKEMoRikoRilGKWMobmMxW0NIM10pT1tDQEhdKFtDQEhdKFtDSDJdMilbQ0gyXVtDQEBIXShbQ0gyXTMpW0NIMl00KVtDQEhdM1tDSDJdW0NAQF0yNEMoPU8pW09IXQ==

>  <s_epik_cmdline>  (313) 
J2VwaWtfcHl0aG9uJywgJy1waHQnLCAnMi4wJywgJy1waCcsICc3LjAnLCAnLXRuJywgJzgnLCAnLW1hJywgJzIwMCcsICctaW1hZScsICc8aW5maWxlLm1hZT4nLCAnLW9tYWUnLCAnPG91dGZpbGUubWFlPic=

>  <r_lp_tautomer_probability>  (313) 
1

>  <r_epik_Ionization_Penalty>  (313) 
0.00575512

>  <r_epik_Ionization_Penalty_Charging>  (313) 
0.00575494

>  <r_epik_Ionization_Penalty_Neutral>  (313) 
1.78582e-07

>  <r_epik_State_Penalty>  (313) 
0.00422412

>  <r_epik_Charging_Adjusted_Penalty>  (313) 
0.00997907

>  <i_epik_Tot_Q>  (313) 
-1

>  <i_epik_Tot_abs_Q>  (313) 
1

>  <s_lp_Force_Field>  (313) 
OPLS3e

>  <r_lp_Energy>  (313) 
28.0784

>  <b_lp_Chiralities_Consistent>  (313) 
1

>  <s_lp_Variant>  (313) 
83:0-1

>  <s_i_glide_gridfile>  (313) 
pfpi4k_grid

>  <i_i_glide_lignum>  (313) 
37

>  <i_i_glide_rotatable_bonds>  (313) 
4

>  <r_i_docking_score>  (313) 
-2.76346

>  <r_i_glide_ligand_efficiency>  (313) 
-0.106287

>  <r_i_glide_ligand_efficiency_sa>  (313) 
-0.314875

>  <r_i_glide_ligand_efficiency_ln>  (313) 
-0.64899

>  <r_i_glide_gscore>  (313) 
-2.76346

>  <r_i_glide_lipo>  (313) 
-0.253143

>  <r_i_glide_hbond>  (313) 
-0.150144

>  <r_i_glide_metal>  (313) 
-0

>  <r_i_glide_rewards>  (313) 
-1.24661

>  <r_i_glide_evdw>  (313) 
-22.8312

>  <r_i_glide_ecoul>  (313) 
-1.53231

>  <r_i_glide_erotb>  (313) 
0.257847

>  <r_i_glide_esite>  (313) 
0

>  <r_i_glide_emodel>  (313) 
-31.0745

>  <r_i_glide_energy>  (313) 
-24.3635

>  <r_i_glide_einternal>  (313) 
0.634565

>  <r_i_glide_intrahb_reward>  (313) 
-0

>  <i_i_glide_confnum>  (313) 
6

>  <i_i_glide_posenum>  (313) 
11

>  <r_i_glide_eff_state_penalty>  (313) 
0

>  <ligand_id>  (313) 
83

>  <original_smiles>  (313) 
Cc1nc(OC2C3CC4CC2CC(C(=O)O)(C4)C3)c(C(F)(F)F)cc1Cl

>  <smiles>  (313) 
[H]c1c(Cl)c(C([H])([H])[H])nc(OC2([H])C3([H])C([H])([H])C4([H])C([H])([H])C2([H])C([H])([H])C(C(=O)[O-])(C4([H])[H])C3([H])[H])c1C(F)(F)F

$$$$
83:0:2
     RDKit          3D

 44 47  0  0  1  0  0  0  0  0999 V2000
    4.0302   -1.2508   -0.5477 C   0  0  0  0  0  0  0  0  0  0  0  0
    4.1315   -1.4661    0.9512 C   0  0  0  0  0  0  0  0  0  0  0  0
    3.3430   -0.6638    1.7028 N   0  0  0  0  0  0  0  0  0  0  0  0
    3.3659   -0.7999    3.0512 C   0  0  0  0  0  0  0  0  0  0  0  0
    2.5793    0.0255    3.8310 O   0  0  0  0  0  0  0  0  0  0  0  0
    1.7815    1.0547    3.2466 C   0  0  2  0  0  0  0  0  0  0  0  0
    1.4291    2.0682    4.3665 C   0  0  1  0  0  0  0  0  0  0  0  0
    0.6273    3.2385    3.7539 C   0  0  0  0  0  0  0  0  0  0  0  0
   -0.6822    2.6937    3.1480 C   0  0  1  0  0  0  0  0  0  0  0  0
   -0.3522    1.6639    2.0492 C   0  0  0  0  0  0  0  0  0  0  0  0
    0.4618    0.5015    2.6523 C   0  0  2  0  0  0  0  0  0  0  0  0
   -0.3627   -0.1771    3.7620 C   0  0  0  0  0  0  0  0  0  0  0  0
   -0.7346    0.8405    4.8729 C   0  0  2  0  0  0  0  0  0  0  0  0
   -1.5867    0.1605    5.9704 C   0  0  0  0  0  0  0  0  0  0  0  0
   -1.7964   -1.0702    5.8973 O   0  0  0  0  0  0  0  0  0  0  0  0
   -2.0421    0.8708    6.8946 O   0  0  0  0  0  0  0  0  0  0  0  0
   -1.5253    2.0263    4.2548 C   0  0  0  0  0  0  0  0  0  0  0  0
    0.5807    1.3948    5.4770 C   0  0  0  0  0  0  0  0  0  0  0  0
    4.1846   -1.7443    3.7060 C   0  0  0  0  0  0  0  0  0  0  0  0
    4.1799   -1.8503    5.2218 C   0  0  0  0  0  0  0  0  0  0  0  0
    5.0416   -2.7755    5.6466 F   0  0  0  0  0  0  0  0  0  0  0  0
    4.5265   -0.6803    5.7569 F   0  0  0  0  0  0  0  0  0  0  0  0
    2.9613   -2.1809    5.6470 F   0  0  0  0  0  0  0  0  0  0  0  0
    5.0130   -2.5696    2.9184 C   0  0  0  0  0  0  0  0  0  0  0  0
    4.9961   -2.4309    1.5194 C   0  0  0  0  0  0  0  0  0  0  0  0
    6.0283   -3.4277    0.5528 Cl  0  0  0  0  0  0  0  0  0  0  0  0
    4.6850   -1.9050   -1.1191 H   0  0  0  0  0  0  0  0  0  0  0  0
    4.2968   -0.2265   -0.8008 H   0  0  0  0  0  0  0  0  0  0  0  0
    3.0166   -1.4316   -0.8929 H   0  0  0  0  0  0  0  0  0  0  0  0
    2.3596    1.5789    2.4833 H   0  0  0  0  0  0  0  0  0  0  0  0
    2.3507    2.4544    4.8042 H   0  0  0  0  0  0  0  0  0  0  0  0
    0.4097    3.9864    4.5178 H   0  0  0  0  0  0  0  0  0  0  0  0
    1.2152    3.7439    2.9872 H   0  0  0  0  0  0  0  0  0  0  0  0
   -1.2476    3.5154    2.7102 H   0  0  0  0  0  0  0  0  0  0  0  0
   -1.2694    1.2905    1.5974 H   0  0  0  0  0  0  0  0  0  0  0  0
    0.2156    2.1400    1.2518 H   0  0  0  0  0  0  0  0  0  0  0  0
    0.6744   -0.2209    1.8631 H   0  0  0  0  0  0  0  0  0  0  0  0
   -1.2694   -0.5979    3.3433 H   0  0  0  0  0  0  0  0  0  0  0  0
    0.2073   -1.0077    4.1810 H   0  0  0  0  0  0  0  0  0  0  0  0
   -1.7681    2.7663    5.0190 H   0  0  0  0  0  0  0  0  0  0  0  0
   -2.4777    1.6937    3.8414 H   0  0  0  0  0  0  0  0  0  0  0  0
    1.1481    0.5920    5.9516 H   0  0  0  0  0  0  0  0  0  0  0  0
    0.3637    2.1197    6.2639 H   0  0  0  0  0  0  0  0  0  0  0  0
    5.6731   -3.2946    3.3714 H   0  0  0  0  0  0  0  0  0  0  0  0
  1  2  1  0
  1 27  1  0
  1 28  1  0
  1 29  1  0
  2 25  2  0
  2  3  1  0
  3  4  2  0
  4  5  1  0
  4 19  1  0
  5  6  1  0
  6 11  1  0
  6  7  1  0
  6 30  1  6
  7 18  1  0
  7  8  1  0
  7 31  1  1
  8  9  1  0
  8 32  1  0
  8 33  1  0
  9 17  1  0
  9 10  1  0
  9 34  1  6
 10 11  1  0
 10 35  1  0
 10 36  1  0
 11 12  1  0
 11 37  1  6
 12 13  1  0
 12 38  1  0
 12 39  1  0
 13 14  1  1
 13 17  1  0
 13 18  1  0
 14 15  2  0
 14 16  1  0
 17 40  1  0
 17 41  1  0
 18 42  1  0
 18 43  1  0
 19 20  1  0
 19 24  2  0
 20 21  1  0
 20 22  1  0
 20 23  1  0
 24 25  1  0
 24 44  1  0
 25 26  1  0
M  CHG  1  16  -1
M  END
>  <i_m_ct_stereo_status>  (314) 
1

>  <s_m_source_file>  (314) 
/var/tmp/pbs.5076255.sched01/tmpwmgilt76/96rd2vfdyj.sdf

>  <i_m_source_file_index>  (314) 
37

>  <i_lp_mmshare_version>  (314) 
48012

>  <i_f3d_flags>  (314) 
0

>  <s_epik_input>  (314) 
Q2xjMVtjSF1jKEMoRikoRilGKWMobmMxW0NIM10pT1tDQEhdKFtDQEhdKFtDSDJdMilbQ0gyXVtDQEBIXShbQ0gyXTMpW0NIMl00KVtDQEhdM1tDSDJdW0NAQF0yNEMoPU8pW09IXQ==

>  <s_epik_cmdline>  (314) 
J2VwaWtfcHl0aG9uJywgJy1waHQnLCAnMi4wJywgJy1waCcsICc3LjAnLCAnLXRuJywgJzgnLCAnLW1hJywgJzIwMCcsICctaW1hZScsICc8aW5maWxlLm1hZT4nLCAnLW9tYWUnLCAnPG91dGZpbGUubWFlPic=

>  <r_lp_tautomer_probability>  (314) 
1

>  <r_epik_Ionization_Penalty>  (314) 
0.00575512

>  <r_epik_Ionization_Penalty_Charging>  (314) 
0.00575494

>  <r_epik_Ionization_Penalty_Neutral>  (314) 
1.78582e-07

>  <r_epik_State_Penalty>  (314) 
0.00422412

>  <r_epik_Charging_Adjusted_Penalty>  (314) 
0.00997907

>  <i_epik_Tot_Q>  (314) 
-1

>  <i_epik_Tot_abs_Q>  (314) 
1

>  <s_lp_Force_Field>  (314) 
OPLS3e

>  <r_lp_Energy>  (314) 
28.0784

>  <b_lp_Chiralities_Consistent>  (314) 
1

>  <s_lp_Variant>  (314) 
83:0-1

>  <s_i_glide_gridfile>  (314) 
pfpi4k_grid

>  <i_i_glide_lignum>  (314) 
37

>  <i_i_glide_rotatable_bonds>  (314) 
4

>  <r_i_docking_score>  (314) 
-2.68773

>  <r_i_glide_ligand_efficiency>  (314) 
-0.103374

>  <r_i_glide_ligand_efficiency_sa>  (314) 
-0.306246

>  <r_i_glide_ligand_efficiency_ln>  (314) 
-0.631205

>  <r_i_glide_gscore>  (314) 
-2.68773

>  <r_i_glide_lipo>  (314) 
-0.175172

>  <r_i_glide_hbond>  (314) 
-0.274357

>  <r_i_glide_metal>  (314) 
-0

>  <r_i_glide_rewards>  (314) 
-0.792913

>  <r_i_glide_evdw>  (314) 
-18.6152

>  <r_i_glide_ecoul>  (314) 
-4.62572

>  <r_i_glide_erotb>  (314) 
0.257847

>  <r_i_glide_esite>  (314) 
-0.0785172

>  <r_i_glide_emodel>  (314) 
-30.0375

>  <r_i_glide_energy>  (314) 
-23.241

>  <r_i_glide_einternal>  (314) 
0.103378

>  <r_i_glide_intrahb_reward>  (314) 
-0

>  <i_i_glide_confnum>  (314) 
6

>  <i_i_glide_posenum>  (314) 
34

>  <r_i_glide_eff_state_penalty>  (314) 
0

>  <ligand_id>  (314) 
83

>  <original_smiles>  (314) 
Cc1nc(OC2C3CC4CC2CC(C(=O)O)(C4)C3)c(C(F)(F)F)cc1Cl

>  <smiles>  (314) 
[H]c1c(Cl)c(C([H])([H])[H])nc(OC2([H])C3([H])C([H])([H])C4([H])C([H])([H])C2([H])C([H])([H])C(C(=O)[O-])(C4([H])[H])C3([H])[H])c1C(F)(F)F

$$$$
84:0:0
     RDKit          3D

 56 59  0  0  1  0  0  0  0  0999 V2000
    0.3491   -9.3550    7.0416 C   0  0  0  0  0  0  0  0  0  0  0  0
    0.9606   -9.1255    5.8649 C   0  0  0  0  0  0  0  0  0  0  0  0
    0.2594   -9.1315    4.5268 C   0  0  0  0  0  0  0  0  0  0  0  0
    1.3231   -9.4866    3.4849 C   0  0  0  0  0  0  0  0  0  0  0  0
    2.5865   -9.7966    4.2984 C   0  0  1  0  0  0  0  0  0  0  0  0
    3.9040   -9.5840    3.5328 C   0  0  0  0  0  0  0  0  0  0  0  0
    4.6916  -10.6080    3.0924 C   0  0  0  0  0  0  0  0  0  0  0  0
    4.3787  -12.0863    3.3482 C   0  0  0  0  0  0  0  0  0  0  0  0
    5.1062  -12.6554    4.5700 C   0  0  0  0  0  0  0  0  0  0  0  0
    5.9863  -10.3328    2.3133 C   0  0  1  0  0  0  0  0  0  0  0  0
    6.3220  -11.3321    1.3624 O   0  0  0  0  0  0  0  0  0  0  0  0
    5.9343   -8.9804    1.5869 C   0  0  1  0  0  0  0  0  0  0  0  0
    4.9059   -9.0665    0.5924 O   0  0  0  0  0  0  0  0  0  0  0  0
    5.6543   -7.8035    2.5729 C   0  0  1  0  0  0  0  0  0  0  0  0
    6.8082   -7.7017    3.6363 C   0  0  0  0  0  0  0  0  0  0  0  0
    5.5299   -6.4964    1.6751 C   0  0  0  0  0  0  0  0  0  0  0  0
    6.8044   -5.8869    1.2581 N   0  0  0  0  0  0  0  0  0  0  0  0
    8.0820   -6.3024    1.1757 C   0  0  0  0  0  0  0  0  0  0  0  0
    8.8917   -5.3407    0.7762 N   0  0  0  0  0  0  0  0  0  0  0  0
    8.0047   -4.2787    0.4487 N   0  0  0  0  0  0  0  0  0  0  0  0
    6.7735   -4.6135    0.7148 N   0  0  0  0  0  0  0  0  0  0  0  0
    4.2689   -8.0866    3.3261 C   0  0  2  0  0  0  0  0  0  0  0  0
    4.1671   -7.3347    4.6854 C   0  0  0  0  0  0  0  0  0  0  0  0
    2.8147   -7.5048    5.3707 C   0  0  0  0  0  0  0  0  0  0  0  0
    2.4526   -8.9880    5.6046 C   0  0  1  0  0  0  0  0  0  0  0  0
    3.3148   -9.6059    6.7330 C   0  0  0  0  0  0  0  0  0  0  0  0
    0.9042   -9.4339    7.9587 H   0  0  0  0  0  0  0  0  0  0  0  0
   -0.7125   -9.5334    7.0926 H   0  0  0  0  0  0  0  0  0  0  0  0
   -0.5453   -9.8530    4.5118 H   0  0  0  0  0  0  0  0  0  0  0  0
   -0.1787   -8.1527    4.3373 H   0  0  0  0  0  0  0  0  0  0  0  0
    1.0287  -10.3330    2.8692 H   0  0  0  0  0  0  0  0  0  0  0  0
    1.4577   -8.6389    2.8221 H   0  0  0  0  0  0  0  0  0  0  0  0
    2.4996  -10.8294    4.6188 H   0  0  0  0  0  0  0  0  0  0  0  0
    3.3110  -12.2633    3.4353 H   0  0  0  0  0  0  0  0  0  0  0  0
    4.6312  -12.6918    2.4851 H   0  0  0  0  0  0  0  0  0  0  0  0
    4.8439  -13.7038    4.7099 H   0  0  0  0  0  0  0  0  0  0  0  0
    4.8283  -12.1257    5.4795 H   0  0  0  0  0  0  0  0  0  0  0  0
    6.1877  -12.5976    4.4526 H   0  0  0  0  0  0  0  0  0  0  0  0
    6.8129  -10.3334    3.0223 H   0  0  0  0  0  0  0  0  0  0  0  0
    5.5178  -11.6620    0.9501 H   0  0  0  0  0  0  0  0  0  0  0  0
    6.8914   -8.8262    1.0802 H   0  0  0  0  0  0  0  0  0  0  0  0
    4.6373   -9.9741    0.4920 H   0  0  0  0  0  0  0  0  0  0  0  0
    6.7069   -6.7518    4.1787 H   0  0  0  0  0  0  0  0  0  0  0  0
    7.7945   -7.7936    3.2537 H   0  0  0  0  0  0  0  0  0  0  0  0
    6.7135   -8.5312    4.3570 H   0  0  0  0  0  0  0  0  0  0  0  0
    4.9397   -6.6504    0.7537 H   0  0  0  0  0  0  0  0  0  0  0  0
    4.9129   -5.7443    2.1901 H   0  0  0  0  0  0  0  0  0  0  0  0
    8.4328   -7.2955    1.4494 H   0  0  0  0  0  0  0  0  0  0  0  0
    3.4621   -7.6922    2.6887 H   0  0  0  0  0  0  0  0  0  0  0  0
    4.9206   -7.6906    5.3844 H   0  0  0  0  0  0  0  0  0  0  0  0
    4.3625   -6.2737    4.5523 H   0  0  0  0  0  0  0  0  0  0  0  0
    2.7960   -6.9818    6.3234 H   0  0  0  0  0  0  0  0  0  0  0  0
    2.0545   -7.0303    4.7619 H   0  0  0  0  0  0  0  0  0  0  0  0
    4.3671   -9.6484    6.4449 H   0  0  0  0  0  0  0  0  0  0  0  0
    3.0106  -10.6344    6.9662 H   0  0  0  0  0  0  0  0  0  0  0  0
    3.2507   -9.0217    7.6556 H   0  0  0  0  0  0  0  0  0  0  0  0
  1  2  2  0
  1 27  1  0
  1 28  1  0
  2 25  1  0
  2  3  1  0
  3  4  1  0
  3 29  1  0
  3 30  1  0
  4  5  1  0
  4 31  1  0
  4 32  1  0
  5 25  1  0
  5  6  1  0
  5 33  1  1
  6 22  1  0
  6  7  2  0
  7  8  1  0
  7 10  1  0
  8  9  1  0
  8 34  1  0
  8 35  1  0
  9 36  1  0
  9 37  1  0
  9 38  1  0
 10 11  1  0
 10 12  1  0
 10 39  1  1
 11 40  1  0
 12 13  1  0
 12 14  1  0
 12 41  1  6
 13 42  1  0
 14 15  1  1
 14 16  1  0
 14 22  1  0
 15 43  1  0
 15 44  1  0
 15 45  1  0
 16 17  1  0
 16 46  1  0
 16 47  1  0
 17 21  1  0
 17 18  1  0
 18 19  2  0
 18 48  1  0
 19 20  1  0
 20 21  2  0
 22 23  1  0
 22 49  1  6
 23 24  1  0
 23 50  1  0
 23 51  1  0
 24 25  1  0
 24 52  1  0
 24 53  1  0
 25 26  1  1
 26 54  1  0
 26 55  1  0
 26 56  1  0
M  END
>  <i_m_ct_stereo_status>  (315) 
1

>  <s_m_source_file>  (315) 
/var/tmp/pbs.5076255.sched01/tmpwmgilt76/96rd2vfdyj.sdf

>  <i_m_source_file_index>  (315) 
38

>  <i_lp_mmshare_version>  (315) 
48012

>  <i_f3d_flags>  (315) 
0

>  <s_epik_input>  (315) 
W0NIMl09QzFbQ0gyXVtDSDJdW0NASF0oW0NAXTEyW0NIM10pQz0zW0NAQEhdKFtDSDJdW0NIMl0yKVtDQEBdKFtDSDNdKShbQ0BIXShbT0hdKVtDQEhdKFtPSF0pQzNbQ0gyXVtDSDNdKVtDSDJdbjRbY0hdbm5uNA==

>  <s_epik_cmdline>  (315) 
J2VwaWtfcHl0aG9uJywgJy1waHQnLCAnMi4wJywgJy1waCcsICc3LjAnLCAnLXRuJywgJzgnLCAnLW1hJywgJzIwMCcsICctaW1hZScsICc8aW5maWxlLm1hZT4nLCAnLW9tYWUnLCAnPG91dGZpbGUubWFlPic=

>  <r_lp_tautomer_probability>  (315) 
1

>  <r_epik_Ionization_Penalty>  (315) 
1.23661e-07

>  <r_epik_Ionization_Penalty_Charging>  (315) 
0

>  <r_epik_Ionization_Penalty_Neutral>  (315) 
1.23661e-07

>  <r_epik_State_Penalty>  (315) 
-0

>  <r_epik_Charging_Adjusted_Penalty>  (315) 
0

>  <i_epik_Tot_Q>  (315) 
0

>  <i_epik_Tot_abs_Q>  (315) 
0

>  <s_lp_Force_Field>  (315) 
OPLS3e

>  <r_lp_Energy>  (315) 
37.0966

>  <b_lp_Chiralities_Consistent>  (315) 
1

>  <s_lp_Variant>  (315) 
84:0-1

>  <s_i_glide_gridfile>  (315) 
pfpi4k_grid

>  <i_i_glide_lignum>  (315) 
38

>  <i_i_glide_rotatable_bonds>  (315) 
5

>  <r_i_docking_score>  (315) 
-3.43318

>  <r_i_glide_ligand_efficiency>  (315) 
-0.132045

>  <r_i_glide_ligand_efficiency_sa>  (315) 
-0.391184

>  <r_i_glide_ligand_efficiency_ln>  (315) 
-0.806271

>  <r_i_glide_gscore>  (315) 
-3.43318

>  <r_i_glide_lipo>  (315) 
-0.147176

>  <r_i_glide_hbond>  (315) 
0

>  <r_i_glide_metal>  (315) 
-0

>  <r_i_glide_rewards>  (315) 
-1.08674

>  <r_i_glide_evdw>  (315) 
-19.1633

>  <r_i_glide_ecoul>  (315) 
-9.76573

>  <r_i_glide_erotb>  (315) 
0.298137

>  <r_i_glide_esite>  (315) 
-0.0743752

>  <r_i_glide_emodel>  (315) 
-32.1886

>  <r_i_glide_energy>  (315) 
-28.929

>  <r_i_glide_einternal>  (315) 
4.78128

>  <r_i_glide_intrahb_reward>  (315) 
-0

>  <i_i_glide_confnum>  (315) 
2

>  <i_i_glide_posenum>  (315) 
29

>  <r_i_glide_eff_state_penalty>  (315) 
0

>  <ligand_id>  (315) 
84

>  <original_smiles>  (315) 
C=C1CCC2C3=C(CC)C(O)C(O)C(C)(Cn4cnnn4)C3CCC12C

>  <smiles>  (315) 
[H]OC1([H])C(C([H])([H])C([H])([H])[H])=C2C3([H])C([H])([H])C([H])([H])C(=C([H])[H])C3(C([H])([H])[H])C([H])([H])C([H])([H])C2([H])C(C([H])([H])[H])(C([H])([H])n2nnnc2[H])C1([H])O[H]

$$$$
84:0:1
     RDKit          3D

 56 59  0  0  1  0  0  0  0  0999 V2000
    0.1833   -8.6261    5.3840 C   0  0  0  0  0  0  0  0  0  0  0  0
    0.7702   -8.1617    4.2675 C   0  0  0  0  0  0  0  0  0  0  0  0
    0.8014   -8.9180    2.9530 C   0  0  0  0  0  0  0  0  0  0  0  0
    2.0509   -8.4061    2.2238 C   0  0  0  0  0  0  0  0  0  0  0  0
    2.7606   -7.4801    3.2227 C   0  0  1  0  0  0  0  0  0  0  0  0
    3.6664   -6.4113    2.5838 C   0  0  0  0  0  0  0  0  0  0  0  0
    5.0245   -6.4781    2.6192 C   0  0  0  0  0  0  0  0  0  0  0  0
    5.8286   -7.5786    3.3210 C   0  0  0  0  0  0  0  0  0  0  0  0
    6.3084   -7.1496    4.7142 C   0  0  0  0  0  0  0  0  0  0  0  0
    5.8753   -5.4067    1.9521 C   0  0  1  0  0  0  0  0  0  0  0  0
    7.1171   -5.8829    1.4728 O   0  0  0  0  0  0  0  0  0  0  0  0
    5.1501   -4.7459    0.7799 C   0  0  1  0  0  0  0  0  0  0  0  0
    4.9206   -5.7133   -0.2487 O   0  0  0  0  0  0  0  0  0  0  0  0
    3.7887   -4.1159    1.2193 C   0  0  1  0  0  0  0  0  0  0  0  0
    4.0475   -2.9667    2.2348 C   0  0  0  0  0  0  0  0  0  0  0  0
    3.0613   -3.5089   -0.0434 C   0  0  0  0  0  0  0  0  0  0  0  0
    3.7655   -2.4975   -0.8495 N   0  0  0  0  0  0  0  0  0  0  0  0
    3.3927   -1.8566   -1.9673 C   0  0  0  0  0  0  0  0  0  0  0  0
    4.3216   -1.0579   -2.4503 N   0  0  0  0  0  0  0  0  0  0  0  0
    5.3528   -1.1829   -1.5245 N   0  0  0  0  0  0  0  0  0  0  0  0
    5.0315   -2.0625   -0.5756 N   0  0  0  0  0  0  0  0  0  0  0  0
    2.8938   -5.2415    1.9087 C   0  0  2  0  0  0  0  0  0  0  0  0
    1.8284   -4.6980    2.9124 C   0  0  0  0  0  0  0  0  0  0  0  0
    0.8942   -5.7895    3.4565 C   0  0  0  0  0  0  0  0  0  0  0  0
    1.6628   -6.9303    4.1447 C   0  0  1  0  0  0  0  0  0  0  0  0
    2.2463   -6.4724    5.5073 C   0  0  0  0  0  0  0  0  0  0  0  0
    0.2561   -8.1047    6.3222 H   0  0  0  0  0  0  0  0  0  0  0  0
   -0.3545   -9.5584    5.3690 H   0  0  0  0  0  0  0  0  0  0  0  0
    0.8324   -9.9978    3.1255 H   0  0  0  0  0  0  0  0  0  0  0  0
   -0.0995   -8.6935    2.3877 H   0  0  0  0  0  0  0  0  0  0  0  0
    2.7018   -9.2213    1.9051 H   0  0  0  0  0  0  0  0  0  0  0  0
    1.7463   -7.8756    1.3179 H   0  0  0  0  0  0  0  0  0  0  0  0
    3.3465   -8.1217    3.8735 H   0  0  0  0  0  0  0  0  0  0  0  0
    5.2782   -8.5147    3.3873 H   0  0  0  0  0  0  0  0  0  0  0  0
    6.6912   -7.8586    2.7147 H   0  0  0  0  0  0  0  0  0  0  0  0
    6.8621   -7.9608    5.1855 H   0  0  0  0  0  0  0  0  0  0  0  0
    5.4676   -6.9003    5.3632 H   0  0  0  0  0  0  0  0  0  0  0  0
    6.9692   -6.2814    4.6670 H   0  0  0  0  0  0  0  0  0  0  0  0
    6.1189   -4.6597    2.6961 H   0  0  0  0  0  0  0  0  0  0  0  0
    6.9287   -6.5422    0.8152 H   0  0  0  0  0  0  0  0  0  0  0  0
    5.8566   -3.9941    0.4025 H   0  0  0  0  0  0  0  0  0  0  0  0
    4.4728   -5.2846   -0.9696 H   0  0  0  0  0  0  0  0  0  0  0  0
    3.1361   -2.3924    2.4342 H   0  0  0  0  0  0  0  0  0  0  0  0
    4.7896   -2.2475    1.8958 H   0  0  0  0  0  0  0  0  0  0  0  0
    4.4146   -3.3388    3.1867 H   0  0  0  0  0  0  0  0  0  0  0  0
    2.7864   -4.3121   -0.7209 H   0  0  0  0  0  0  0  0  0  0  0  0
    2.0973   -3.0922    0.2497 H   0  0  0  0  0  0  0  0  0  0  0  0
    2.4251   -1.9794   -2.4456 H   0  0  0  0  0  0  0  0  0  0  0  0
    2.3357   -5.7240    1.1086 H   0  0  0  0  0  0  0  0  0  0  0  0
    2.3149   -4.2263    3.7667 H   0  0  0  0  0  0  0  0  0  0  0  0
    1.2219   -3.9076    2.4663 H   0  0  0  0  0  0  0  0  0  0  0  0
    0.1788   -5.3616    4.1598 H   0  0  0  0  0  0  0  0  0  0  0  0
    0.2995   -6.1906    2.6339 H   0  0  0  0  0  0  0  0  0  0  0  0
    3.0060   -5.7077    5.3701 H   0  0  0  0  0  0  0  0  0  0  0  0
    2.7228   -7.2952    6.0414 H   0  0  0  0  0  0  0  0  0  0  0  0
    1.4756   -6.0577    6.1565 H   0  0  0  0  0  0  0  0  0  0  0  0
  1  2  2  0
  1 27  1  0
  1 28  1  0
  2 25  1  0
  2  3  1  0
  3  4  1  0
  3 29  1  0
  3 30  1  0
  4  5  1  0
  4 31  1  0
  4 32  1  0
  5 25  1  0
  5  6  1  0
  5 33  1  1
  6 22  1  0
  6  7  2  0
  7  8  1  0
  7 10  1  0
  8  9  1  0
  8 34  1  0
  8 35  1  0
  9 36  1  0
  9 37  1  0
  9 38  1  0
 10 11  1  0
 10 12  1  0
 10 39  1  1
 11 40  1  0
 12 13  1  0
 12 14  1  0
 12 41  1  6
 13 42  1  0
 14 15  1  1
 14 16  1  0
 14 22  1  0
 15 43  1  0
 15 44  1  0
 15 45  1  0
 16 17  1  0
 16 46  1  0
 16 47  1  0
 17 21  1  0
 17 18  1  0
 18 19  2  0
 18 48  1  0
 19 20  1  0
 20 21  2  0
 22 23  1  0
 22 49  1  6
 23 24  1  0
 23 50  1  0
 23 51  1  0
 24 25  1  0
 24 52  1  0
 24 53  1  0
 25 26  1  1
 26 54  1  0
 26 55  1  0
 26 56  1  0
M  END
>  <i_m_ct_stereo_status>  (316) 
1

>  <s_m_source_file>  (316) 
/var/tmp/pbs.5076255.sched01/tmpwmgilt76/96rd2vfdyj.sdf

>  <i_m_source_file_index>  (316) 
38

>  <i_lp_mmshare_version>  (316) 
48012

>  <i_f3d_flags>  (316) 
0

>  <s_epik_input>  (316) 
W0NIMl09QzFbQ0gyXVtDSDJdW0NASF0oW0NAXTEyW0NIM10pQz0zW0NAQEhdKFtDSDJdW0NIMl0yKVtDQEBdKFtDSDNdKShbQ0BIXShbT0hdKVtDQEhdKFtPSF0pQzNbQ0gyXVtDSDNdKVtDSDJdbjRbY0hdbm5uNA==

>  <s_epik_cmdline>  (316) 
J2VwaWtfcHl0aG9uJywgJy1waHQnLCAnMi4wJywgJy1waCcsICc3LjAnLCAnLXRuJywgJzgnLCAnLW1hJywgJzIwMCcsICctaW1hZScsICc8aW5maWxlLm1hZT4nLCAnLW9tYWUnLCAnPG91dGZpbGUubWFlPic=

>  <r_lp_tautomer_probability>  (316) 
1

>  <r_epik_Ionization_Penalty>  (316) 
1.23661e-07

>  <r_epik_Ionization_Penalty_Charging>  (316) 
0

>  <r_epik_Ionization_Penalty_Neutral>  (316) 
1.23661e-07

>  <r_epik_State_Penalty>  (316) 
-0

>  <r_epik_Charging_Adjusted_Penalty>  (316) 
0

>  <i_epik_Tot_Q>  (316) 
0

>  <i_epik_Tot_abs_Q>  (316) 
0

>  <s_lp_Force_Field>  (316) 
OPLS3e

>  <r_lp_Energy>  (316) 
37.0966

>  <b_lp_Chiralities_Consistent>  (316) 
1

>  <s_lp_Variant>  (316) 
84:0-1

>  <s_i_glide_gridfile>  (316) 
pfpi4k_grid

>  <i_i_glide_lignum>  (316) 
38

>  <i_i_glide_rotatable_bonds>  (316) 
5

>  <r_i_docking_score>  (316) 
-2.75845

>  <r_i_glide_ligand_efficiency>  (316) 
-0.106094

>  <r_i_glide_ligand_efficiency_sa>  (316) 
-0.314304

>  <r_i_glide_ligand_efficiency_ln>  (316) 
-0.647814

>  <r_i_glide_gscore>  (316) 
-2.75845

>  <r_i_glide_lipo>  (316) 
-0.117059

>  <r_i_glide_hbond>  (316) 
0

>  <r_i_glide_metal>  (316) 
-0

>  <r_i_glide_rewards>  (316) 
-0.964924

>  <r_i_glide_evdw>  (316) 
-22.9631

>  <r_i_glide_ecoul>  (316) 
-4.18312

>  <r_i_glide_erotb>  (316) 
0.298137

>  <r_i_glide_esite>  (316) 
-0.198983

>  <r_i_glide_emodel>  (316) 
-31.108

>  <r_i_glide_energy>  (316) 
-27.1462

>  <r_i_glide_einternal>  (316) 
2.21522

>  <r_i_glide_intrahb_reward>  (316) 
-0

>  <i_i_glide_confnum>  (316) 
2

>  <i_i_glide_posenum>  (316) 
38

>  <r_i_glide_eff_state_penalty>  (316) 
0

>  <ligand_id>  (316) 
84

>  <original_smiles>  (316) 
C=C1CCC2C3=C(CC)C(O)C(O)C(C)(Cn4cnnn4)C3CCC12C

>  <smiles>  (316) 
[H]OC1([H])C(C([H])([H])C([H])([H])[H])=C2C3([H])C([H])([H])C([H])([H])C(=C([H])[H])C3(C([H])([H])[H])C([H])([H])C([H])([H])C2([H])C(C([H])([H])[H])(C([H])([H])n2nnnc2[H])C1([H])O[H]

$$$$
84:0:2
     RDKit          3D

 56 59  0  0  1  0  0  0  0  0999 V2000
    1.0175  -10.5026    5.2663 C   0  0  0  0  0  0  0  0  0  0  0  0
    1.0253   -9.4089    4.4849 C   0  0  0  0  0  0  0  0  0  0  0  0
   -0.0084   -9.1432    3.4186 C   0  0  0  0  0  0  0  0  0  0  0  0
    0.7003   -8.2343    2.4006 C   0  0  0  0  0  0  0  0  0  0  0  0
    2.1729   -8.1531    2.8593 C   0  0  1  0  0  0  0  0  0  0  0  0
    2.9211   -6.8923    2.3922 C   0  0  0  0  0  0  0  0  0  0  0  0
    3.8791   -6.9110    1.4194 C   0  0  0  0  0  0  0  0  0  0  0  0
    4.3512   -8.1856    0.7072 C   0  0  0  0  0  0  0  0  0  0  0  0
    5.6208   -8.7797    1.3328 C   0  0  0  0  0  0  0  0  0  0  0  0
    4.5850   -5.6199    0.9989 C   0  0  1  0  0  0  0  0  0  0  0  0
    4.9959   -5.5951   -0.3549 O   0  0  0  0  0  0  0  0  0  0  0  0
    3.7132   -4.3805    1.2340 C   0  0  1  0  0  0  0  0  0  0  0  0
    2.5994   -4.4644    0.3554 O   0  0  0  0  0  0  0  0  0  0  0  0
    3.2402   -4.2734    2.7088 C   0  0  1  0  0  0  0  0  0  0  0  0
    4.5005   -4.0163    3.5818 C   0  0  0  0  0  0  0  0  0  0  0  0
    2.2654   -3.0524    2.8477 C   0  0  0  0  0  0  0  0  0  0  0  0
    2.8630   -1.7498    2.5651 N   0  0  0  0  0  0  0  0  0  0  0  0
    2.9829   -1.0522    1.4273 C   0  0  0  0  0  0  0  0  0  0  0  0
    3.5904    0.1023    1.6326 N   0  0  0  0  0  0  0  0  0  0  0  0
    3.8366    0.1029    2.9939 N   0  0  0  0  0  0  0  0  0  0  0  0
    3.4049   -0.9923    3.5508 N   0  0  0  0  0  0  0  0  0  0  0  0
    2.5100   -5.6065    3.1452 C   0  0  2  0  0  0  0  0  0  0  0  0
    2.5399   -5.8612    4.6792 C   0  0  0  0  0  0  0  0  0  0  0  0
    1.7070   -7.0822    5.1037 C   0  0  0  0  0  0  0  0  0  0  0  0
    2.1360   -8.3769    4.3792 C   0  0  1  0  0  0  0  0  0  0  0  0
    3.4943   -8.8906    4.9074 C   0  0  0  0  0  0  0  0  0  0  0  0
    1.8146  -10.7107    5.9668 H   0  0  0  0  0  0  0  0  0  0  0  0
    0.2112  -11.2192    5.1994 H   0  0  0  0  0  0  0  0  0  0  0  0
   -0.3597  -10.0760    2.9762 H   0  0  0  0  0  0  0  0  0  0  0  0
   -0.8653   -8.6413    3.8681 H   0  0  0  0  0  0  0  0  0  0  0  0
    0.6441   -8.6253    1.3875 H   0  0  0  0  0  0  0  0  0  0  0  0
    0.2221   -7.2553    2.3952 H   0  0  0  0  0  0  0  0  0  0  0  0
    2.6574   -9.0488    2.4834 H   0  0  0  0  0  0  0  0  0  0  0  0
    3.5809   -8.9548    0.6676 H   0  0  0  0  0  0  0  0  0  0  0  0
    4.5421   -7.9764   -0.3431 H   0  0  0  0  0  0  0  0  0  0  0  0
    5.9120   -9.6894    0.8070 H   0  0  0  0  0  0  0  0  0  0  0  0
    5.4620   -9.0486    2.3780 H   0  0  0  0  0  0  0  0  0  0  0  0
    6.4596   -8.0842    1.2825 H   0  0  0  0  0  0  0  0  0  0  0  0
    5.5023   -5.5569    1.5811 H   0  0  0  0  0  0  0  0  0  0  0  0
    4.2497   -5.7902   -0.9068 H   0  0  0  0  0  0  0  0  0  0  0  0
    4.2991   -3.5019    0.9576 H   0  0  0  0  0  0  0  0  0  0  0  0
    2.9251   -4.4286   -0.5338 H   0  0  0  0  0  0  0  0  0  0  0  0
    4.2285   -3.7459    4.6031 H   0  0  0  0  0  0  0  0  0  0  0  0
    5.1139   -3.2031    3.1877 H   0  0  0  0  0  0  0  0  0  0  0  0
    5.1414   -4.8978    3.6386 H   0  0  0  0  0  0  0  0  0  0  0  0
    1.4154   -3.1613    2.1742 H   0  0  0  0  0  0  0  0  0  0  0  0
    1.8275   -3.0268    3.8457 H   0  0  0  0  0  0  0  0  0  0  0  0
    2.6214   -1.3794    0.4596 H   0  0  0  0  0  0  0  0  0  0  0  0
    1.4626   -5.4666    2.8810 H   0  0  0  0  0  0  0  0  0  0  0  0
    3.5637   -6.0278    5.0166 H   0  0  0  0  0  0  0  0  0  0  0  0
    2.1825   -4.9792    5.2124 H   0  0  0  0  0  0  0  0  0  0  0  0
    1.7800   -7.2324    6.1829 H   0  0  0  0  0  0  0  0  0  0  0  0
    0.6554   -6.8711    4.9042 H   0  0  0  0  0  0  0  0  0  0  0  0
    4.2993   -8.1995    4.6692 H   0  0  0  0  0  0  0  0  0  0  0  0
    3.7640   -9.8482    4.4635 H   0  0  0  0  0  0  0  0  0  0  0  0
    3.4880   -9.0235    5.9884 H   0  0  0  0  0  0  0  0  0  0  0  0
  1  2  2  0
  1 27  1  0
  1 28  1  0
  2 25  1  0
  2  3  1  0
  3  4  1  0
  3 29  1  0
  3 30  1  0
  4  5  1  0
  4 31  1  0
  4 32  1  0
  5 25  1  0
  5  6  1  0
  5 33  1  6
  6 22  1  0
  6  7  2  0
  7  8  1  0
  7 10  1  0
  8  9  1  0
  8 34  1  0
  8 35  1  0
  9 36  1  0
  9 37  1  0
  9 38  1  0
 10 11  1  0
 10 12  1  0
 10 39  1  1
 11 40  1  0
 12 13  1  0
 12 14  1  0
 12 41  1  6
 13 42  1  0
 14 15  1  1
 14 16  1  0
 14 22  1  0
 15 43  1  0
 15 44  1  0
 15 45  1  0
 16 17  1  0
 16 46  1  0
 16 47  1  0
 17 21  1  0
 17 18  1  0
 18 19  2  0
 18 48  1  0
 19 20  1  0
 20 21  2  0
 22 23  1  0
 22 49  1  6
 23 24  1  0
 23 50  1  0
 23 51  1  0
 24 25  1  0
 24 52  1  0
 24 53  1  0
 25 26  1  1
 26 54  1  0
 26 55  1  0
 26 56  1  0
M  END
>  <i_m_ct_stereo_status>  (317) 
1

>  <s_m_source_file>  (317) 
/var/tmp/pbs.5076255.sched01/tmpwmgilt76/96rd2vfdyj.sdf

>  <i_m_source_file_index>  (317) 
38

>  <i_lp_mmshare_version>  (317) 
48012

>  <i_f3d_flags>  (317) 
0

>  <s_epik_input>  (317) 
W0NIMl09QzFbQ0gyXVtDSDJdW0NASF0oW0NAXTEyW0NIM10pQz0zW0NAQEhdKFtDSDJdW0NIMl0yKVtDQEBdKFtDSDNdKShbQ0BIXShbT0hdKVtDQEhdKFtPSF0pQzNbQ0gyXVtDSDNdKVtDSDJdbjRbY0hdbm5uNA==

>  <s_epik_cmdline>  (317) 
J2VwaWtfcHl0aG9uJywgJy1waHQnLCAnMi4wJywgJy1waCcsICc3LjAnLCAnLXRuJywgJzgnLCAnLW1hJywgJzIwMCcsICctaW1hZScsICc8aW5maWxlLm1hZT4nLCAnLW9tYWUnLCAnPG91dGZpbGUubWFlPic=

>  <r_lp_tautomer_probability>  (317) 
1

>  <r_epik_Ionization_Penalty>  (317) 
1.23661e-07

>  <r_epik_Ionization_Penalty_Charging>  (317) 
0

>  <r_epik_Ionization_Penalty_Neutral>  (317) 
1.23661e-07

>  <r_epik_State_Penalty>  (317) 
-0

>  <r_epik_Charging_Adjusted_Penalty>  (317) 
0

>  <i_epik_Tot_Q>  (317) 
0

>  <i_epik_Tot_abs_Q>  (317) 
0

>  <s_lp_Force_Field>  (317) 
OPLS3e

>  <r_lp_Energy>  (317) 
37.0966

>  <b_lp_Chiralities_Consistent>  (317) 
1

>  <s_lp_Variant>  (317) 
84:0-1

>  <s_i_glide_gridfile>  (317) 
pfpi4k_grid

>  <i_i_glide_lignum>  (317) 
38

>  <i_i_glide_rotatable_bonds>  (317) 
5

>  <r_i_docking_score>  (317) 
-2.74197

>  <r_i_glide_ligand_efficiency>  (317) 
-0.10546

>  <r_i_glide_ligand_efficiency_sa>  (317) 
-0.312425

>  <r_i_glide_ligand_efficiency_ln>  (317) 
-0.643942

>  <r_i_glide_gscore>  (317) 
-2.74197

>  <r_i_glide_lipo>  (317) 
-0.190658

>  <r_i_glide_hbond>  (317) 
0

>  <r_i_glide_metal>  (317) 
-0

>  <r_i_glide_rewards>  (317) 
-0.964924

>  <r_i_glide_evdw>  (317) 
-20.7912

>  <r_i_glide_ecoul>  (317) 
-5.30978

>  <r_i_glide_erotb>  (317) 
0.298137

>  <r_i_glide_esite>  (317) 
-0.0484942

>  <r_i_glide_emodel>  (317) 
-31.4132

>  <r_i_glide_energy>  (317) 
-26.101

>  <r_i_glide_einternal>  (317) 
0.772621

>  <r_i_glide_intrahb_reward>  (317) 
-0

>  <i_i_glide_confnum>  (317) 
2

>  <i_i_glide_posenum>  (317) 
2

>  <r_i_glide_eff_state_penalty>  (317) 
0

>  <ligand_id>  (317) 
84

>  <original_smiles>  (317) 
C=C1CCC2C3=C(CC)C(O)C(O)C(C)(Cn4cnnn4)C3CCC12C

>  <smiles>  (317) 
[H]OC1([H])C(C([H])([H])C([H])([H])[H])=C2C3([H])C([H])([H])C([H])([H])C(=C([H])[H])C3(C([H])([H])[H])C([H])([H])C([H])([H])C2([H])C(C([H])([H])[H])(C([H])([H])n2nnnc2[H])C1([H])O[H]

$$$$
85:0:0
     RDKit          3D

 27 29  0  0  1  0  0  0  0  0999 V2000
    2.7317   -3.2254   -0.9242 C   0  0  0  0  0  0  0  0  0  0  0  0
    3.5764   -4.2308   -0.2074 C   0  0  0  0  0  0  0  0  0  0  0  0
    4.9011   -4.1243   -0.2522 N   0  0  0  0  0  0  0  0  0  0  0  0
    5.3922   -5.1722    0.4782 N   0  0  0  0  0  0  0  0  0  0  0  0
    6.8276   -5.3390    0.6097 C   0  0  0  0  0  0  0  0  0  0  0  0
    4.3906   -5.9672    1.0118 C   0  0  0  0  0  0  0  0  0  0  0  0
    4.4768   -7.0737    1.7866 N   0  0  0  0  0  0  0  0  0  0  0  0
    3.2610   -7.5649    2.1113 C   0  0  0  0  0  0  0  0  0  0  0  0
    2.0334   -6.9916    1.6780 C   0  0  0  0  0  0  0  0  0  0  0  0
    0.7333   -7.5798    2.0604 C   0  0  0  0  0  0  0  0  0  0  0  0
   -0.4038   -6.8835    2.0660 N   0  0  0  0  0  0  0  0  0  0  0  0
   -1.3658   -7.7699    2.4990 N   0  0  0  0  0  0  0  0  0  0  0  0
   -0.8506   -8.9248    2.7444 N   0  0  0  0  0  0  0  0  0  0  0  0
    0.4764   -8.8345    2.4824 N   0  0  0  0  0  0  0  0  0  0  0  0
    1.3008  -10.0232    2.6422 C   0  0  0  0  0  0  0  0  0  0  0  0
    2.0009   -5.8668    0.8911 N   0  0  0  0  0  0  0  0  0  0  0  0
    3.2016   -5.3569    0.5636 C   0  0  0  0  0  0  0  0  0  0  0  0
    2.1051   -2.6869   -0.2169 H   0  0  0  0  0  0  0  0  0  0  0  0
    2.0962   -3.7053   -1.6688 H   0  0  0  0  0  0  0  0  0  0  0  0
    3.3448   -2.4871   -1.4381 H   0  0  0  0  0  0  0  0  0  0  0  0
    7.0860   -5.4374    1.6635 H   0  0  0  0  0  0  0  0  0  0  0  0
    7.3594   -4.4835    0.1886 H   0  0  0  0  0  0  0  0  0  0  0  0
    7.1408   -6.2463    0.0933 H   0  0  0  0  0  0  0  0  0  0  0  0
    3.3160   -8.4222    2.7599 H   0  0  0  0  0  0  0  0  0  0  0  0
    2.0277   -9.8942    3.4448 H   0  0  0  0  0  0  0  0  0  0  0  0
    1.8023  -10.2554    1.6969 H   0  0  0  0  0  0  0  0  0  0  0  0
    0.6776  -10.8753    2.9294 H   0  0  0  0  0  0  0  0  0  0  0  0
  1  2  1  0
  1 18  1  0
  1 19  1  0
  1 20  1  0
  2 17  1  0
  2  3  2  0
  3  4  1  0
  4  5  1  0
  4  6  1  0
  5 21  1  0
  5 22  1  0
  5 23  1  0
  6 17  2  0
  6  7  1  0
  7  8  2  0
  8  9  1  0
  8 24  1  0
  9 10  1  0
  9 16  2  0
 10 14  1  0
 10 11  2  0
 11 12  1  0
 12 13  2  0
 13 14  1  0
 14 15  1  0
 15 25  1  0
 15 26  1  0
 15 27  1  0
 16 17  1  0
M  END
>  <i_m_ct_stereo_status>  (318) 
1

>  <s_m_source_file>  (318) 
/var/tmp/pbs.5076255.sched01/tmpwmgilt76/96rd2vfdyj.sdf

>  <i_m_source_file_index>  (318) 
39

>  <i_lp_mmshare_version>  (318) 
48012

>  <i_f3d_flags>  (318) 
0

>  <s_epik_input>  (318) 
W0NIM11uMW5jKFtDSDNdKWMoYzEyKW5jKFtjSF1uMiktYzNubm5uM1tDSDNd

>  <s_epik_cmdline>  (318) 
J2VwaWtfcHl0aG9uJywgJy1waHQnLCAnMi4wJywgJy1waCcsICc3LjAnLCAnLXRuJywgJzgnLCAnLW1hJywgJzIwMCcsICctaW1hZScsICc8aW5maWxlLm1hZT4nLCAnLW9tYWUnLCAnPG91dGZpbGUubWFlPic=

>  <r_lp_tautomer_probability>  (318) 
1

>  <r_epik_Ionization_Penalty>  (318) 
8.38626e-08

>  <r_epik_Ionization_Penalty_Charging>  (318) 
0

>  <r_epik_Ionization_Penalty_Neutral>  (318) 
8.38626e-08

>  <r_epik_State_Penalty>  (318) 
-0

>  <r_epik_Charging_Adjusted_Penalty>  (318) 
0

>  <i_epik_Tot_Q>  (318) 
0

>  <i_epik_Tot_abs_Q>  (318) 
0

>  <s_lp_Force_Field>  (318) 
OPLS3e

>  <r_lp_Energy>  (318) 
20.9217

>  <b_lp_Chiralities_Consistent>  (318) 
1

>  <s_lp_Variant>  (318) 
85:0-1

>  <s_i_glide_gridfile>  (318) 
pfpi4k_grid

>  <i_i_glide_lignum>  (318) 
39

>  <i_i_glide_rotatable_bonds>  (318) 
1

>  <r_i_docking_score>  (318) 
-4.0988

>  <r_i_glide_ligand_efficiency>  (318) 
-0.241106

>  <r_i_glide_ligand_efficiency_sa>  (318) 
-0.619951

>  <r_i_glide_ligand_efficiency_ln>  (318) 
-1.06929

>  <r_i_glide_gscore>  (318) 
-4.0988

>  <r_i_glide_lipo>  (318) 
-0.243576

>  <r_i_glide_hbond>  (318) 
-0.00829046

>  <r_i_glide_metal>  (318) 
-0

>  <r_i_glide_rewards>  (318) 
-2.0787

>  <r_i_glide_evdw>  (318) 
-23.1577

>  <r_i_glide_ecoul>  (318) 
-4.62254

>  <r_i_glide_erotb>  (318) 
0.322248

>  <r_i_glide_esite>  (318) 
-0.239219

>  <r_i_glide_emodel>  (318) 
-34.0855

>  <r_i_glide_energy>  (318) 
-27.7802

>  <r_i_glide_einternal>  (318) 
2.93907

>  <r_i_glide_intrahb_reward>  (318) 
-0

>  <i_i_glide_confnum>  (318) 
3

>  <i_i_glide_posenum>  (318) 
21

>  <r_i_glide_eff_state_penalty>  (318) 
0

>  <ligand_id>  (318) 
85

>  <original_smiles>  (318) 
Cc1nn(C)c2ncc(-c3nnnn3C)nc12

>  <smiles>  (318) 
[H]c1nc2c(nc1-c1nnnn1C([H])([H])[H])c(C([H])([H])[H])nn2C([H])([H])[H]

$$$$
85:0:1
     RDKit          3D

 27 29  0  0  1  0  0  0  0  0999 V2000
    3.8843   -1.1637   -1.5536 C   0  0  0  0  0  0  0  0  0  0  0  0
    4.9051   -2.1343   -1.0337 C   0  0  0  0  0  0  0  0  0  0  0  0
    6.2029   -1.8509   -1.1434 N   0  0  0  0  0  0  0  0  0  0  0  0
    6.8713   -2.8982   -0.5801 N   0  0  0  0  0  0  0  0  0  0  0  0
    8.3235   -2.8871   -0.5419 C   0  0  0  0  0  0  0  0  0  0  0  0
    6.0211   -3.8783   -0.1099 C   0  0  0  0  0  0  0  0  0  0  0  0
    6.3007   -5.0534    0.4899 N   0  0  0  0  0  0  0  0  0  0  0  0
    5.1910   -5.7551    0.7928 C   0  0  0  0  0  0  0  0  0  0  0  0
    3.8641   -5.3021    0.5243 C   0  0  0  0  0  0  0  0  0  0  0  0
    2.6790   -6.1127    0.8965 C   0  0  0  0  0  0  0  0  0  0  0  0
    1.4399   -5.8560    0.4711 N   0  0  0  0  0  0  0  0  0  0  0  0
    0.6389   -6.8244    1.0310 N   0  0  0  0  0  0  0  0  0  0  0  0
    1.3496   -7.6384    1.7436 N   0  0  0  0  0  0  0  0  0  0  0  0
    2.6363   -7.2207    1.6720 N   0  0  0  0  0  0  0  0  0  0  0  0
    3.6457   -7.9854    2.3821 C   0  0  0  0  0  0  0  0  0  0  0  0
    3.6365   -4.0909   -0.0728 N   0  0  0  0  0  0  0  0  0  0  0  0
    4.7319   -3.3857   -0.3995 C   0  0  0  0  0  0  0  0  0  0  0  0
    3.2231   -0.8308   -0.7551 H   0  0  0  0  0  0  0  0  0  0  0  0
    3.2682   -1.6184   -2.3270 H   0  0  0  0  0  0  0  0  0  0  0  0
    4.3619   -0.2810   -1.9774 H   0  0  0  0  0  0  0  0  0  0  0  0
    8.6586   -3.0938    0.4746 H   0  0  0  0  0  0  0  0  0  0  0  0
    8.7185   -1.9195   -0.8528 H   0  0  0  0  0  0  0  0  0  0  0  0
    8.7110   -3.6597   -1.2062 H   0  0  0  0  0  0  0  0  0  0  0  0
    5.4282   -6.7006    1.2510 H   0  0  0  0  0  0  0  0  0  0  0  0
    4.1727   -7.3389    3.0857 H   0  0  0  0  0  0  0  0  0  0  0  0
    4.3416   -8.4464    1.6782 H   0  0  0  0  0  0  0  0  0  0  0  0
    3.1821   -8.7992    2.9430 H   0  0  0  0  0  0  0  0  0  0  0  0
  1  2  1  0
  1 18  1  0
  1 19  1  0
  1 20  1  0
  2 17  1  0
  2  3  2  0
  3  4  1  0
  4  5  1  0
  4  6  1  0
  5 21  1  0
  5 22  1  0
  5 23  1  0
  6 17  2  0
  6  7  1  0
  7  8  2  0
  8  9  1  0
  8 24  1  0
  9 10  1  0
  9 16  2  0
 10 14  1  0
 10 11  2  0
 11 12  1  0
 12 13  2  0
 13 14  1  0
 14 15  1  0
 15 25  1  0
 15 26  1  0
 15 27  1  0
 16 17  1  0
M  END
>  <i_m_ct_stereo_status>  (319) 
1

>  <s_m_source_file>  (319) 
/var/tmp/pbs.5076255.sched01/tmpwmgilt76/96rd2vfdyj.sdf

>  <i_m_source_file_index>  (319) 
39

>  <i_lp_mmshare_version>  (319) 
48012

>  <i_f3d_flags>  (319) 
0

>  <s_epik_input>  (319) 
W0NIM11uMW5jKFtDSDNdKWMoYzEyKW5jKFtjSF1uMiktYzNubm5uM1tDSDNd

>  <s_epik_cmdline>  (319) 
J2VwaWtfcHl0aG9uJywgJy1waHQnLCAnMi4wJywgJy1waCcsICc3LjAnLCAnLXRuJywgJzgnLCAnLW1hJywgJzIwMCcsICctaW1hZScsICc8aW5maWxlLm1hZT4nLCAnLW9tYWUnLCAnPG91dGZpbGUubWFlPic=

>  <r_lp_tautomer_probability>  (319) 
1

>  <r_epik_Ionization_Penalty>  (319) 
8.38626e-08

>  <r_epik_Ionization_Penalty_Charging>  (319) 
0

>  <r_epik_Ionization_Penalty_Neutral>  (319) 
8.38626e-08

>  <r_epik_State_Penalty>  (319) 
-0

>  <r_epik_Charging_Adjusted_Penalty>  (319) 
0

>  <i_epik_Tot_Q>  (319) 
0

>  <i_epik_Tot_abs_Q>  (319) 
0

>  <s_lp_Force_Field>  (319) 
OPLS3e

>  <r_lp_Energy>  (319) 
20.9217

>  <b_lp_Chiralities_Consistent>  (319) 
1

>  <s_lp_Variant>  (319) 
85:0-1

>  <s_i_glide_gridfile>  (319) 
pfpi4k_grid

>  <i_i_glide_lignum>  (319) 
39

>  <i_i_glide_rotatable_bonds>  (319) 
1

>  <r_i_docking_score>  (319) 
-3.92187

>  <r_i_glide_ligand_efficiency>  (319) 
-0.230698

>  <r_i_glide_ligand_efficiency_sa>  (319) 
-0.59319

>  <r_i_glide_ligand_efficiency_ln>  (319) 
-1.02313

>  <r_i_glide_gscore>  (319) 
-3.92187

>  <r_i_glide_lipo>  (319) 
-0.154935

>  <r_i_glide_hbond>  (319) 
-0.136495

>  <r_i_glide_metal>  (319) 
-0

>  <r_i_glide_rewards>  (319) 
-1.95588

>  <r_i_glide_evdw>  (319) 
-22.7813

>  <r_i_glide_ecoul>  (319) 
-4.0196

>  <r_i_glide_erotb>  (319) 
0.322248

>  <r_i_glide_esite>  (319) 
-0.254807

>  <r_i_glide_emodel>  (319) 
-32.642

>  <r_i_glide_energy>  (319) 
-26.8009

>  <r_i_glide_einternal>  (319) 
3.17593

>  <r_i_glide_intrahb_reward>  (319) 
-0

>  <i_i_glide_confnum>  (319) 
6

>  <i_i_glide_posenum>  (319) 
10

>  <r_i_glide_eff_state_penalty>  (319) 
0

>  <ligand_id>  (319) 
85

>  <original_smiles>  (319) 
Cc1nn(C)c2ncc(-c3nnnn3C)nc12

>  <smiles>  (319) 
[H]c1nc2c(nc1-c1nnnn1C([H])([H])[H])c(C([H])([H])[H])nn2C([H])([H])[H]

$$$$
85:0:2
     RDKit          3D

 27 29  0  0  1  0  0  0  0  0999 V2000
    4.2989   -2.5434   -2.9493 C   0  0  0  0  0  0  0  0  0  0  0  0
    5.0939   -2.8290   -1.7114 C   0  0  0  0  0  0  0  0  0  0  0  0
    6.2858   -2.2615   -1.5504 N   0  0  0  0  0  0  0  0  0  0  0  0
    6.7724   -2.7390   -0.3644 N   0  0  0  0  0  0  0  0  0  0  0  0
    8.0709   -2.3052    0.1021 C   0  0  0  0  0  0  0  0  0  0  0  0
    5.8957   -3.6019    0.2746 C   0  0  0  0  0  0  0  0  0  0  0  0
    6.0082   -4.2601    1.4546 N   0  0  0  0  0  0  0  0  0  0  0  0
    4.9265   -5.0246    1.7205 C   0  0  0  0  0  0  0  0  0  0  0  0
    3.7990   -5.1301    0.8524 C   0  0  0  0  0  0  0  0  0  0  0  0
    2.6499   -6.0051    1.1759 C   0  0  0  0  0  0  0  0  0  0  0  0
    1.4382   -5.8595    0.6415 N   0  0  0  0  0  0  0  0  0  0  0  0
    0.6480   -6.8244    1.2271 N   0  0  0  0  0  0  0  0  0  0  0  0
    1.3437   -7.5230    2.0690 N   0  0  0  0  0  0  0  0  0  0  0  0
    2.6056   -7.0371    2.0501 N   0  0  0  0  0  0  0  0  0  0  0  0
    3.5985   -7.6672    2.9080 C   0  0  0  0  0  0  0  0  0  0  0  0
    3.7304   -4.4266   -0.3169 N   0  0  0  0  0  0  0  0  0  0  0  0
    4.7955   -3.6615   -0.6050 C   0  0  0  0  0  0  0  0  0  0  0  0
    3.3421   -2.0883   -2.6986 H   0  0  0  0  0  0  0  0  0  0  0  0
    4.1045   -3.4557   -3.5134 H   0  0  0  0  0  0  0  0  0  0  0  0
    4.8313   -1.8568   -3.6041 H   0  0  0  0  0  0  0  0  0  0  0  0
    7.9352   -1.9090    1.1040 H   0  0  0  0  0  0  0  0  0  0  0  0
    8.4930   -1.5209   -0.5248 H   0  0  0  0  0  0  0  0  0  0  0  0
    8.7572   -3.1531    0.1250 H   0  0  0  0  0  0  0  0  0  0  0  0
    4.9945   -5.5307    2.6679 H   0  0  0  0  0  0  0  0  0  0  0  0
    3.9371   -6.9797    3.6859 H   0  0  0  0  0  0  0  0  0  0  0  0
    4.4405   -8.0184    2.3055 H   0  0  0  0  0  0  0  0  0  0  0  0
    3.1610   -8.5217    3.4324 H   0  0  0  0  0  0  0  0  0  0  0  0
  1  2  1  0
  1 18  1  0
  1 19  1  0
  1 20  1  0
  2 17  1  0
  2  3  2  0
  3  4  1  0
  4  5  1  0
  4  6  1  0
  5 21  1  0
  5 22  1  0
  5 23  1  0
  6 17  2  0
  6  7  1  0
  7  8  2  0
  8  9  1  0
  8 24  1  0
  9 10  1  0
  9 16  2  0
 10 14  1  0
 10 11  2  0
 11 12  1  0
 12 13  2  0
 13 14  1  0
 14 15  1  0
 15 25  1  0
 15 26  1  0
 15 27  1  0
 16 17  1  0
M  END
>  <i_m_ct_stereo_status>  (320) 
1

>  <s_m_source_file>  (320) 
/var/tmp/pbs.5076255.sched01/tmpwmgilt76/96rd2vfdyj.sdf

>  <i_m_source_file_index>  (320) 
39

>  <i_lp_mmshare_version>  (320) 
48012

>  <i_f3d_flags>  (320) 
0

>  <s_epik_input>  (320) 
W0NIM11uMW5jKFtDSDNdKWMoYzEyKW5jKFtjSF1uMiktYzNubm5uM1tDSDNd

>  <s_epik_cmdline>  (320) 
J2VwaWtfcHl0aG9uJywgJy1waHQnLCAnMi4wJywgJy1waCcsICc3LjAnLCAnLXRuJywgJzgnLCAnLW1hJywgJzIwMCcsICctaW1hZScsICc8aW5maWxlLm1hZT4nLCAnLW9tYWUnLCAnPG91dGZpbGUubWFlPic=

>  <r_lp_tautomer_probability>  (320) 
1

>  <r_epik_Ionization_Penalty>  (320) 
8.38626e-08

>  <r_epik_Ionization_Penalty_Charging>  (320) 
0

>  <r_epik_Ionization_Penalty_Neutral>  (320) 
8.38626e-08

>  <r_epik_State_Penalty>  (320) 
-0

>  <r_epik_Charging_Adjusted_Penalty>  (320) 
0

>  <i_epik_Tot_Q>  (320) 
0

>  <i_epik_Tot_abs_Q>  (320) 
0

>  <s_lp_Force_Field>  (320) 
OPLS3e

>  <r_lp_Energy>  (320) 
20.9217

>  <b_lp_Chiralities_Consistent>  (320) 
1

>  <s_lp_Variant>  (320) 
85:0-1

>  <s_i_glide_gridfile>  (320) 
pfpi4k_grid

>  <i_i_glide_lignum>  (320) 
39

>  <i_i_glide_rotatable_bonds>  (320) 
1

>  <r_i_docking_score>  (320) 
-3.65627

>  <r_i_glide_ligand_efficiency>  (320) 
-0.215075

>  <r_i_glide_ligand_efficiency_sa>  (320) 
-0.553017

>  <r_i_glide_ligand_efficiency_ln>  (320) 
-0.953839

>  <r_i_glide_gscore>  (320) 
-3.65627

>  <r_i_glide_lipo>  (320) 
-0.315542

>  <r_i_glide_hbond>  (320) 
-0.0877953

>  <r_i_glide_metal>  (320) 
-0

>  <r_i_glide_rewards>  (320) 
-1.9429

>  <r_i_glide_evdw>  (320) 
-20.8417

>  <r_i_glide_ecoul>  (320) 
-2.29556

>  <r_i_glide_erotb>  (320) 
0.322248

>  <r_i_glide_esite>  (320) 
-0.245856

>  <r_i_glide_emodel>  (320) 
-28.5497

>  <r_i_glide_energy>  (320) 
-23.1373

>  <r_i_glide_einternal>  (320) 
2.93922

>  <r_i_glide_intrahb_reward>  (320) 
-0

>  <i_i_glide_confnum>  (320) 
3

>  <i_i_glide_posenum>  (320) 
16

>  <r_i_glide_eff_state_penalty>  (320) 
0

>  <ligand_id>  (320) 
85

>  <original_smiles>  (320) 
Cc1nn(C)c2ncc(-c3nnnn3C)nc12

>  <smiles>  (320) 
[H]c1nc2c(nc1-c1nnnn1C([H])([H])[H])c(C([H])([H])[H])nn2C([H])([H])[H]

$$$$
86:0:0
     RDKit          3D

 17 18  0  0  1  0  0  0  0  0999 V2000
    3.1964    0.2902   -5.1803 C   0  0  0  0  0  0  0  0  0  0  0  0
    3.7225   -0.6154   -4.1162 C   0  0  0  0  0  0  0  0  0  0  0  0
    4.1617   -0.2834   -2.8659 C   0  0  0  0  0  0  0  0  0  0  0  0
    4.5299   -1.4545   -2.2504 N   0  0  0  0  0  0  0  0  0  0  0  0
    5.0307   -1.5918   -0.9910 N   0  0  0  0  0  0  0  0  0  0  0  0
    5.2845   -2.8736   -0.7215 C   0  0  0  0  0  0  0  0  0  0  0  0
    5.8074   -3.1998    0.5914 C   0  0  0  0  0  0  0  0  0  0  0  0
    6.2190   -3.4611    1.6363 N   0  0  0  0  0  0  0  0  0  0  0  0
    5.0820   -3.9344   -1.6448 C   0  0  0  0  0  0  0  0  0  0  0  0
    4.6266   -3.7540   -2.8790 N   0  0  0  0  0  0  0  0  0  0  0  0
    4.3128   -2.4911   -3.1923 C   0  0  0  0  0  0  0  0  0  0  0  0
    3.8271   -1.9853   -4.3210 N   0  0  0  0  0  0  0  0  0  0  0  0
    3.1756    1.3359   -4.8672 H   0  0  0  0  0  0  0  0  0  0  0  0
    2.1842    0.0088   -5.4595 H   0  0  0  0  0  0  0  0  0  0  0  0
    3.8107    0.2244   -6.0738 H   0  0  0  0  0  0  0  0  0  0  0  0
    4.2200    0.6427   -2.3271 H   0  0  0  0  0  0  0  0  0  0  0  0
    5.3030   -4.9602   -1.3721 H   0  0  0  0  0  0  0  0  0  0  0  0
  1  2  1  0
  1 13  1  0
  1 14  1  0
  1 15  1  0
  2 12  1  0
  2  3  2  0
  3  4  1  0
  3 16  1  0
  4 11  1  0
  4  5  1  0
  5  6  2  0
  6  7  1  0
  6  9  1  0
  7  8  3  0
  9 10  2  0
  9 17  1  0
 10 11  1  0
 11 12  2  0
M  END
>  <i_m_ct_stereo_status>  (321) 
1

>  <s_m_source_file>  (321) 
/var/tmp/pbs.5076255.sched01/tmpwmgilt76/96rd2vfdyj.sdf

>  <i_m_source_file_index>  (321) 
40

>  <i_lp_mmshare_version>  (321) 
48012

>  <i_f3d_flags>  (321) 
0

>  <s_epik_input>  (321) 
W0NIM11jKFtjSF0xKW5jKG4xMiluW2NIXWMobjIpQyNO

>  <s_epik_cmdline>  (321) 
J2VwaWtfcHl0aG9uJywgJy1waHQnLCAnMi4wJywgJy1waCcsICc3LjAnLCAnLXRuJywgJzgnLCAnLW1hJywgJzIwMCcsICctaW1hZScsICc8aW5maWxlLm1hZT4nLCAnLW9tYWUnLCAnPG91dGZpbGUubWFlPic=

>  <r_lp_tautomer_probability>  (321) 
1

>  <r_epik_Ionization_Penalty>  (321) 
4.57082e-08

>  <r_epik_Ionization_Penalty_Charging>  (321) 
4.5708e-08

>  <r_epik_Ionization_Penalty_Neutral>  (321) 
2.11283e-13

>  <r_epik_State_Penalty>  (321) 
-0

>  <r_epik_Charging_Adjusted_Penalty>  (321) 
4.5708e-08

>  <i_epik_Tot_Q>  (321) 
0

>  <i_epik_Tot_abs_Q>  (321) 
0

>  <s_lp_Force_Field>  (321) 
OPLS3e

>  <r_lp_Energy>  (321) 
13.6294

>  <b_lp_Chiralities_Consistent>  (321) 
1

>  <s_lp_Variant>  (321) 
86:0-1

>  <s_i_glide_gridfile>  (321) 
pfpi4k_grid

>  <i_i_glide_lignum>  (321) 
40

>  <i_i_glide_rotatable_bonds>  (321) 
1

>  <r_i_docking_score>  (321) 
-4.9322

>  <r_i_glide_ligand_efficiency>  (321) 
-0.411016

>  <r_i_glide_ligand_efficiency_sa>  (321) 
-0.940993

>  <r_i_glide_ligand_efficiency_ln>  (321) 
-1.4153

>  <r_i_glide_gscore>  (321) 
-4.9322

>  <r_i_glide_lipo>  (321) 
-0.571114

>  <r_i_glide_hbond>  (321) 
-0.32

>  <r_i_glide_metal>  (321) 
-0

>  <r_i_glide_rewards>  (321) 
-2.52207

>  <r_i_glide_evdw>  (321) 
-20.2982

>  <r_i_glide_ecoul>  (321) 
-3.10736

>  <r_i_glide_erotb>  (321) 
0

>  <r_i_glide_esite>  (321) 
-0.0380004

>  <r_i_glide_emodel>  (321) 
-30.9259

>  <r_i_glide_energy>  (321) 
-23.4056

>  <r_i_glide_einternal>  (321) 
-0.319038

>  <r_i_glide_intrahb_reward>  (321) 
-0

>  <i_i_glide_confnum>  (321) 
2

>  <i_i_glide_posenum>  (321) 
28

>  <r_i_glide_eff_state_penalty>  (321) 
0

>  <ligand_id>  (321) 
86

>  <original_smiles>  (321) 
Cc1cn2nc(C#N)cnc2n1

>  <smiles>  (321) 
[H]c1nc2nc(C([H])([H])[H])c([H])n2nc1C#N

$$$$
86:0:1
     RDKit          3D

 17 18  0  0  1  0  0  0  0  0999 V2000
    3.0428    0.2213   -5.0678 C   0  0  0  0  0  0  0  0  0  0  0  0
    3.4020   -0.7951   -4.0266 C   0  0  0  0  0  0  0  0  0  0  0  0
    2.9994   -0.8642   -2.7314 C   0  0  0  0  0  0  0  0  0  0  0  0
    3.5708   -1.9852   -2.1823 N   0  0  0  0  0  0  0  0  0  0  0  0
    3.4220   -2.4428   -0.9104 N   0  0  0  0  0  0  0  0  0  0  0  0
    4.1582   -3.5330   -0.7107 C   0  0  0  0  0  0  0  0  0  0  0  0
    4.1030   -4.1542    0.6018 C   0  0  0  0  0  0  0  0  0  0  0  0
    4.0641   -4.6512    1.6452 N   0  0  0  0  0  0  0  0  0  0  0  0
    4.9923   -4.1159   -1.7007 C   0  0  0  0  0  0  0  0  0  0  0  0
    5.0951   -3.6466   -2.9400 N   0  0  0  0  0  0  0  0  0  0  0  0
    4.3513   -2.5663   -3.1943 C   0  0  0  0  0  0  0  0  0  0  0  0
    4.2140   -1.8777   -4.3232 N   0  0  0  0  0  0  0  0  0  0  0  0
    2.3287    0.9694   -4.7070 H   0  0  0  0  0  0  0  0  0  0  0  0
    2.5942   -0.2527   -5.9375 H   0  0  0  0  0  0  0  0  0  0  0  0
    3.9312    0.7482   -5.4183 H   0  0  0  0  0  0  0  0  0  0  0  0
    2.2850   -0.2807   -2.1701 H   0  0  0  0  0  0  0  0  0  0  0  0
    5.5285   -5.0300   -1.4833 H   0  0  0  0  0  0  0  0  0  0  0  0
  1  2  1  0
  1 13  1  0
  1 14  1  0
  1 15  1  0
  2 12  1  0
  2  3  2  0
  3  4  1  0
  3 16  1  0
  4 11  1  0
  4  5  1  0
  5  6  2  0
  6  7  1  0
  6  9  1  0
  7  8  3  0
  9 10  2  0
  9 17  1  0
 10 11  1  0
 11 12  2  0
M  END
>  <i_m_ct_stereo_status>  (322) 
1

>  <s_m_source_file>  (322) 
/var/tmp/pbs.5076255.sched01/tmpwmgilt76/96rd2vfdyj.sdf

>  <i_m_source_file_index>  (322) 
40

>  <i_lp_mmshare_version>  (322) 
48012

>  <i_f3d_flags>  (322) 
0

>  <s_epik_input>  (322) 
W0NIM11jKFtjSF0xKW5jKG4xMiluW2NIXWMobjIpQyNO

>  <s_epik_cmdline>  (322) 
J2VwaWtfcHl0aG9uJywgJy1waHQnLCAnMi4wJywgJy1waCcsICc3LjAnLCAnLXRuJywgJzgnLCAnLW1hJywgJzIwMCcsICctaW1hZScsICc8aW5maWxlLm1hZT4nLCAnLW9tYWUnLCAnPG91dGZpbGUubWFlPic=

>  <r_lp_tautomer_probability>  (322) 
1

>  <r_epik_Ionization_Penalty>  (322) 
4.57082e-08

>  <r_epik_Ionization_Penalty_Charging>  (322) 
4.5708e-08

>  <r_epik_Ionization_Penalty_Neutral>  (322) 
2.11283e-13

>  <r_epik_State_Penalty>  (322) 
-0

>  <r_epik_Charging_Adjusted_Penalty>  (322) 
4.5708e-08

>  <i_epik_Tot_Q>  (322) 
0

>  <i_epik_Tot_abs_Q>  (322) 
0

>  <s_lp_Force_Field>  (322) 
OPLS3e

>  <r_lp_Energy>  (322) 
13.6294

>  <b_lp_Chiralities_Consistent>  (322) 
1

>  <s_lp_Variant>  (322) 
86:0-1

>  <s_i_glide_gridfile>  (322) 
pfpi4k_grid

>  <i_i_glide_lignum>  (322) 
40

>  <i_i_glide_rotatable_bonds>  (322) 
1

>  <r_i_docking_score>  (322) 
-4.74628

>  <r_i_glide_ligand_efficiency>  (322) 
-0.395524

>  <r_i_glide_ligand_efficiency_sa>  (322) 
-0.905523

>  <r_i_glide_ligand_efficiency_ln>  (322) 
-1.36195

>  <r_i_glide_gscore>  (322) 
-4.74628

>  <r_i_glide_lipo>  (322) 
-0.305702

>  <r_i_glide_hbond>  (322) 
-0.32

>  <r_i_glide_metal>  (322) 
-0

>  <r_i_glide_rewards>  (322) 
-2.46224

>  <r_i_glide_evdw>  (322) 
-16.4772

>  <r_i_glide_ecoul>  (322) 
-5.27907

>  <r_i_glide_erotb>  (322) 
0

>  <r_i_glide_esite>  (322) 
-0.0426192

>  <r_i_glide_emodel>  (322) 
-28.9873

>  <r_i_glide_energy>  (322) 
-21.7563

>  <r_i_glide_einternal>  (322) 
-0.318446

>  <r_i_glide_intrahb_reward>  (322) 
-0

>  <i_i_glide_confnum>  (322) 
1

>  <i_i_glide_posenum>  (322) 
16

>  <r_i_glide_eff_state_penalty>  (322) 
0

>  <ligand_id>  (322) 
86

>  <original_smiles>  (322) 
Cc1cn2nc(C#N)cnc2n1

>  <smiles>  (322) 
[H]c1nc2nc(C([H])([H])[H])c([H])n2nc1C#N

$$$$
86:0:2
     RDKit          3D

 17 18  0  0  1  0  0  0  0  0999 V2000
    1.6248   -7.8955    2.0166 C   0  0  0  0  0  0  0  0  0  0  0  0
    2.2999   -6.7722    1.2918 C   0  0  0  0  0  0  0  0  0  0  0  0
    3.6415   -6.5079    1.1865 C   0  0  0  0  0  0  0  0  0  0  0  0
    3.7461   -5.3683    0.4147 N   0  0  0  0  0  0  0  0  0  0  0  0
    4.8912   -4.7349    0.0499 N   0  0  0  0  0  0  0  0  0  0  0  0
    4.6279   -3.6557   -0.6938 C   0  0  0  0  0  0  0  0  0  0  0  0
    5.7615   -2.8812   -1.1520 C   0  0  0  0  0  0  0  0  0  0  0  0
    6.6641   -2.2569   -1.5183 N   0  0  0  0  0  0  0  0  0  0  0  0
    3.3144   -3.2244   -1.0425 C   0  0  0  0  0  0  0  0  0  0  0  0
    2.2215   -3.8703   -0.6611 N   0  0  0  0  0  0  0  0  0  0  0  0
    2.4259   -4.9740    0.0807 C   0  0  0  0  0  0  0  0  0  0  0  0
    1.5457   -5.8433    0.5845 N   0  0  0  0  0  0  0  0  0  0  0  0
    2.3363   -8.5678    2.5018 H   0  0  0  0  0  0  0  0  0  0  0  0
    1.0260   -8.4893    1.3256 H   0  0  0  0  0  0  0  0  0  0  0  0
    0.9492   -7.5131    2.7835 H   0  0  0  0  0  0  0  0  0  0  0  0
    4.5281   -6.9986    1.5604 H   0  0  0  0  0  0  0  0  0  0  0  0
    3.1494   -2.3307   -1.6445 H   0  0  0  0  0  0  0  0  0  0  0  0
  1  2  1  0
  1 13  1  0
  1 14  1  0
  1 15  1  0
  2 12  1  0
  2  3  2  0
  3  4  1  0
  3 16  1  0
  4 11  1  0
  4  5  1  0
  5  6  2  0
  6  7  1  0
  6  9  1  0
  7  8  3  0
  9 10  2  0
  9 17  1  0
 10 11  1  0
 11 12  2  0
M  END
>  <i_m_ct_stereo_status>  (323) 
1

>  <s_m_source_file>  (323) 
/var/tmp/pbs.5076255.sched01/tmpwmgilt76/96rd2vfdyj.sdf

>  <i_m_source_file_index>  (323) 
40

>  <i_lp_mmshare_version>  (323) 
48012

>  <i_f3d_flags>  (323) 
0

>  <s_epik_input>  (323) 
W0NIM11jKFtjSF0xKW5jKG4xMiluW2NIXWMobjIpQyNO

>  <s_epik_cmdline>  (323) 
J2VwaWtfcHl0aG9uJywgJy1waHQnLCAnMi4wJywgJy1waCcsICc3LjAnLCAnLXRuJywgJzgnLCAnLW1hJywgJzIwMCcsICctaW1hZScsICc8aW5maWxlLm1hZT4nLCAnLW9tYWUnLCAnPG91dGZpbGUubWFlPic=

>  <r_lp_tautomer_probability>  (323) 
1

>  <r_epik_Ionization_Penalty>  (323) 
4.57082e-08

>  <r_epik_Ionization_Penalty_Charging>  (323) 
4.5708e-08

>  <r_epik_Ionization_Penalty_Neutral>  (323) 
2.11283e-13

>  <r_epik_State_Penalty>  (323) 
-0

>  <r_epik_Charging_Adjusted_Penalty>  (323) 
4.5708e-08

>  <i_epik_Tot_Q>  (323) 
0

>  <i_epik_Tot_abs_Q>  (323) 
0

>  <s_lp_Force_Field>  (323) 
OPLS3e

>  <r_lp_Energy>  (323) 
13.6294

>  <b_lp_Chiralities_Consistent>  (323) 
1

>  <s_lp_Variant>  (323) 
86:0-1

>  <s_i_glide_gridfile>  (323) 
pfpi4k_grid

>  <i_i_glide_lignum>  (323) 
40

>  <i_i_glide_rotatable_bonds>  (323) 
1

>  <r_i_docking_score>  (323) 
-4.41871

>  <r_i_glide_ligand_efficiency>  (323) 
-0.368225

>  <r_i_glide_ligand_efficiency_sa>  (323) 
-0.843026

>  <r_i_glide_ligand_efficiency_ln>  (323) 
-1.26796

>  <r_i_glide_gscore>  (323) 
-4.41871

>  <r_i_glide_lipo>  (323) 
-0.131368

>  <r_i_glide_hbond>  (323) 
-0.308427

>  <r_i_glide_metal>  (323) 
-0

>  <r_i_glide_rewards>  (323) 
-2.26934

>  <r_i_glide_evdw>  (323) 
-14.4199

>  <r_i_glide_ecoul>  (323) 
-6.17741

>  <r_i_glide_erotb>  (323) 
0

>  <r_i_glide_esite>  (323) 
-0.061959

>  <r_i_glide_emodel>  (323) 
-27.3449

>  <r_i_glide_energy>  (323) 
-20.5974

>  <r_i_glide_einternal>  (323) 
-0.318468

>  <r_i_glide_intrahb_reward>  (323) 
-0

>  <i_i_glide_confnum>  (323) 
1

>  <i_i_glide_posenum>  (323) 
6

>  <r_i_glide_eff_state_penalty>  (323) 
0

>  <ligand_id>  (323) 
86

>  <original_smiles>  (323) 
Cc1cn2nc(C#N)cnc2n1

>  <smiles>  (323) 
[H]c1nc2nc(C([H])([H])[H])c([H])n2nc1C#N

$$$$
87:0:0
     RDKit          3D

 33 36  0  0  1  0  0  0  0  0999 V2000
    4.8307   -3.2137    3.5676 C   0  0  0  0  0  0  0  0  0  0  0  0
    4.3656   -4.3275    3.0105 N   0  0  0  0  0  0  0  0  0  0  0  0
    4.1103   -4.3660    1.6827 C   0  0  0  0  0  0  0  0  0  0  0  0
    3.6651   -5.5898    1.1376 N   0  0  0  0  0  0  0  0  0  0  0  0
    4.2138   -6.8313    1.6945 C   0  0  0  0  0  0  0  0  0  0  0  0
    3.3679   -7.3571    2.8813 C   0  0  0  0  0  0  0  0  0  0  0  0
    1.9999   -7.4693    2.4993 O   0  0  0  0  0  0  0  0  0  0  0  0
    1.4627   -6.2216    2.0744 C   0  0  0  0  0  0  0  0  0  0  0  0
    2.2408   -5.7066    0.8520 C   0  0  0  0  0  0  0  0  0  0  0  0
    4.3303   -3.1855    0.9060 C   0  0  0  0  0  0  0  0  0  0  0  0
    4.1784   -2.8050   -0.4837 C   0  0  0  0  0  0  0  0  0  0  0  0
    4.5658   -1.5338   -0.7298 C   0  0  0  0  0  0  0  0  0  0  0  0
    5.1575   -0.6546    0.6358 S   0  0  0  0  0  0  0  0  0  0  0  0
    4.8521   -2.0696    1.6542 C   0  0  0  0  0  0  0  0  0  0  0  0
    5.1166   -2.0521    2.9871 N   0  0  0  0  0  0  0  0  0  0  0  0
    4.4270   -1.1141   -2.1419 C   0  0  0  0  0  0  0  0  0  0  0  0
    3.9678   -2.4087   -2.8486 C   0  0  0  0  0  0  0  0  0  0  0  0
    3.7064   -3.4560   -1.7326 C   0  0  0  0  0  0  0  0  0  0  0  0
    5.0122   -3.2626    4.6278 H   0  0  0  0  0  0  0  0  0  0  0  0
    4.2384   -7.5860    0.9069 H   0  0  0  0  0  0  0  0  0  0  0  0
    5.2482   -6.6885    2.0079 H   0  0  0  0  0  0  0  0  0  0  0  0
    3.7321   -8.3339    3.2074 H   0  0  0  0  0  0  0  0  0  0  0  0
    3.4375   -6.6988    3.7475 H   0  0  0  0  0  0  0  0  0  0  0  0
    0.4153   -6.3758    1.8158 H   0  0  0  0  0  0  0  0  0  0  0  0
    1.4859   -5.5036    2.8929 H   0  0  0  0  0  0  0  0  0  0  0  0
    1.8279   -4.7715    0.4703 H   0  0  0  0  0  0  0  0  0  0  0  0
    2.1223   -6.4456    0.0685 H   0  0  0  0  0  0  0  0  0  0  0  0
    3.6852   -0.3252   -2.2506 H   0  0  0  0  0  0  0  0  0  0  0  0
    5.3648   -0.7401   -2.5448 H   0  0  0  0  0  0  0  0  0  0  0  0
    3.0882   -2.2459   -3.4712 H   0  0  0  0  0  0  0  0  0  0  0  0
    4.7627   -2.7637   -3.5045 H   0  0  0  0  0  0  0  0  0  0  0  0
    4.2569   -4.3767   -1.9256 H   0  0  0  0  0  0  0  0  0  0  0  0
    2.6452   -3.7002   -1.6673 H   0  0  0  0  0  0  0  0  0  0  0  0
  1 15  2  0
  1  2  1  0
  1 19  1  0
  2  3  2  0
  3  4  1  0
  3 10  1  0
  4  9  1  0
  4  5  1  0
  5  6  1  0
  5 20  1  0
  5 21  1  0
  6  7  1  0
  6 22  1  0
  6 23  1  0
  7  8  1  0
  8  9  1  0
  8 24  1  0
  8 25  1  0
  9 26  1  0
  9 27  1  0
 10 14  2  0
 10 11  1  0
 11 18  1  0
 11 12  2  0
 12 13  1  0
 12 16  1  0
 13 14  1  0
 14 15  1  0
 16 17  1  0
 16 28  1  0
 16 29  1  0
 17 18  1  0
 17 30  1  0
 17 31  1  0
 18 32  1  0
 18 33  1  0
M  END
>  <i_m_ct_stereo_status>  (324) 
1

>  <s_m_source_file>  (324) 
/var/tmp/pbs.5076255.sched01/tmpwmgilt76/96rd2vfdyj.sdf

>  <i_m_source_file_index>  (324) 
41

>  <i_lp_mmshare_version>  (324) 
48012

>  <i_f3d_flags>  (324) 
0

>  <s_epik_input>  (324) 
W0NIMl0xW0NIMl1bQ0gyXWMoYzFjMjMpc2MzbltjSF1uYzJONFtDSDJdW0NIMl1PW0NIMl1bQ0gyXTQ=

>  <s_epik_cmdline>  (324) 
J2VwaWtfcHl0aG9uJywgJy1waHQnLCAnMi4wJywgJy1waCcsICc3LjAnLCAnLXRuJywgJzgnLCAnLW1hJywgJzIwMCcsICctaW1hZScsICc8aW5maWxlLm1hZT4nLCAnLW9tYWUnLCAnPG91dGZpbGUubWFlPic=

>  <r_lp_tautomer_probability>  (324) 
1

>  <r_epik_Ionization_Penalty>  (324) 
1.37425e-05

>  <r_epik_Ionization_Penalty_Charging>  (324) 
0

>  <r_epik_Ionization_Penalty_Neutral>  (324) 
1.37425e-05

>  <r_epik_State_Penalty>  (324) 
-0

>  <r_epik_Charging_Adjusted_Penalty>  (324) 
0

>  <i_epik_Tot_Q>  (324) 
0

>  <i_epik_Tot_abs_Q>  (324) 
0

>  <s_lp_Force_Field>  (324) 
OPLS3e

>  <r_lp_Energy>  (324) 
31.9494

>  <b_lp_Chiralities_Consistent>  (324) 
1

>  <s_lp_Variant>  (324) 
87:0-1

>  <s_i_glide_gridfile>  (324) 
pfpi4k_grid

>  <i_i_glide_lignum>  (324) 
41

>  <i_i_glide_rotatable_bonds>  (324) 
1

>  <r_i_docking_score>  (324) 
-2.7787

>  <r_i_glide_ligand_efficiency>  (324) 
-0.154372

>  <r_i_glide_ligand_efficiency_sa>  (324) 
-0.404569

>  <r_i_glide_ligand_efficiency_ln>  (324) 
-0.71425

>  <r_i_glide_gscore>  (324) 
-2.7787

>  <r_i_glide_lipo>  (324) 
-0.374089

>  <r_i_glide_hbond>  (324) 
0

>  <r_i_glide_metal>  (324) 
-0

>  <r_i_glide_rewards>  (324) 
-1.70167

>  <r_i_glide_evdw>  (324) 
-21.3781

>  <r_i_glide_ecoul>  (324) 
0.710185

>  <r_i_glide_erotb>  (324) 
0.259438

>  <r_i_glide_esite>  (324) 
0

>  <r_i_glide_emodel>  (324) 
-23.3801

>  <r_i_glide_energy>  (324) 
-20.6679

>  <r_i_glide_einternal>  (324) 
2.75274

>  <r_i_glide_intrahb_reward>  (324) 
-0

>  <i_i_glide_confnum>  (324) 
2

>  <i_i_glide_posenum>  (324) 
8

>  <r_i_glide_eff_state_penalty>  (324) 
0

>  <ligand_id>  (324) 
87

>  <original_smiles>  (324) 
c1nc(N2CCOCC2)c2c3c(sc2n1)CCC3

>  <smiles>  (324) 
[H]c1nc(N2C([H])([H])C([H])([H])OC([H])([H])C2([H])[H])c2c3c(sc2n1)C([H])([H])C([H])([H])C3([H])[H]

$$$$
87:0:1
     RDKit          3D

 33 36  0  0  1  0  0  0  0  0999 V2000
    1.4678   -2.1354    5.8571 C   0  0  0  0  0  0  0  0  0  0  0  0
    2.3685   -1.4584    5.1541 N   0  0  0  0  0  0  0  0  0  0  0  0
    2.0312   -0.2877    4.5559 C   0  0  0  0  0  0  0  0  0  0  0  0
    3.0647    0.3856    3.8552 N   0  0  0  0  0  0  0  0  0  0  0  0
    4.4540   -0.0555    3.9938 C   0  0  0  0  0  0  0  0  0  0  0  0
    4.8003   -1.1148    2.9210 C   0  0  0  0  0  0  0  0  0  0  0  0
    4.5100   -0.6207    1.6157 O   0  0  0  0  0  0  0  0  0  0  0  0
    3.1372   -0.2694    1.4815 C   0  0  0  0  0  0  0  0  0  0  0  0
    2.7914    0.8249    2.4929 C   0  0  0  0  0  0  0  0  0  0  0  0
    0.6882    0.1940    4.6878 C   0  0  0  0  0  0  0  0  0  0  0  0
   -0.0773    1.3465    4.2308 C   0  0  0  0  0  0  0  0  0  0  0  0
   -1.3530    1.3345    4.6709 C   0  0  0  0  0  0  0  0  0  0  0  0
   -1.7852   -0.0056    5.6713 S   0  0  0  0  0  0  0  0  0  0  0  0
   -0.1565   -0.6473    5.4905 C   0  0  0  0  0  0  0  0  0  0  0  0
    0.1977   -1.8188    6.0956 N   0  0  0  0  0  0  0  0  0  0  0  0
   -2.1650    2.4918    4.2386 C   0  0  0  0  0  0  0  0  0  0  0  0
   -1.1437    3.3827    3.5043 C   0  0  0  0  0  0  0  0  0  0  0  0
    0.1664    2.5713    3.4068 C   0  0  0  0  0  0  0  0  0  0  0  0
    1.8206   -3.0575    6.2942 H   0  0  0  0  0  0  0  0  0  0  0  0
    5.1126    0.8063    3.8851 H   0  0  0  0  0  0  0  0  0  0  0  0
    4.6535   -0.4466    4.9864 H   0  0  0  0  0  0  0  0  0  0  0  0
    5.8554   -1.3796    2.9615 H   0  0  0  0  0  0  0  0  0  0  0  0
    4.2323   -2.0328    3.0792 H   0  0  0  0  0  0  0  0  0  0  0  0
    2.9411    0.0954    0.4793 H   0  0  0  0  0  0  0  0  0  0  0  0
    2.4957   -1.1401    1.6283 H   0  0  0  0  0  0  0  0  0  0  0  0
    1.7511    1.0426    2.3297 H   0  0  0  0  0  0  0  0  0  0  0  0
    3.3679    1.7319    2.2905 H   0  0  0  0  0  0  0  0  0  0  0  0
   -2.9602    2.1615    3.5691 H   0  0  0  0  0  0  0  0  0  0  0  0
   -2.6127    3.0130    5.0825 H   0  0  0  0  0  0  0  0  0  0  0  0
   -1.4926    3.6591    2.5078 H   0  0  0  0  0  0  0  0  0  0  0  0
   -0.9624    4.3034    4.0549 H   0  0  0  0  0  0  0  0  0  0  0  0
    1.0345    3.1410    3.7493 H   0  0  0  0  0  0  0  0  0  0  0  0
    0.2813    2.3560    2.3431 H   0  0  0  0  0  0  0  0  0  0  0  0
  1 15  2  0
  1  2  1  0
  1 19  1  0
  2  3  2  0
  3  4  1  0
  3 10  1  0
  4  9  1  0
  4  5  1  0
  5  6  1  0
  5 20  1  0
  5 21  1  0
  6  7  1  0
  6 22  1  0
  6 23  1  0
  7  8  1  0
  8  9  1  0
  8 24  1  0
  8 25  1  0
  9 26  1  0
  9 27  1  0
 10 14  2  0
 10 11  1  0
 11 18  1  0
 11 12  2  0
 12 13  1  0
 12 16  1  0
 13 14  1  0
 14 15  1  0
 16 17  1  0
 16 28  1  0
 16 29  1  0
 17 18  1  0
 17 30  1  0
 17 31  1  0
 18 32  1  0
 18 33  1  0
M  END
>  <i_m_ct_stereo_status>  (325) 
1

>  <s_m_source_file>  (325) 
/var/tmp/pbs.5076255.sched01/tmpwmgilt76/96rd2vfdyj.sdf

>  <i_m_source_file_index>  (325) 
41

>  <i_lp_mmshare_version>  (325) 
48012

>  <i_f3d_flags>  (325) 
0

>  <s_epik_input>  (325) 
W0NIMl0xW0NIMl1bQ0gyXWMoYzFjMjMpc2MzbltjSF1uYzJONFtDSDJdW0NIMl1PW0NIMl1bQ0gyXTQ=

>  <s_epik_cmdline>  (325) 
J2VwaWtfcHl0aG9uJywgJy1waHQnLCAnMi4wJywgJy1waCcsICc3LjAnLCAnLXRuJywgJzgnLCAnLW1hJywgJzIwMCcsICctaW1hZScsICc8aW5maWxlLm1hZT4nLCAnLW9tYWUnLCAnPG91dGZpbGUubWFlPic=

>  <r_lp_tautomer_probability>  (325) 
1

>  <r_epik_Ionization_Penalty>  (325) 
1.37425e-05

>  <r_epik_Ionization_Penalty_Charging>  (325) 
0

>  <r_epik_Ionization_Penalty_Neutral>  (325) 
1.37425e-05

>  <r_epik_State_Penalty>  (325) 
-0

>  <r_epik_Charging_Adjusted_Penalty>  (325) 
0

>  <i_epik_Tot_Q>  (325) 
0

>  <i_epik_Tot_abs_Q>  (325) 
0

>  <s_lp_Force_Field>  (325) 
OPLS3e

>  <r_lp_Energy>  (325) 
31.9494

>  <b_lp_Chiralities_Consistent>  (325) 
1

>  <s_lp_Variant>  (325) 
87:0-1

>  <s_i_glide_gridfile>  (325) 
pfpi4k_grid

>  <i_i_glide_lignum>  (325) 
41

>  <i_i_glide_rotatable_bonds>  (325) 
1

>  <r_i_docking_score>  (325) 
-2.67951

>  <r_i_glide_ligand_efficiency>  (325) 
-0.148862

>  <r_i_glide_ligand_efficiency_sa>  (325) 
-0.390128

>  <r_i_glide_ligand_efficiency_ln>  (325) 
-0.688755

>  <r_i_glide_gscore>  (325) 
-2.67951

>  <r_i_glide_lipo>  (325) 
-0.14575

>  <r_i_glide_hbond>  (325) 
0

>  <r_i_glide_metal>  (325) 
-0

>  <r_i_glide_rewards>  (325) 
-1.6272

>  <r_i_glide_evdw>  (325) 
-19.4087

>  <r_i_glide_ecoul>  (325) 
-1.2955

>  <r_i_glide_erotb>  (325) 
0.259438

>  <r_i_glide_esite>  (325) 
-0.00123803

>  <r_i_glide_emodel>  (325) 
-23.9631

>  <r_i_glide_energy>  (325) 
-20.7042

>  <r_i_glide_einternal>  (325) 
1.00171

>  <r_i_glide_intrahb_reward>  (325) 
-0

>  <i_i_glide_confnum>  (325) 
1

>  <i_i_glide_posenum>  (325) 
12

>  <r_i_glide_eff_state_penalty>  (325) 
0

>  <ligand_id>  (325) 
87

>  <original_smiles>  (325) 
c1nc(N2CCOCC2)c2c3c(sc2n1)CCC3

>  <smiles>  (325) 
[H]c1nc(N2C([H])([H])C([H])([H])OC([H])([H])C2([H])[H])c2c3c(sc2n1)C([H])([H])C([H])([H])C3([H])[H]

$$$$
87:0:2
     RDKit          3D

 33 36  0  0  1  0  0  0  0  0999 V2000
    0.5831   -1.9504    5.9210 C   0  0  0  0  0  0  0  0  0  0  0  0
    1.0176   -1.8722    4.6684 N   0  0  0  0  0  0  0  0  0  0  0  0
    0.6350   -0.8589    3.8581 C   0  0  0  0  0  0  0  0  0  0  0  0
    1.1824   -0.8269    2.5580 N   0  0  0  0  0  0  0  0  0  0  0  0
    1.6265    0.4585    2.0548 C   0  0  0  0  0  0  0  0  0  0  0  0
    3.0784    0.7674    2.4181 C   0  0  0  0  0  0  0  0  0  0  0  0
    3.9478   -0.2637    1.9668 O   0  0  0  0  0  0  0  0  0  0  0  0
    3.5543   -1.5211    2.5099 C   0  0  0  0  0  0  0  0  0  0  0  0
    2.1124   -1.8858    2.1116 C   0  0  0  0  0  0  0  0  0  0  0  0
   -0.2917    0.1206    4.3895 C   0  0  0  0  0  0  0  0  0  0  0  0
   -0.9856    1.3034    3.8847 C   0  0  0  0  0  0  0  0  0  0  0  0
   -1.7658    1.8814    4.8366 C   0  0  0  0  0  0  0  0  0  0  0  0
   -1.7705    1.1115    6.3831 S   0  0  0  0  0  0  0  0  0  0  0  0
   -0.6562   -0.1117    5.7642 C   0  0  0  0  0  0  0  0  0  0  0  0
   -0.2508   -1.1366    6.5651 N   0  0  0  0  0  0  0  0  0  0  0  0
   -2.4953    3.0853    4.3694 C   0  0  0  0  0  0  0  0  0  0  0  0
   -1.9948    3.2772    2.9250 C   0  0  0  0  0  0  0  0  0  0  0  0
   -1.1198    2.0569    2.5888 C   0  0  0  0  0  0  0  0  0  0  0  0
    0.9621   -2.7902    6.4798 H   0  0  0  0  0  0  0  0  0  0  0  0
    1.4251    0.5595    0.9818 H   0  0  0  0  0  0  0  0  0  0  0  0
    1.1421    1.2386    2.5996 H   0  0  0  0  0  0  0  0  0  0  0  0
    3.3432    1.7325    1.9903 H   0  0  0  0  0  0  0  0  0  0  0  0
    3.1611    0.8805    3.5004 H   0  0  0  0  0  0  0  0  0  0  0  0
    4.2500   -2.2713    2.1320 H   0  0  0  0  0  0  0  0  0  0  0  0
    3.6643   -1.4850    3.5948 H   0  0  0  0  0  0  0  0  0  0  0  0
    1.8212   -2.8840    2.4622 H   0  0  0  0  0  0  0  0  0  0  0  0
    2.0456   -1.9197    1.0247 H   0  0  0  0  0  0  0  0  0  0  0  0
   -3.5715    2.9294    4.3667 H   0  0  0  0  0  0  0  0  0  0  0  0
   -2.2676    3.9498    4.9959 H   0  0  0  0  0  0  0  0  0  0  0  0
   -2.7815    3.4315    2.1884 H   0  0  0  0  0  0  0  0  0  0  0  0
   -1.3493    4.1562    2.8974 H   0  0  0  0  0  0  0  0  0  0  0  0
   -0.2234    2.5318    2.1977 H   0  0  0  0  0  0  0  0  0  0  0  0
   -1.5532    1.4318    1.8042 H   0  0  0  0  0  0  0  0  0  0  0  0
  1 15  2  0
  1  2  1  0
  1 19  1  0
  2  3  2  0
  3  4  1  0
  3 10  1  0
  4  9  1  0
  4  5  1  0
  5  6  1  0
  5 20  1  0
  5 21  1  0
  6  7  1  0
  6 22  1  0
  6 23  1  0
  7  8  1  0
  8  9  1  0
  8 24  1  0
  8 25  1  0
  9 26  1  0
  9 27  1  0
 10 14  2  0
 10 11  1  0
 11 18  1  0
 11 12  2  0
 12 13  1  0
 12 16  1  0
 13 14  1  0
 14 15  1  0
 16 17  1  0
 16 28  1  0
 16 29  1  0
 17 18  1  0
 17 30  1  0
 17 31  1  0
 18 32  1  0
 18 33  1  0
M  END
>  <i_m_ct_stereo_status>  (326) 
1

>  <s_m_source_file>  (326) 
/var/tmp/pbs.5076255.sched01/tmpwmgilt76/96rd2vfdyj.sdf

>  <i_m_source_file_index>  (326) 
41

>  <i_lp_mmshare_version>  (326) 
48012

>  <i_f3d_flags>  (326) 
0

>  <s_epik_input>  (326) 
W0NIMl0xW0NIMl1bQ0gyXWMoYzFjMjMpc2MzbltjSF1uYzJONFtDSDJdW0NIMl1PW0NIMl1bQ0gyXTQ=

>  <s_epik_cmdline>  (326) 
J2VwaWtfcHl0aG9uJywgJy1waHQnLCAnMi4wJywgJy1waCcsICc3LjAnLCAnLXRuJywgJzgnLCAnLW1hJywgJzIwMCcsICctaW1hZScsICc8aW5maWxlLm1hZT4nLCAnLW9tYWUnLCAnPG91dGZpbGUubWFlPic=

>  <r_lp_tautomer_probability>  (326) 
1

>  <r_epik_Ionization_Penalty>  (326) 
1.37425e-05

>  <r_epik_Ionization_Penalty_Charging>  (326) 
0

>  <r_epik_Ionization_Penalty_Neutral>  (326) 
1.37425e-05

>  <r_epik_State_Penalty>  (326) 
-0

>  <r_epik_Charging_Adjusted_Penalty>  (326) 
0

>  <i_epik_Tot_Q>  (326) 
0

>  <i_epik_Tot_abs_Q>  (326) 
0

>  <s_lp_Force_Field>  (326) 
OPLS3e

>  <r_lp_Energy>  (326) 
31.9494

>  <b_lp_Chiralities_Consistent>  (326) 
1

>  <s_lp_Variant>  (326) 
87:0-1

>  <s_i_glide_gridfile>  (326) 
pfpi4k_grid

>  <i_i_glide_lignum>  (326) 
41

>  <i_i_glide_rotatable_bonds>  (326) 
1

>  <r_i_docking_score>  (326) 
-2.64818

>  <r_i_glide_ligand_efficiency>  (326) 
-0.147121

>  <r_i_glide_ligand_efficiency_sa>  (326) 
-0.385566

>  <r_i_glide_ligand_efficiency_ln>  (326) 
-0.680701

>  <r_i_glide_gscore>  (326) 
-2.64818

>  <r_i_glide_lipo>  (326) 
-0.0696263

>  <r_i_glide_hbond>  (326) 
0

>  <r_i_glide_metal>  (326) 
-0

>  <r_i_glide_rewards>  (326) 
-1.6272

>  <r_i_glide_evdw>  (326) 
-20.9492

>  <r_i_glide_ecoul>  (326) 
-0.777499

>  <r_i_glide_erotb>  (326) 
0.259438

>  <r_i_glide_esite>  (326) 
-0.0467059

>  <r_i_glide_emodel>  (326) 
-24.52

>  <r_i_glide_energy>  (326) 
-21.7267

>  <r_i_glide_einternal>  (326) 
0.314993

>  <r_i_glide_intrahb_reward>  (326) 
-0

>  <i_i_glide_confnum>  (326) 
1

>  <i_i_glide_posenum>  (326) 
2

>  <r_i_glide_eff_state_penalty>  (326) 
0

>  <ligand_id>  (326) 
87

>  <original_smiles>  (326) 
c1nc(N2CCOCC2)c2c3c(sc2n1)CCC3

>  <smiles>  (326) 
[H]c1nc(N2C([H])([H])C([H])([H])OC([H])([H])C2([H])[H])c2c3c(sc2n1)C([H])([H])C([H])([H])C3([H])[H]

$$$$
88:0:0
     RDKit          3D

 26 27  0  0  1  0  0  0  0  0999 V2000
    4.2549   -0.6485   -2.4721 C   0  0  0  0  0  0  0  0  0  0  0  0
    4.1265   -1.1870   -3.9113 C   0  0  0  0  0  0  0  0  0  0  0  0
    3.0275   -0.4466   -4.6760 C   0  0  0  0  0  0  0  0  0  0  0  0
    4.0466   -2.6617   -4.0565 N   0  0  0  0  0  0  0  0  0  0  0  0
    2.7253   -3.2883   -3.9230 C   0  0  0  0  0  0  0  0  0  0  0  0
    2.2044   -3.1491   -2.4691 C   0  0  0  0  0  0  0  0  0  0  0  0
    3.2718   -3.4231   -1.5254 N   0  0  0  0  0  0  0  0  0  0  0  0
    3.1039   -3.4616   -0.1856 N   0  0  0  0  0  0  0  0  0  0  0  0
    4.3659   -3.6097    0.2231 C   0  0  0  0  0  0  0  0  0  0  0  0
    5.3354   -3.6828   -0.7446 N   0  0  0  0  0  0  0  0  0  0  0  0
    4.5684   -3.5363   -1.8146 C   0  0  0  0  0  0  0  0  0  0  0  0
    5.0003   -3.4538   -3.2553 C   0  0  0  0  0  0  0  0  0  0  0  0
    4.3181    0.4419   -2.4833 H   0  0  0  0  0  0  0  0  0  0  0  0
    5.1750   -0.9764   -1.9917 H   0  0  0  0  0  0  0  0  0  0  0  0
    3.4094   -0.9094   -1.8306 H   0  0  0  0  0  0  0  0  0  0  0  0
    5.0240   -0.8977   -4.4564 H   0  0  0  0  0  0  0  0  0  0  0  0
    3.0733    0.6289   -4.5032 H   0  0  0  0  0  0  0  0  0  0  0  0
    2.0508   -0.7881   -4.3619 H   0  0  0  0  0  0  0  0  0  0  0  0
    3.1110   -0.6088   -5.7501 H   0  0  0  0  0  0  0  0  0  0  0  0
    2.0114   -2.9002   -4.6437 H   0  0  0  0  0  0  0  0  0  0  0  0
    2.8160   -4.3490   -4.1563 H   0  0  0  0  0  0  0  0  0  0  0  0
    1.8982   -2.1229   -2.3133 H   0  0  0  0  0  0  0  0  0  0  0  0
    1.3639   -3.8209   -2.2956 H   0  0  0  0  0  0  0  0  0  0  0  0
    4.6059   -3.6442    1.2783 H   0  0  0  0  0  0  0  0  0  0  0  0
    5.0278   -4.4777   -3.6546 H   0  0  0  0  0  0  0  0  0  0  0  0
    6.0177   -3.0606   -3.3205 H   0  0  0  0  0  0  0  0  0  0  0  0
  1  2  1  0
  1 13  1  0
  1 14  1  0
  1 15  1  0
  2  3  1  0
  2  4  1  0
  2 16  1  0
  3 17  1  0
  3 18  1  0
  3 19  1  0
  4 12  1  0
  4  5  1  0
  5  6  1  0
  5 20  1  0
  5 21  1  0
  6  7  1  0
  6 22  1  0
  6 23  1  0
  7 11  1  0
  7  8  1  0
  8  9  2  0
  9 10  1  0
  9 24  1  0
 10 11  2  0
 11 12  1  0
 12 25  1  0
 12 26  1  0
M  END
>  <i_m_ct_stereo_status>  (327) 
1

>  <s_m_source_file>  (327) 
/var/tmp/pbs.5076255.sched01/tmpwmgilt76/96rd2vfdyj.sdf

>  <i_m_source_file_index>  (327) 
42

>  <i_lp_mmshare_version>  (327) 
48012

>  <i_f3d_flags>  (327) 
0

>  <s_epik_input>  (327) 
W0NIM11bQ0hdKFtDSDNdKU4oW0NIMl1bQ0gyXTEpW0NIMl1jKG4xMiluW2NIXW4y

>  <s_epik_cmdline>  (327) 
J2VwaWtfcHl0aG9uJywgJy1waHQnLCAnMi4wJywgJy1waCcsICc3LjAnLCAnLXRuJywgJzgnLCAnLW1hJywgJzIwMCcsICctaW1hZScsICc8aW5maWxlLm1hZT4nLCAnLW9tYWUnLCAnPG91dGZpbGUubWFlPic=

>  <r_lp_tautomer_probability>  (327) 
1

>  <r_epik_Ionization_Penalty>  (327) 
0.0854586

>  <r_epik_Ionization_Penalty_Charging>  (327) 
0

>  <r_epik_Ionization_Penalty_Neutral>  (327) 
0.0854586

>  <r_epik_State_Penalty>  (327) 
0.0738464

>  <r_epik_Charging_Adjusted_Penalty>  (327) 
0.0738464

>  <i_epik_Tot_Q>  (327) 
0

>  <i_epik_Tot_abs_Q>  (327) 
0

>  <s_lp_Force_Field>  (327) 
OPLS3e

>  <r_lp_Energy>  (327) 
20.4306

>  <b_lp_Chiralities_Consistent>  (327) 
1

>  <s_lp_Variant>  (327) 
88:0-1

>  <s_i_glide_gridfile>  (327) 
pfpi4k_grid

>  <i_i_glide_lignum>  (327) 
42

>  <i_i_glide_rotatable_bonds>  (327) 
1

>  <r_i_docking_score>  (327) 
-5.12732

>  <r_i_glide_ligand_efficiency>  (327) 
-0.427277

>  <r_i_glide_ligand_efficiency_sa>  (327) 
-0.978219

>  <r_i_glide_ligand_efficiency_ln>  (327) 
-1.47129

>  <r_i_glide_gscore>  (327) 
-5.12732

>  <r_i_glide_lipo>  (327) 
-0.923643

>  <r_i_glide_hbond>  (327) 
-0.256982

>  <r_i_glide_metal>  (327) 
-0

>  <r_i_glide_rewards>  (327) 
-2.39972

>  <r_i_glide_evdw>  (327) 
-18.6487

>  <r_i_glide_ecoul>  (327) 
-4.04364

>  <r_i_glide_erotb>  (327) 
0

>  <r_i_glide_esite>  (327) 
-0.00799316

>  <r_i_glide_emodel>  (327) 
-25.5831

>  <r_i_glide_energy>  (327) 
-22.6924

>  <r_i_glide_einternal>  (327) 
6.91191

>  <r_i_glide_intrahb_reward>  (327) 
-0

>  <i_i_glide_confnum>  (327) 
2

>  <i_i_glide_posenum>  (327) 
37

>  <r_i_glide_eff_state_penalty>  (327) 
0

>  <ligand_id>  (327) 
88

>  <original_smiles>  (327) 
CC(C)N1CCn2ncnc2C1

>  <smiles>  (327) 
[H]c1nc2n(n1)C([H])([H])C([H])([H])N(C([H])(C([H])([H])[H])C([H])([H])[H])C2([H])[H]

$$$$
88:0:1
     RDKit          3D

 26 27  0  0  1  0  0  0  0  0999 V2000
    5.3764   -3.1482   -2.8287 C   0  0  0  0  0  0  0  0  0  0  0  0
    3.9317   -2.9752   -2.3032 C   0  0  0  0  0  0  0  0  0  0  0  0
    3.2889   -1.7335   -2.9693 C   0  0  0  0  0  0  0  0  0  0  0  0
    3.7736   -2.9711   -0.8208 N   0  0  0  0  0  0  0  0  0  0  0  0
    3.8388   -1.6712   -0.1358 C   0  0  0  0  0  0  0  0  0  0  0  0
    5.2571   -1.0564   -0.2318 C   0  0  0  0  0  0  0  0  0  0  0  0
    6.2534   -2.0830    0.0082 N   0  0  0  0  0  0  0  0  0  0  0  0
    7.5785   -1.8564    0.0477 N   0  0  0  0  0  0  0  0  0  0  0  0
    8.0611   -3.0902    0.1363 C   0  0  0  0  0  0  0  0  0  0  0  0
    7.1491   -4.1042    0.1740 N   0  0  0  0  0  0  0  0  0  0  0  0
    6.0345   -3.4117    0.0568 C   0  0  0  0  0  0  0  0  0  0  0  0
    4.6206   -3.9194   -0.0696 C   0  0  0  0  0  0  0  0  0  0  0  0
    5.3921   -3.1435   -3.9133 H   0  0  0  0  0  0  0  0  0  0  0  0
    5.7921   -4.1105   -2.5233 H   0  0  0  0  0  0  0  0  0  0  0  0
    6.0462   -2.3542   -2.4804 H   0  0  0  0  0  0  0  0  0  0  0  0
    3.3721   -3.8482   -2.6540 H   0  0  0  0  0  0  0  0  0  0  0  0
    3.4529   -1.7382   -4.0500 H   0  0  0  0  0  0  0  0  0  0  0  0
    3.6896   -0.7869   -2.5980 H   0  0  0  0  0  0  0  0  0  0  0  0
    2.2191   -1.7239   -2.8033 H   0  0  0  0  0  0  0  0  0  0  0  0
    3.0590   -0.9878   -0.4993 H   0  0  0  0  0  0  0  0  0  0  0  0
    3.5968   -1.8251    0.9207 H   0  0  0  0  0  0  0  0  0  0  0  0
    5.4307   -0.6758   -1.2385 H   0  0  0  0  0  0  0  0  0  0  0  0
    5.3844   -0.2244    0.4641 H   0  0  0  0  0  0  0  0  0  0  0  0
    9.1221   -3.2756    0.1627 H   0  0  0  0  0  0  0  0  0  0  0  0
    4.2012   -4.0381    0.9435 H   0  0  0  0  0  0  0  0  0  0  0  0
    4.6124   -4.9120   -0.5318 H   0  0  0  0  0  0  0  0  0  0  0  0
  1  2  1  0
  1 13  1  0
  1 14  1  0
  1 15  1  0
  2  3  1  0
  2  4  1  0
  2 16  1  0
  3 17  1  0
  3 18  1  0
  3 19  1  0
  4 12  1  0
  4  5  1  0
  5  6  1  0
  5 20  1  0
  5 21  1  0
  6  7  1  0
  6 22  1  0
  6 23  1  0
  7 11  1  0
  7  8  1  0
  8  9  2  0
  9 10  1  0
  9 24  1  0
 10 11  2  0
 11 12  1  0
 12 25  1  0
 12 26  1  0
M  END
>  <i_m_ct_stereo_status>  (328) 
1

>  <s_m_source_file>  (328) 
/var/tmp/pbs.5076255.sched01/tmpwmgilt76/96rd2vfdyj.sdf

>  <i_m_source_file_index>  (328) 
42

>  <i_lp_mmshare_version>  (328) 
48012

>  <i_f3d_flags>  (328) 
0

>  <s_epik_input>  (328) 
W0NIM11bQ0hdKFtDSDNdKU4oW0NIMl1bQ0gyXTEpW0NIMl1jKG4xMiluW2NIXW4y

>  <s_epik_cmdline>  (328) 
J2VwaWtfcHl0aG9uJywgJy1waHQnLCAnMi4wJywgJy1waCcsICc3LjAnLCAnLXRuJywgJzgnLCAnLW1hJywgJzIwMCcsICctaW1hZScsICc8aW5maWxlLm1hZT4nLCAnLW9tYWUnLCAnPG91dGZpbGUubWFlPic=

>  <r_lp_tautomer_probability>  (328) 
1

>  <r_epik_Ionization_Penalty>  (328) 
0.0854586

>  <r_epik_Ionization_Penalty_Charging>  (328) 
0

>  <r_epik_Ionization_Penalty_Neutral>  (328) 
0.0854586

>  <r_epik_State_Penalty>  (328) 
0.0738464

>  <r_epik_Charging_Adjusted_Penalty>  (328) 
0.0738464

>  <i_epik_Tot_Q>  (328) 
0

>  <i_epik_Tot_abs_Q>  (328) 
0

>  <s_lp_Force_Field>  (328) 
OPLS3e

>  <r_lp_Energy>  (328) 
20.4306

>  <b_lp_Chiralities_Consistent>  (328) 
1

>  <s_lp_Variant>  (328) 
88:0-1

>  <s_i_glide_gridfile>  (328) 
pfpi4k_grid

>  <i_i_glide_lignum>  (328) 
42

>  <i_i_glide_rotatable_bonds>  (328) 
1

>  <r_i_docking_score>  (328) 
-4.23178

>  <r_i_glide_ligand_efficiency>  (328) 
-0.352648

>  <r_i_glide_ligand_efficiency_sa>  (328) 
-0.807363

>  <r_i_glide_ligand_efficiency_ln>  (328) 
-1.21432

>  <r_i_glide_gscore>  (328) 
-4.23178

>  <r_i_glide_lipo>  (328) 
-0.230179

>  <r_i_glide_hbond>  (328) 
-0.0947663

>  <r_i_glide_metal>  (328) 
-0

>  <r_i_glide_rewards>  (328) 
-2.6408

>  <r_i_glide_evdw>  (328) 
-20.5217

>  <r_i_glide_ecoul>  (328) 
-1.5805

>  <r_i_glide_erotb>  (328) 
0

>  <r_i_glide_esite>  (328) 
-0.0028763

>  <r_i_glide_emodel>  (328) 
-23.7273

>  <r_i_glide_energy>  (328) 
-22.1022

>  <r_i_glide_einternal>  (328) 
7.21047

>  <r_i_glide_intrahb_reward>  (328) 
-0

>  <i_i_glide_confnum>  (328) 
2

>  <i_i_glide_posenum>  (328) 
29

>  <r_i_glide_eff_state_penalty>  (328) 
0

>  <ligand_id>  (328) 
88

>  <original_smiles>  (328) 
CC(C)N1CCn2ncnc2C1

>  <smiles>  (328) 
[H]c1nc2n(n1)C([H])([H])C([H])([H])N(C([H])(C([H])([H])[H])C([H])([H])[H])C2([H])[H]

$$$$
88:0:2
     RDKit          3D

 26 27  0  0  1  0  0  0  0  0999 V2000
    6.4071   -3.0525   -1.9191 C   0  0  0  0  0  0  0  0  0  0  0  0
    4.9381   -3.5078   -1.8548 C   0  0  0  0  0  0  0  0  0  0  0  0
    4.3070   -3.3640   -3.2561 C   0  0  0  0  0  0  0  0  0  0  0  0
    4.1807   -2.7354   -0.8491 N   0  0  0  0  0  0  0  0  0  0  0  0
    4.8064   -2.6574    0.4871 C   0  0  0  0  0  0  0  0  0  0  0  0
    4.9407   -4.0522    1.1569 C   0  0  0  0  0  0  0  0  0  0  0  0
    3.7267   -4.8141    0.9597 N   0  0  0  0  0  0  0  0  0  0  0  0
    3.4699   -5.9919    1.5627 N   0  0  0  0  0  0  0  0  0  0  0  0
    2.3042   -6.3329    1.0108 C   0  0  0  0  0  0  0  0  0  0  0  0
    1.7903   -5.4562    0.0935 N   0  0  0  0  0  0  0  0  0  0  0  0
    2.7424   -4.5295    0.1140 C   0  0  0  0  0  0  0  0  0  0  0  0
    2.8057   -3.2339   -0.6462 C   0  0  0  0  0  0  0  0  0  0  0  0
    6.9376   -3.5549   -2.7237 H   0  0  0  0  0  0  0  0  0  0  0  0
    6.9534   -3.2858   -1.0066 H   0  0  0  0  0  0  0  0  0  0  0  0
    6.4758   -1.9775   -2.0983 H   0  0  0  0  0  0  0  0  0  0  0  0
    4.9241   -4.5666   -1.5893 H   0  0  0  0  0  0  0  0  0  0  0  0
    4.9342   -3.8359   -4.0130 H   0  0  0  0  0  0  0  0  0  0  0  0
    4.1824   -2.3167   -3.5332 H   0  0  0  0  0  0  0  0  0  0  0  0
    3.3351   -3.8511   -3.3277 H   0  0  0  0  0  0  0  0  0  0  0  0
    5.7683   -2.1434    0.4545 H   0  0  0  0  0  0  0  0  0  0  0  0
    4.1719   -2.0294    1.1165 H   0  0  0  0  0  0  0  0  0  0  0  0
    5.7640   -4.6171    0.7234 H   0  0  0  0  0  0  0  0  0  0  0  0
    5.1335   -3.9531    2.2220 H   0  0  0  0  0  0  0  0  0  0  0  0
    1.8163   -7.2613    1.2693 H   0  0  0  0  0  0  0  0  0  0  0  0
    2.2722   -2.4868   -0.0559 H   0  0  0  0  0  0  0  0  0  0  0  0
    2.2497   -3.3294   -1.5755 H   0  0  0  0  0  0  0  0  0  0  0  0
  1  2  1  0
  1 13  1  0
  1 14  1  0
  1 15  1  0
  2  3  1  0
  2  4  1  0
  2 16  1  0
  3 17  1  0
  3 18  1  0
  3 19  1  0
  4 12  1  0
  4  5  1  0
  5  6  1  0
  5 20  1  0
  5 21  1  0
  6  7  1  0
  6 22  1  0
  6 23  1  0
  7 11  1  0
  7  8  1  0
  8  9  2  0
  9 10  1  0
  9 24  1  0
 10 11  2  0
 11 12  1  0
 12 25  1  0
 12 26  1  0
M  END
>  <i_m_ct_stereo_status>  (329) 
1

>  <s_m_source_file>  (329) 
/var/tmp/pbs.5076255.sched01/tmpwmgilt76/96rd2vfdyj.sdf

>  <i_m_source_file_index>  (329) 
42

>  <i_lp_mmshare_version>  (329) 
48012

>  <i_f3d_flags>  (329) 
0

>  <s_epik_input>  (329) 
W0NIM11bQ0hdKFtDSDNdKU4oW0NIMl1bQ0gyXTEpW0NIMl1jKG4xMiluW2NIXW4y

>  <s_epik_cmdline>  (329) 
J2VwaWtfcHl0aG9uJywgJy1waHQnLCAnMi4wJywgJy1waCcsICc3LjAnLCAnLXRuJywgJzgnLCAnLW1hJywgJzIwMCcsICctaW1hZScsICc8aW5maWxlLm1hZT4nLCAnLW9tYWUnLCAnPG91dGZpbGUubWFlPic=

>  <r_lp_tautomer_probability>  (329) 
1

>  <r_epik_Ionization_Penalty>  (329) 
0.0854586

>  <r_epik_Ionization_Penalty_Charging>  (329) 
0

>  <r_epik_Ionization_Penalty_Neutral>  (329) 
0.0854586

>  <r_epik_State_Penalty>  (329) 
0.0738464

>  <r_epik_Charging_Adjusted_Penalty>  (329) 
0.0738464

>  <i_epik_Tot_Q>  (329) 
0

>  <i_epik_Tot_abs_Q>  (329) 
0

>  <s_lp_Force_Field>  (329) 
OPLS3e

>  <r_lp_Energy>  (329) 
20.4306

>  <b_lp_Chiralities_Consistent>  (329) 
1

>  <s_lp_Variant>  (329) 
88:0-1

>  <s_i_glide_gridfile>  (329) 
pfpi4k_grid

>  <i_i_glide_lignum>  (329) 
42

>  <i_i_glide_rotatable_bonds>  (329) 
1

>  <r_i_docking_score>  (329) 
-3.87426

>  <r_i_glide_ligand_efficiency>  (329) 
-0.322855

>  <r_i_glide_ligand_efficiency_sa>  (329) 
-0.739153

>  <r_i_glide_ligand_efficiency_ln>  (329) 
-1.11173

>  <r_i_glide_gscore>  (329) 
-3.87426

>  <r_i_glide_lipo>  (329) 
-0.285468

>  <r_i_glide_hbond>  (329) 
-0.0824989

>  <r_i_glide_metal>  (329) 
-0

>  <r_i_glide_rewards>  (329) 
-2.25885

>  <r_i_glide_evdw>  (329) 
-16.0838

>  <r_i_glide_ecoul>  (329) 
-2.54301

>  <r_i_glide_erotb>  (329) 
0

>  <r_i_glide_esite>  (329) 
-0.0618055

>  <r_i_glide_emodel>  (329) 
-24.0867

>  <r_i_glide_energy>  (329) 
-18.6268

>  <r_i_glide_einternal>  (329) 
0.0672472

>  <r_i_glide_intrahb_reward>  (329) 
-0

>  <i_i_glide_confnum>  (329) 
1

>  <i_i_glide_posenum>  (329) 
2

>  <r_i_glide_eff_state_penalty>  (329) 
0

>  <ligand_id>  (329) 
88

>  <original_smiles>  (329) 
CC(C)N1CCn2ncnc2C1

>  <smiles>  (329) 
[H]c1nc2n(n1)C([H])([H])C([H])([H])N(C([H])(C([H])([H])[H])C([H])([H])[H])C2([H])[H]

$$$$
88:1:0
     RDKit          3D

 27 28  0  0  1  0  0  0  0  0999 V2000
    4.2969   -3.1234   -3.6366 C   0  0  0  0  0  0  0  0  0  0  0  0
    3.1283   -2.2553   -3.1371 C   0  0  0  0  0  0  0  0  0  0  0  0
    3.1251   -0.8965   -3.8877 C   0  0  0  0  0  0  0  0  0  0  0  0
    3.1144   -2.1190   -1.6379 N   0  0  2  0  0  0  0  0  0  0  0  0
    4.2954   -1.3653   -1.1076 C   0  0  0  0  0  0  0  0  0  0  0  0
    4.1127   -0.9930    0.3639 C   0  0  0  0  0  0  0  0  0  0  0  0
    3.6069   -2.1296    1.0702 N   0  0  0  0  0  0  0  0  0  0  0  0
    3.6016   -2.2086    2.4169 N   0  0  0  0  0  0  0  0  0  0  0  0
    3.0012   -3.3686    2.6187 C   0  0  0  0  0  0  0  0  0  0  0  0
    2.6143   -4.0603    1.4991 N   0  0  0  0  0  0  0  0  0  0  0  0
    3.0110   -3.2102    0.5578 C   0  0  0  0  0  0  0  0  0  0  0  0
    2.9254   -3.4412   -0.9347 C   0  0  0  0  0  0  0  0  0  0  0  0
    4.3316   -3.1467   -4.7257 H   0  0  0  0  0  0  0  0  0  0  0  0
    4.2203   -4.1666   -3.3178 H   0  0  0  0  0  0  0  0  0  0  0  0
    5.2632   -2.7360   -3.3058 H   0  0  0  0  0  0  0  0  0  0  0  0
    2.2043   -2.7644   -3.4208 H   0  0  0  0  0  0  0  0  0  0  0  0
    3.2097   -1.0586   -4.9620 H   0  0  0  0  0  0  0  0  0  0  0  0
    3.9687   -0.2545   -3.6452 H   0  0  0  0  0  0  0  0  0  0  0  0
    2.2164   -0.3223   -3.7179 H   0  0  0  0  0  0  0  0  0  0  0  0
    5.1831   -1.9940   -1.2037 H   0  0  0  0  0  0  0  0  0  0  0  0
    4.4915   -0.4357   -1.6364 H   0  0  0  0  0  0  0  0  0  0  0  0
    5.0696   -0.6827    0.7868 H   0  0  0  0  0  0  0  0  0  0  0  0
    3.4003   -0.1712    0.4752 H   0  0  0  0  0  0  0  0  0  0  0  0
    2.8300   -3.7324    3.6184 H   0  0  0  0  0  0  0  0  0  0  0  0
    1.9687   -3.9052   -1.1819 H   0  0  0  0  0  0  0  0  0  0  0  0
    3.7189   -4.1487   -1.1851 H   0  0  0  0  0  0  0  0  0  0  0  0
    2.2837   -1.5740   -1.3996 H   0  0  0  0  0  0  0  0  0  0  0  0
  1  2  1  0
  1 13  1  0
  1 14  1  0
  1 15  1  0
  2  3  1  0
  2  4  1  0
  2 16  1  0
  3 17  1  0
  3 18  1  0
  3 19  1  0
  4 12  1  0
  4  5  1  0
  4 27  1  6
  5  6  1  0
  5 20  1  0
  5 21  1  0
  6  7  1  0
  6 22  1  0
  6 23  1  0
  7 11  1  0
  7  8  1  0
  8  9  2  0
  9 10  1  0
  9 24  1  0
 10 11  2  0
 11 12  1  0
 12 25  1  0
 12 26  1  0
M  CHG  1   4   1
M  END
>  <i_m_ct_stereo_status>  (330) 
1

>  <s_m_source_file>  (330) 
/var/tmp/pbs.5076255.sched01/tmpwmgilt76/96rd2vfdyj.sdf

>  <i_m_source_file_index>  (330) 
43

>  <i_lp_mmshare_version>  (330) 
48012

>  <i_f3d_flags>  (330) 
0

>  <s_epik_input>  (330) 
W0NIM11bQ0hdKFtDSDNdKU4oW0NIMl1bQ0gyXTEpW0NIMl1jKG4xMiluW2NIXW4y

>  <s_epik_cmdline>  (330) 
J2VwaWtfcHl0aG9uJywgJy1waHQnLCAnMi4wJywgJy1waCcsICc3LjAnLCAnLXRuJywgJzgnLCAnLW1hJywgJzIwMCcsICctaW1hZScsICc8aW5maWxlLm1hZT4nLCAnLW9tYWUnLCAnPG91dGZpbGUubWFlPic=

>  <r_lp_tautomer_probability>  (330) 
1

>  <r_epik_Ionization_Penalty>  (330) 
1.24112

>  <r_epik_Ionization_Penalty_Charging>  (330) 
1.24112

>  <r_epik_Ionization_Penalty_Neutral>  (330) 
9.12494e-10

>  <r_epik_State_Penalty>  (330) 
1.31518

>  <r_epik_Charging_Adjusted_Penalty>  (330) 
2.5563

>  <i_epik_Tot_Q>  (330) 
1

>  <i_epik_Tot_abs_Q>  (330) 
1

>  <s_lp_Force_Field>  (330) 
OPLS3e

>  <r_lp_Energy>  (330) 
23.6166

>  <b_lp_Chiralities_Consistent>  (330) 
1

>  <s_lp_Variant>  (330) 
88:0-2

>  <s_i_glide_gridfile>  (330) 
pfpi4k_grid

>  <i_i_glide_lignum>  (330) 
43

>  <i_i_glide_rotatable_bonds>  (330) 
1

>  <r_i_docking_score>  (330) 
-4.7888

>  <r_i_glide_ligand_efficiency>  (330) 
-0.399067

>  <r_i_glide_ligand_efficiency_sa>  (330) 
-0.913635

>  <r_i_glide_ligand_efficiency_ln>  (330) 
-1.37415

>  <r_i_glide_gscore>  (330) 
-4.7888

>  <r_i_glide_lipo>  (330) 
-0.512824

>  <r_i_glide_hbond>  (330) 
-0.2

>  <r_i_glide_metal>  (330) 
-0

>  <r_i_glide_rewards>  (330) 
-2.25

>  <r_i_glide_evdw>  (330) 
-17.5308

>  <r_i_glide_ecoul>  (330) 
-5.53258

>  <r_i_glide_erotb>  (330) 
0

>  <r_i_glide_esite>  (330) 
-0.119552

>  <r_i_glide_emodel>  (330) 
-29.9938

>  <r_i_glide_energy>  (330) 
-23.0633

>  <r_i_glide_einternal>  (330) 
2.60009

>  <r_i_glide_intrahb_reward>  (330) 
-0

>  <i_i_glide_confnum>  (330) 
2

>  <i_i_glide_posenum>  (330) 
25

>  <r_i_glide_eff_state_penalty>  (330) 
0

>  <ligand_id>  (330) 
88

>  <original_smiles>  (330) 
CC(C)N1CCn2ncnc2C1

>  <smiles>  (330) 
[H]c1nc2n(n1)C([H])([H])C([H])([H])[N+]([H])(C([H])(C([H])([H])[H])C([H])([H])[H])C2([H])[H]

$$$$
88:1:1
     RDKit          3D

 27 28  0  0  1  0  0  0  0  0999 V2000
    3.5407   -2.5942   -3.7699 C   0  0  0  0  0  0  0  0  0  0  0  0
    3.5671   -1.9650   -2.3634 C   0  0  0  0  0  0  0  0  0  0  0  0
    4.6152   -0.8453   -2.2783 C   0  0  0  0  0  0  0  0  0  0  0  0
    3.7072   -2.9573   -1.2473 N   0  0  2  0  0  0  0  0  0  0  0  0
    4.9147   -3.8259   -1.3906 C   0  0  0  0  0  0  0  0  0  0  0  0
    5.1905   -4.6025   -0.1037 C   0  0  0  0  0  0  0  0  0  0  0  0
    3.9536   -5.1449    0.3842 N   0  0  0  0  0  0  0  0  0  0  0  0
    3.9112   -6.1305    1.2886 N   0  0  0  0  0  0  0  0  0  0  0  0
    2.6072   -6.2789    1.4669 C   0  0  0  0  0  0  0  0  0  0  0  0
    1.7979   -5.4570    0.7240 N   0  0  0  0  0  0  0  0  0  0  0  0
    2.7118   -4.7585    0.0773 C   0  0  0  0  0  0  0  0  0  0  0  0
    2.4402   -3.7250   -1.0113 C   0  0  0  0  0  0  0  0  0  0  0  0
    3.4686   -1.8046   -4.5207 H   0  0  0  0  0  0  0  0  0  0  0  0
    2.6695   -3.2461   -3.8881 H   0  0  0  0  0  0  0  0  0  0  0  0
    4.4470   -3.1651   -3.9966 H   0  0  0  0  0  0  0  0  0  0  0  0
    2.6131   -1.4517   -2.2254 H   0  0  0  0  0  0  0  0  0  0  0  0
    4.4876   -0.1834   -3.1399 H   0  0  0  0  0  0  0  0  0  0  0  0
    5.6394   -1.2107   -2.3182 H   0  0  0  0  0  0  0  0  0  0  0  0
    4.4951   -0.2539   -1.3679 H   0  0  0  0  0  0  0  0  0  0  0  0
    4.7442   -4.5653   -2.1780 H   0  0  0  0  0  0  0  0  0  0  0  0
    5.8170   -3.2582   -1.6493 H   0  0  0  0  0  0  0  0  0  0  0  0
    5.8587   -5.4364   -0.3292 H   0  0  0  0  0  0  0  0  0  0  0  0
    5.6240   -3.9683    0.6763 H   0  0  0  0  0  0  0  0  0  0  0  0
    2.2215   -6.9923    2.1631 H   0  0  0  0  0  0  0  0  0  0  0  0
    1.6372   -3.0640   -0.6908 H   0  0  0  0  0  0  0  0  0  0  0  0
    2.0995   -4.2508   -1.9056 H   0  0  0  0  0  0  0  0  0  0  0  0
    3.8246   -2.4096   -0.4156 H   0  0  0  0  0  0  0  0  0  0  0  0
  1  2  1  0
  1 13  1  0
  1 14  1  0
  1 15  1  0
  2  3  1  0
  2  4  1  0
  2 16  1  0
  3 17  1  0
  3 18  1  0
  3 19  1  0
  4 12  1  0
  4  5  1  0
  4 27  1  1
  5  6  1  0
  5 20  1  0
  5 21  1  0
  6  7  1  0
  6 22  1  0
  6 23  1  0
  7 11  1  0
  7  8  1  0
  8  9  2  0
  9 10  1  0
  9 24  1  0
 10 11  2  0
 11 12  1  0
 12 25  1  0
 12 26  1  0
M  CHG  1   4   1
M  END
>  <i_m_ct_stereo_status>  (331) 
1

>  <s_m_source_file>  (331) 
/var/tmp/pbs.5076255.sched01/tmpwmgilt76/96rd2vfdyj.sdf

>  <i_m_source_file_index>  (331) 
43

>  <i_lp_mmshare_version>  (331) 
48012

>  <i_f3d_flags>  (331) 
0

>  <s_epik_input>  (331) 
W0NIM11bQ0hdKFtDSDNdKU4oW0NIMl1bQ0gyXTEpW0NIMl1jKG4xMiluW2NIXW4y

>  <s_epik_cmdline>  (331) 
J2VwaWtfcHl0aG9uJywgJy1waHQnLCAnMi4wJywgJy1waCcsICc3LjAnLCAnLXRuJywgJzgnLCAnLW1hJywgJzIwMCcsICctaW1hZScsICc8aW5maWxlLm1hZT4nLCAnLW9tYWUnLCAnPG91dGZpbGUubWFlPic=

>  <r_lp_tautomer_probability>  (331) 
1

>  <r_epik_Ionization_Penalty>  (331) 
1.24112

>  <r_epik_Ionization_Penalty_Charging>  (331) 
1.24112

>  <r_epik_Ionization_Penalty_Neutral>  (331) 
9.12494e-10

>  <r_epik_State_Penalty>  (331) 
1.31518

>  <r_epik_Charging_Adjusted_Penalty>  (331) 
2.5563

>  <i_epik_Tot_Q>  (331) 
1

>  <i_epik_Tot_abs_Q>  (331) 
1

>  <s_lp_Force_Field>  (331) 
OPLS3e

>  <r_lp_Energy>  (331) 
23.6166

>  <b_lp_Chiralities_Consistent>  (331) 
1

>  <s_lp_Variant>  (331) 
88:0-2

>  <s_i_glide_gridfile>  (331) 
pfpi4k_grid

>  <i_i_glide_lignum>  (331) 
43

>  <i_i_glide_rotatable_bonds>  (331) 
1

>  <r_i_docking_score>  (331) 
-4.45294

>  <r_i_glide_ligand_efficiency>  (331) 
-0.371078

>  <r_i_glide_ligand_efficiency_sa>  (331) 
-0.849557

>  <r_i_glide_ligand_efficiency_ln>  (331) 
-1.27778

>  <r_i_glide_gscore>  (331) 
-4.45294

>  <r_i_glide_lipo>  (331) 
-0.203741

>  <r_i_glide_hbond>  (331) 
-0.10772

>  <r_i_glide_metal>  (331) 
-0

>  <r_i_glide_rewards>  (331) 
-2.28004

>  <r_i_glide_evdw>  (331) 
-16.4673

>  <r_i_glide_ecoul>  (331) 
-6.49455

>  <r_i_glide_erotb>  (331) 
0

>  <r_i_glide_esite>  (331) 
-0.0638839

>  <r_i_glide_emodel>  (331) 
-30.0102

>  <r_i_glide_energy>  (331) 
-22.9619

>  <r_i_glide_einternal>  (331) 
1.64612

>  <r_i_glide_intrahb_reward>  (331) 
-0

>  <i_i_glide_confnum>  (331) 
2

>  <i_i_glide_posenum>  (331) 
33

>  <r_i_glide_eff_state_penalty>  (331) 
0

>  <ligand_id>  (331) 
88

>  <original_smiles>  (331) 
CC(C)N1CCn2ncnc2C1

>  <smiles>  (331) 
[H]c1nc2n(n1)C([H])([H])C([H])([H])[N+]([H])(C([H])(C([H])([H])[H])C([H])([H])[H])C2([H])[H]

$$$$
88:1:2
     RDKit          3D

 27 28  0  0  1  0  0  0  0  0999 V2000
    2.5985   -2.4589   -3.9067 C   0  0  0  0  0  0  0  0  0  0  0  0
    3.1309   -1.5060   -2.8317 C   0  0  0  0  0  0  0  0  0  0  0  0
    3.8310   -0.3039   -3.5103 C   0  0  0  0  0  0  0  0  0  0  0  0
    3.9632   -2.2101   -1.8054 N   0  0  2  0  0  0  0  0  0  0  0  0
    5.2291   -2.7777   -2.3614 C   0  0  0  0  0  0  0  0  0  0  0  0
    6.1785   -3.2004   -1.2502 C   0  0  0  0  0  0  0  0  0  0  0  0
    5.4297   -3.9315   -0.2660 N   0  0  0  0  0  0  0  0  0  0  0  0
    6.0296   -4.6926    0.6731 N   0  0  0  0  0  0  0  0  0  0  0  0
    4.9785   -5.1233    1.3765 C   0  0  0  0  0  0  0  0  0  0  0  0
    3.7463   -4.6850    0.9563 N   0  0  0  0  0  0  0  0  0  0  0  0
    4.1068   -3.9360   -0.0805 C   0  0  0  0  0  0  0  0  0  0  0  0
    3.1669   -3.2219   -1.0221 C   0  0  0  0  0  0  0  0  0  0  0  0
    2.0653   -1.8663   -4.6425 H   0  0  0  0  0  0  0  0  0  0  0  0
    1.8700   -3.1698   -3.5062 H   0  0  0  0  0  0  0  0  0  0  0  0
    3.3852   -3.0145   -4.4297 H   0  0  0  0  0  0  0  0  0  0  0  0
    2.2732   -1.0830   -2.3145 H   0  0  0  0  0  0  0  0  0  0  0  0
    3.1833    0.1405   -4.2723 H   0  0  0  0  0  0  0  0  0  0  0  0
    4.7301   -0.5986   -4.0477 H   0  0  0  0  0  0  0  0  0  0  0  0
    4.0811    0.4861   -2.7966 H   0  0  0  0  0  0  0  0  0  0  0  0
    4.9996   -3.6480   -2.9792 H   0  0  0  0  0  0  0  0  0  0  0  0
    5.7854   -2.0762   -2.9686 H   0  0  0  0  0  0  0  0  0  0  0  0
    6.9585   -3.8348   -1.6670 H   0  0  0  0  0  0  0  0  0  0  0  0
    6.6408   -2.3403   -0.7582 H   0  0  0  0  0  0  0  0  0  0  0  0
    5.1163   -5.7606    2.2250 H   0  0  0  0  0  0  0  0  0  0  0  0
    2.3586   -2.7580   -0.4559 H   0  0  0  0  0  0  0  0  0  0  0  0
    2.7410   -3.9841   -1.6717 H   0  0  0  0  0  0  0  0  0  0  0  0
    4.2153   -1.4944   -1.1344 H   0  0  0  0  0  0  0  0  0  0  0  0
  1  2  1  0
  1 13  1  0
  1 14  1  0
  1 15  1  0
  2  3  1  0
  2  4  1  0
  2 16  1  0
  3 17  1  0
  3 18  1  0
  3 19  1  0
  4 12  1  0
  4  5  1  0
  4 27  1  1
  5  6  1  0
  5 20  1  0
  5 21  1  0
  6  7  1  0
  6 22  1  0
  6 23  1  0
  7 11  1  0
  7  8  1  0
  8  9  2  0
  9 10  1  0
  9 24  1  0
 10 11  2  0
 11 12  1  0
 12 25  1  0
 12 26  1  0
M  CHG  1   4   1
M  END
>  <i_m_ct_stereo_status>  (332) 
1

>  <s_m_source_file>  (332) 
/var/tmp/pbs.5076255.sched01/tmpwmgilt76/96rd2vfdyj.sdf

>  <i_m_source_file_index>  (332) 
43

>  <i_lp_mmshare_version>  (332) 
48012

>  <i_f3d_flags>  (332) 
0

>  <s_epik_input>  (332) 
W0NIM11bQ0hdKFtDSDNdKU4oW0NIMl1bQ0gyXTEpW0NIMl1jKG4xMiluW2NIXW4y

>  <s_epik_cmdline>  (332) 
J2VwaWtfcHl0aG9uJywgJy1waHQnLCAnMi4wJywgJy1waCcsICc3LjAnLCAnLXRuJywgJzgnLCAnLW1hJywgJzIwMCcsICctaW1hZScsICc8aW5maWxlLm1hZT4nLCAnLW9tYWUnLCAnPG91dGZpbGUubWFlPic=

>  <r_lp_tautomer_probability>  (332) 
1

>  <r_epik_Ionization_Penalty>  (332) 
1.24112

>  <r_epik_Ionization_Penalty_Charging>  (332) 
1.24112

>  <r_epik_Ionization_Penalty_Neutral>  (332) 
9.12494e-10

>  <r_epik_State_Penalty>  (332) 
1.31518

>  <r_epik_Charging_Adjusted_Penalty>  (332) 
2.5563

>  <i_epik_Tot_Q>  (332) 
1

>  <i_epik_Tot_abs_Q>  (332) 
1

>  <s_lp_Force_Field>  (332) 
OPLS3e

>  <r_lp_Energy>  (332) 
23.6166

>  <b_lp_Chiralities_Consistent>  (332) 
1

>  <s_lp_Variant>  (332) 
88:0-2

>  <s_i_glide_gridfile>  (332) 
pfpi4k_grid

>  <i_i_glide_lignum>  (332) 
43

>  <i_i_glide_rotatable_bonds>  (332) 
1

>  <r_i_docking_score>  (332) 
-4.41712

>  <r_i_glide_ligand_efficiency>  (332) 
-0.368093

>  <r_i_glide_ligand_efficiency_sa>  (332) 
-0.842723

>  <r_i_glide_ligand_efficiency_ln>  (332) 
-1.2675

>  <r_i_glide_gscore>  (332) 
-4.41712

>  <r_i_glide_lipo>  (332) 
-0.672971

>  <r_i_glide_hbond>  (332) 
0

>  <r_i_glide_metal>  (332) 
-0

>  <r_i_glide_rewards>  (332) 
-2.38448

>  <r_i_glide_evdw>  (332) 
-15.7348

>  <r_i_glide_ecoul>  (332) 
-3.63472

>  <r_i_glide_erotb>  (332) 
0

>  <r_i_glide_esite>  (332) 
-0.0277152

>  <r_i_glide_emodel>  (332) 
-25.7487

>  <r_i_glide_energy>  (332) 
-19.3696

>  <r_i_glide_einternal>  (332) 
2.70097

>  <r_i_glide_intrahb_reward>  (332) 
-0

>  <i_i_glide_confnum>  (332) 
2

>  <i_i_glide_posenum>  (332) 
16

>  <r_i_glide_eff_state_penalty>  (332) 
0

>  <ligand_id>  (332) 
88

>  <original_smiles>  (332) 
CC(C)N1CCn2ncnc2C1

>  <smiles>  (332) 
[H]c1nc2n(n1)C([H])([H])C([H])([H])[N+]([H])(C([H])(C([H])([H])[H])C([H])([H])[H])C2([H])[H]

$$$$
89:0:0
     RDKit          3D

 43 46  0  0  1  0  0  0  0  0999 V2000
    4.2134   -0.5707   -2.9369 C   0  0  0  0  0  0  0  0  0  0  0  0
    4.5432   -1.4191   -1.9532 C   0  0  0  0  0  0  0  0  0  0  0  0
    5.1794   -2.7394   -2.2289 C   0  0  2  0  0  0  0  0  0  0  0  0
    4.1515   -3.8081   -1.9469 C   0  0  0  0  0  0  0  0  0  0  0  0
    3.1142   -3.4869   -0.8341 C   0  0  1  0  0  0  0  0  0  0  0  0
    2.4752   -4.6410   -0.3105 O   0  0  0  0  0  0  0  0  0  0  0  0
    3.6036   -2.4649    0.2220 C   0  0  2  0  0  0  0  0  0  0  0  0
    4.2283   -1.2101   -0.4912 C   0  0  1  0  0  0  0  0  0  0  0  0
    5.4970   -0.6557    0.1077 C   0  0  0  0  0  0  0  0  0  0  0  0
    6.3240   -1.7482    0.6928 C   0  0  1  0  0  0  0  0  0  0  0  0
    7.4746   -1.0597    1.0585 O   0  0  0  0  0  0  0  0  0  0  0  0
    5.5611   -2.1981    1.9333 C   0  0  0  0  0  0  0  0  0  0  0  0
    4.3204   -3.0125    1.5434 C   0  0  1  0  0  0  0  0  0  0  0  0
    3.2985   -2.8385    2.6977 C   0  0  0  0  0  0  0  0  0  0  0  0
    4.7431   -4.5190    1.6293 C   0  0  0  0  0  0  0  0  0  0  0  0
    5.8191   -5.0802    0.6730 C   0  0  0  0  0  0  0  0  0  0  0  0
    7.0683   -4.2259    0.4170 C   0  0  0  0  0  0  0  0  0  0  0  0
    6.8361   -2.8663   -0.2600 C   0  0  1  0  0  0  0  0  0  0  0  0
    6.4803   -2.9030   -1.6530 O   0  0  0  0  0  0  0  0  0  0  0  0
    3.7645    0.3911   -2.7259 H   0  0  0  0  0  0  0  0  0  0  0  0
    4.4314   -0.7890   -3.9713 H   0  0  0  0  0  0  0  0  0  0  0  0
    5.3698   -2.8034   -3.3038 H   0  0  0  0  0  0  0  0  0  0  0  0
    3.5333   -3.8599   -2.8475 H   0  0  0  0  0  0  0  0  0  0  0  0
    4.6457   -4.7622   -1.9175 H   0  0  0  0  0  0  0  0  0  0  0  0
    2.2930   -2.9710   -1.3410 H   0  0  0  0  0  0  0  0  0  0  0  0
    2.5834   -5.3112   -0.9712 H   0  0  0  0  0  0  0  0  0  0  0  0
    2.6604   -2.0547    0.5884 H   0  0  0  0  0  0  0  0  0  0  0  0
    3.4896   -0.4142   -0.4384 H   0  0  0  0  0  0  0  0  0  0  0  0
    6.0855   -0.1319   -0.6362 H   0  0  0  0  0  0  0  0  0  0  0  0
    5.2292    0.0931    0.8590 H   0  0  0  0  0  0  0  0  0  0  0  0
    7.3156   -0.2064    1.4596 H   0  0  0  0  0  0  0  0  0  0  0  0
    6.1934   -2.7743    2.6062 H   0  0  0  0  0  0  0  0  0  0  0  0
    5.2647   -1.3370    2.5326 H   0  0  0  0  0  0  0  0  0  0  0  0
    3.7121   -3.1412    3.6650 H   0  0  0  0  0  0  0  0  0  0  0  0
    2.3870   -3.4214    2.5263 H   0  0  0  0  0  0  0  0  0  0  0  0
    2.9946   -1.7921    2.7993 H   0  0  0  0  0  0  0  0  0  0  0  0
    5.1255   -4.7068    2.6363 H   0  0  0  0  0  0  0  0  0  0  0  0
    3.8742   -5.1782    1.5819 H   0  0  0  0  0  0  0  0  0  0  0  0
    6.1598   -6.0267    1.0917 H   0  0  0  0  0  0  0  0  0  0  0  0
    5.3856   -5.4065   -0.2516 H   0  0  0  0  0  0  0  0  0  0  0  0
    7.6070   -4.0923    1.3570 H   0  0  0  0  0  0  0  0  0  0  0  0
    7.7398   -4.7975   -0.2197 H   0  0  0  0  0  0  0  0  0  0  0  0
    7.8781   -2.5893   -0.4500 H   0  0  0  0  0  0  0  0  0  0  0  0
  1  2  2  0
  1 20  1  0
  1 21  1  0
  2  8  1  0
  2  3  1  0
  3 19  1  0
  3  4  1  0
  3 22  1  6
  4  5  1  0
  4 23  1  0
  4 24  1  0
  5  6  1  0
  5  7  1  0
  5 25  1  6
  6 26  1  0
  7 13  1  0
  7  8  1  0
  7 27  1  1
  8  9  1  0
  8 28  1  6
  9 10  1  0
  9 29  1  0
  9 30  1  0
 10 18  1  0
 10 11  1  1
 10 12  1  0
 11 31  1  0
 12 13  1  0
 12 32  1  0
 12 33  1  0
 13 14  1  1
 13 15  1  0
 14 34  1  0
 14 35  1  0
 14 36  1  0
 15 16  1  0
 15 37  1  0
 15 38  1  0
 16 17  1  0
 16 39  1  0
 16 40  1  0
 17 18  1  0
 17 41  1  0
 17 42  1  0
 18 19  1  0
 18 43  1  6
M  END
>  <i_m_ct_stereo_status>  (333) 
1

>  <s_m_source_file>  (333) 
/var/tmp/pbs.5076255.sched01/tmpwmgilt76/96rd2vfdyj.sdf

>  <i_m_source_file_index>  (333) 
44

>  <i_lp_mmshare_version>  (333) 
48012

>  <i_f3d_flags>  (333) 
0

>  <s_epik_input>  (333) 
W09IXVtDQEBIXTFbQ0gyXVtDQEhdKE8yKUMoPVtDSDJdKVtDQEhdKFtDSDJdMylbQ0hdMVtDQEBdKFtDSDJdNCkoW0NIM10pW0NIMl1bQ0gyXVtDSDJdW0NIXTJbQ0BAXTM0W09IXQ==

>  <s_epik_cmdline>  (333) 
J2VwaWtfcHl0aG9uJywgJy1waHQnLCAnMi4wJywgJy1waCcsICc3LjAnLCAnLXRuJywgJzgnLCAnLW1hJywgJzIwMCcsICctaW1hZScsICc8aW5maWxlLm1hZT4nLCAnLW9tYWUnLCAnPG91dGZpbGUubWFlPic=

>  <r_lp_tautomer_probability>  (333) 
1

>  <r_epik_Ionization_Penalty>  (333) 
4.30725e-07

>  <r_epik_Ionization_Penalty_Charging>  (333) 
0

>  <r_epik_Ionization_Penalty_Neutral>  (333) 
4.30725e-07

>  <r_epik_State_Penalty>  (333) 
-0

>  <r_epik_Charging_Adjusted_Penalty>  (333) 
0

>  <i_epik_Tot_Q>  (333) 
0

>  <i_epik_Tot_abs_Q>  (333) 
0

>  <s_lp_Force_Field>  (333) 
OPLS3e

>  <r_lp_Energy>  (333) 
69.426

>  <b_lp_Chiralities_Consistent>  (333) 
1

>  <s_lp_Variant>  (333) 
89:0-1

>  <s_i_glide_gridfile>  (333) 
pfpi4k_grid

>  <i_i_glide_lignum>  (333) 
44

>  <i_i_glide_rotatable_bonds>  (333) 
2

>  <r_i_docking_score>  (333) 
-4.85398

>  <r_i_glide_ligand_efficiency>  (333) 
-0.255473

>  <r_i_glide_ligand_efficiency_sa>  (333) 
-0.681704

>  <r_i_glide_ligand_efficiency_ln>  (333) 
-1.23059

>  <r_i_glide_gscore>  (333) 
-4.85398

>  <r_i_glide_lipo>  (333) 
-0.85452

>  <r_i_glide_hbond>  (333) 
-0.305541

>  <r_i_glide_metal>  (333) 
-0

>  <r_i_glide_rewards>  (333) 
-1.60664

>  <r_i_glide_evdw>  (333) 
-16.057

>  <r_i_glide_ecoul>  (333) 
-8.56289

>  <r_i_glide_erotb>  (333) 
0

>  <r_i_glide_esite>  (333) 
0

>  <r_i_glide_emodel>  (333) 
-28.8867

>  <r_i_glide_energy>  (333) 
-24.6199

>  <r_i_glide_einternal>  (333) 
1.72797

>  <r_i_glide_intrahb_reward>  (333) 
-0

>  <i_i_glide_confnum>  (333) 
1

>  <i_i_glide_posenum>  (333) 
13

>  <r_i_glide_eff_state_penalty>  (333) 
0

>  <ligand_id>  (333) 
89

>  <original_smiles>  (333) 
C=C1C2CC(O)C3C1CC1(O)CC3(C)CCCC1O2

>  <smiles>  (333) 
[H]OC1([H])C([H])([H])C2([H])OC3([H])C([H])([H])C([H])([H])C([H])([H])C4(C([H])([H])[H])C([H])([H])C3(O[H])C([H])([H])C([H])(C2=C([H])[H])C14[H]

$$$$
89:0:1
     RDKit          3D

 43 46  0  0  1  0  0  0  0  0999 V2000
    3.3828   -2.0119   -2.6848 C   0  0  0  0  0  0  0  0  0  0  0  0
    3.8945   -2.3964   -1.5056 C   0  0  0  0  0  0  0  0  0  0  0  0
    4.3921   -3.7878   -1.2402 C   0  0  2  0  0  0  0  0  0  0  0  0
    3.4012   -4.4871   -0.2920 C   0  0  0  0  0  0  0  0  0  0  0  0
    2.7410   -3.5483    0.7248 C   0  0  1  0  0  0  0  0  0  0  0  0
    2.2248   -4.2766    1.8225 O   0  0  0  0  0  0  0  0  0  0  0  0
    3.5122   -2.2435    1.0526 C   0  0  2  0  0  0  0  0  0  0  0  0
    3.9616   -1.5102   -0.2841 C   0  0  1  0  0  0  0  0  0  0  0  0
    5.3588   -0.9105   -0.2957 C   0  0  0  0  0  0  0  0  0  0  0  0
    6.3084   -1.7187    0.5618 C   0  0  1  0  0  0  0  0  0  0  0  0
    7.5631   -1.0587    0.4843 O   0  0  0  0  0  0  0  0  0  0  0  0
    5.8159   -1.5059    1.9931 C   0  0  0  0  0  0  0  0  0  0  0  0
    4.5019   -2.2409    2.2992 C   0  0  1  0  0  0  0  0  0  0  0  0
    3.8015   -1.4378    3.4258 C   0  0  0  0  0  0  0  0  0  0  0  0
    4.8993   -3.6008    2.9643 C   0  0  0  0  0  0  0  0  0  0  0  0
    5.6764   -4.6665    2.1609 C   0  0  0  0  0  0  0  0  0  0  0  0
    6.8373   -4.2039    1.2700 C   0  0  0  0  0  0  0  0  0  0  0  0
    6.5091   -3.2228    0.1328 C   0  0  1  0  0  0  0  0  0  0  0  0
    5.7987   -3.8501   -0.9532 O   0  0  0  0  0  0  0  0  0  0  0  0
    3.0005   -1.0099   -2.8289 H   0  0  0  0  0  0  0  0  0  0  0  0
    3.3154   -2.6991   -3.5176 H   0  0  0  0  0  0  0  0  0  0  0  0
    4.3271   -4.3080   -2.1957 H   0  0  0  0  0  0  0  0  0  0  0  0
    2.5449   -4.7762   -0.8963 H   0  0  0  0  0  0  0  0  0  0  0  0
    3.7589   -5.4474    0.0658 H   0  0  0  0  0  0  0  0  0  0  0  0
    1.8506   -3.1832    0.2123 H   0  0  0  0  0  0  0  0  0  0  0  0
    2.9542   -4.6084    2.3210 H   0  0  0  0  0  0  0  0  0  0  0  0
    2.6916   -1.5982    1.3676 H   0  0  0  0  0  0  0  0  0  0  0  0
    3.2589   -0.6946   -0.4739 H   0  0  0  0  0  0  0  0  0  0  0  0
    5.7446   -0.8140   -1.3131 H   0  0  0  0  0  0  0  0  0  0  0  0
    5.2949    0.1097    0.0887 H   0  0  0  0  0  0  0  0  0  0  0  0
    7.5241   -0.2212    0.9510 H   0  0  0  0  0  0  0  0  0  0  0  0
    6.5853   -1.8004    2.6916 H   0  0  0  0  0  0  0  0  0  0  0  0
    5.6929   -0.4368    2.1774 H   0  0  0  0  0  0  0  0  0  0  0  0
    4.4319   -1.3405    4.3096 H   0  0  0  0  0  0  0  0  0  0  0  0
    2.8658   -1.9100    3.7329 H   0  0  0  0  0  0  0  0  0  0  0  0
    3.5551   -0.4235    3.0970 H   0  0  0  0  0  0  0  0  0  0  0  0
    5.5176   -3.3736    3.8336 H   0  0  0  0  0  0  0  0  0  0  0  0
    4.0388   -4.0756    3.4308 H   0  0  0  0  0  0  0  0  0  0  0  0
    6.0972   -5.3633    2.8889 H   0  0  0  0  0  0  0  0  0  0  0  0
    5.0125   -5.2987    1.5948 H   0  0  0  0  0  0  0  0  0  0  0  0
    7.6125   -3.7677    1.8876 H   0  0  0  0  0  0  0  0  0  0  0  0
    7.3033   -5.0915    0.8386 H   0  0  0  0  0  0  0  0  0  0  0  0
    7.4674   -3.1892   -0.3849 H   0  0  0  0  0  0  0  0  0  0  0  0
  1  2  2  0
  1 20  1  0
  1 21  1  0
  2  8  1  0
  2  3  1  0
  3 19  1  0
  3  4  1  0
  3 22  1  6
  4  5  1  0
  4 23  1  0
  4 24  1  0
  5  6  1  0
  5  7  1  0
  5 25  1  6
  6 26  1  0
  7 13  1  0
  7  8  1  0
  7 27  1  1
  8  9  1  0
  8 28  1  6
  9 10  1  0
  9 29  1  0
  9 30  1  0
 10 18  1  0
 10 11  1  1
 10 12  1  0
 11 31  1  0
 12 13  1  0
 12 32  1  0
 12 33  1  0
 13 14  1  1
 13 15  1  0
 14 34  1  0
 14 35  1  0
 14 36  1  0
 15 16  1  0
 15 37  1  0
 15 38  1  0
 16 17  1  0
 16 39  1  0
 16 40  1  0
 17 18  1  0
 17 41  1  0
 17 42  1  0
 18 19  1  0
 18 43  1  6
M  END
>  <i_m_ct_stereo_status>  (334) 
1

>  <s_m_source_file>  (334) 
/var/tmp/pbs.5076255.sched01/tmpwmgilt76/96rd2vfdyj.sdf

>  <i_m_source_file_index>  (334) 
44

>  <i_lp_mmshare_version>  (334) 
48012

>  <i_f3d_flags>  (334) 
0

>  <s_epik_input>  (334) 
W09IXVtDQEBIXTFbQ0gyXVtDQEhdKE8yKUMoPVtDSDJdKVtDQEhdKFtDSDJdMylbQ0hdMVtDQEBdKFtDSDJdNCkoW0NIM10pW0NIMl1bQ0gyXVtDSDJdW0NIXTJbQ0BAXTM0W09IXQ==

>  <s_epik_cmdline>  (334) 
J2VwaWtfcHl0aG9uJywgJy1waHQnLCAnMi4wJywgJy1waCcsICc3LjAnLCAnLXRuJywgJzgnLCAnLW1hJywgJzIwMCcsICctaW1hZScsICc8aW5maWxlLm1hZT4nLCAnLW9tYWUnLCAnPG91dGZpbGUubWFlPic=

>  <r_lp_tautomer_probability>  (334) 
1

>  <r_epik_Ionization_Penalty>  (334) 
4.30725e-07

>  <r_epik_Ionization_Penalty_Charging>  (334) 
0

>  <r_epik_Ionization_Penalty_Neutral>  (334) 
4.30725e-07

>  <r_epik_State_Penalty>  (334) 
-0

>  <r_epik_Charging_Adjusted_Penalty>  (334) 
0

>  <i_epik_Tot_Q>  (334) 
0

>  <i_epik_Tot_abs_Q>  (334) 
0

>  <s_lp_Force_Field>  (334) 
OPLS3e

>  <r_lp_Energy>  (334) 
69.426

>  <b_lp_Chiralities_Consistent>  (334) 
1

>  <s_lp_Variant>  (334) 
89:0-1

>  <s_i_glide_gridfile>  (334) 
pfpi4k_grid

>  <i_i_glide_lignum>  (334) 
44

>  <i_i_glide_rotatable_bonds>  (334) 
2

>  <r_i_docking_score>  (334) 
-4.03156

>  <r_i_glide_ligand_efficiency>  (334) 
-0.212187

>  <r_i_glide_ligand_efficiency_sa>  (334) 
-0.5662

>  <r_i_glide_ligand_efficiency_ln>  (334) 
-1.02209

>  <r_i_glide_gscore>  (334) 
-4.03156

>  <r_i_glide_lipo>  (334) 
-0.501204

>  <r_i_glide_hbond>  (334) 
-0.350929

>  <r_i_glide_metal>  (334) 
-0

>  <r_i_glide_rewards>  (334) 
-1.60664

>  <r_i_glide_evdw>  (334) 
-16.2039

>  <r_i_glide_ecoul>  (334) 
-5.08394

>  <r_i_glide_erotb>  (334) 
0

>  <r_i_glide_esite>  (334) 
0

>  <r_i_glide_emodel>  (334) 
-26.4663

>  <r_i_glide_energy>  (334) 
-21.2878

>  <r_i_glide_einternal>  (334) 
0.186503

>  <r_i_glide_intrahb_reward>  (334) 
-0

>  <i_i_glide_confnum>  (334) 
2

>  <i_i_glide_posenum>  (334) 
34

>  <r_i_glide_eff_state_penalty>  (334) 
0

>  <ligand_id>  (334) 
89

>  <original_smiles>  (334) 
C=C1C2CC(O)C3C1CC1(O)CC3(C)CCCC1O2

>  <smiles>  (334) 
[H]OC1([H])C([H])([H])C2([H])OC3([H])C([H])([H])C([H])([H])C([H])([H])C4(C([H])([H])[H])C([H])([H])C3(O[H])C([H])([H])C([H])(C2=C([H])[H])C14[H]

$$$$
89:0:2
     RDKit          3D

 43 46  0  0  1  0  0  0  0  0999 V2000
    2.7524   -3.0161   -2.6602 C   0  0  0  0  0  0  0  0  0  0  0  0
    3.4660   -2.9719   -1.5119 C   0  0  0  0  0  0  0  0  0  0  0  0
    3.6829   -4.1447   -0.5986 C   0  0  2  0  0  0  0  0  0  0  0  0
    2.8400   -3.9848    0.6610 C   0  0  0  0  0  0  0  0  0  0  0  0
    2.7076   -2.5261    1.1056 C   0  0  1  0  0  0  0  0  0  0  0  0
    2.3268   -2.4065    2.4518 O   0  0  0  0  0  0  0  0  0  0  0  0
    3.8124   -1.5653    0.5893 C   0  0  2  0  0  0  0  0  0  0  0  0
    4.0610   -1.7091   -0.9725 C   0  0  1  0  0  0  0  0  0  0  0  0
    5.5111   -1.7194   -1.4567 C   0  0  0  0  0  0  0  0  0  0  0  0
    6.4361   -2.3215   -0.4125 C   0  0  1  0  0  0  0  0  0  0  0  0
    7.7378   -2.2592   -0.9636 O   0  0  0  0  0  0  0  0  0  0  0  0
    6.4155   -1.3260    0.7411 C   0  0  0  0  0  0  0  0  0  0  0  0
    5.0849   -1.3614    1.5195 C   0  0  1  0  0  0  0  0  0  0  0  0
    4.9004    0.0255    2.1401 C   0  0  0  0  0  0  0  0  0  0  0  0
    5.3044   -2.2848    2.7530 C   0  0  0  0  0  0  0  0  0  0  0  0
    5.5645   -3.7814    2.5460 C   0  0  0  0  0  0  0  0  0  0  0  0
    6.5413   -4.1878    1.4396 C   0  0  0  0  0  0  0  0  0  0  0  0
    6.1553   -3.8046    0.0032 C   0  0  1  0  0  0  0  0  0  0  0  0
    5.0464   -4.5638   -0.4995 O   0  0  0  0  0  0  0  0  0  0  0  0
    2.6060   -2.1390   -3.2657 H   0  0  0  0  0  0  0  0  0  0  0  0
    2.2962   -3.9304   -3.0016 H   0  0  0  0  0  0  0  0  0  0  0  0
    3.2290   -5.0045   -1.0637 H   0  0  0  0  0  0  0  0  0  0  0  0
    1.8301   -4.2748    0.3635 H   0  0  0  0  0  0  0  0  0  0  0  0
    3.0521   -4.7165    1.4267 H   0  0  0  0  0  0  0  0  0  0  0  0
    1.8108   -2.1882    0.5932 H   0  0  0  0  0  0  0  0  0  0  0  0
    2.1023   -1.4904    2.6296 H   0  0  0  0  0  0  0  0  0  0  0  0
    3.2952   -0.6031    0.6074 H   0  0  0  0  0  0  0  0  0  0  0  0
    3.5553   -0.8906   -1.4804 H   0  0  0  0  0  0  0  0  0  0  0  0
    5.6131   -2.2492   -2.4116 H   0  0  0  0  0  0  0  0  0  0  0  0
    5.8091   -0.6913   -1.6665 H   0  0  0  0  0  0  0  0  0  0  0  0
    7.8437   -2.9579   -1.6027 H   0  0  0  0  0  0  0  0  0  0  0  0
    7.2679   -1.4931    1.4006 H   0  0  0  0  0  0  0  0  0  0  0  0
    6.5982   -0.3184    0.3568 H   0  0  0  0  0  0  0  0  0  0  0  0
    5.7661    0.3323    2.7384 H   0  0  0  0  0  0  0  0  0  0  0  0
    4.0109    0.1193    2.7710 H   0  0  0  0  0  0  0  0  0  0  0  0
    4.7727    0.7100    1.3059 H   0  0  0  0  0  0  0  0  0  0  0  0
    6.1789   -1.8918    3.2740 H   0  0  0  0  0  0  0  0  0  0  0  0
    4.5118   -2.1541    3.4850 H   0  0  0  0  0  0  0  0  0  0  0  0
    5.9622   -4.1638    3.4815 H   0  0  0  0  0  0  0  0  0  0  0  0
    4.6461   -4.3268    2.4695 H   0  0  0  0  0  0  0  0  0  0  0  0
    7.5335   -3.7857    1.6649 H   0  0  0  0  0  0  0  0  0  0  0  0
    6.6475   -5.2704    1.4823 H   0  0  0  0  0  0  0  0  0  0  0  0
    6.9209   -4.3352   -0.5497 H   0  0  0  0  0  0  0  0  0  0  0  0
  1  2  2  0
  1 20  1  0
  1 21  1  0
  2  8  1  0
  2  3  1  0
  3 19  1  0
  3  4  1  0
  3 22  1  6
  4  5  1  0
  4 23  1  0
  4 24  1  0
  5  6  1  0
  5  7  1  0
  5 25  1  6
  6 26  1  0
  7 13  1  0
  7  8  1  0
  7 27  1  6
  8  9  1  0
  8 28  1  6
  9 10  1  0
  9 29  1  0
  9 30  1  0
 10 18  1  0
 10 11  1  6
 10 12  1  0
 11 31  1  0
 12 13  1  0
 12 32  1  0
 12 33  1  0
 13 14  1  1
 13 15  1  0
 14 34  1  0
 14 35  1  0
 14 36  1  0
 15 16  1  0
 15 37  1  0
 15 38  1  0
 16 17  1  0
 16 39  1  0
 16 40  1  0
 17 18  1  0
 17 41  1  0
 17 42  1  0
 18 19  1  0
 18 43  1  6
M  END
>  <i_m_ct_stereo_status>  (335) 
1

>  <s_m_source_file>  (335) 
/var/tmp/pbs.5076255.sched01/tmpwmgilt76/96rd2vfdyj.sdf

>  <i_m_source_file_index>  (335) 
44

>  <i_lp_mmshare_version>  (335) 
48012

>  <i_f3d_flags>  (335) 
0

>  <s_epik_input>  (335) 
W09IXVtDQEBIXTFbQ0gyXVtDQEhdKE8yKUMoPVtDSDJdKVtDQEhdKFtDSDJdMylbQ0hdMVtDQEBdKFtDSDJdNCkoW0NIM10pW0NIMl1bQ0gyXVtDSDJdW0NIXTJbQ0BAXTM0W09IXQ==

>  <s_epik_cmdline>  (335) 
J2VwaWtfcHl0aG9uJywgJy1waHQnLCAnMi4wJywgJy1waCcsICc3LjAnLCAnLXRuJywgJzgnLCAnLW1hJywgJzIwMCcsICctaW1hZScsICc8aW5maWxlLm1hZT4nLCAnLW9tYWUnLCAnPG91dGZpbGUubWFlPic=

>  <r_lp_tautomer_probability>  (335) 
1

>  <r_epik_Ionization_Penalty>  (335) 
4.30725e-07

>  <r_epik_Ionization_Penalty_Charging>  (335) 
0

>  <r_epik_Ionization_Penalty_Neutral>  (335) 
4.30725e-07

>  <r_epik_State_Penalty>  (335) 
-0

>  <r_epik_Charging_Adjusted_Penalty>  (335) 
0

>  <i_epik_Tot_Q>  (335) 
0

>  <i_epik_Tot_abs_Q>  (335) 
0

>  <s_lp_Force_Field>  (335) 
OPLS3e

>  <r_lp_Energy>  (335) 
69.426

>  <b_lp_Chiralities_Consistent>  (335) 
1

>  <s_lp_Variant>  (335) 
89:0-1

>  <s_i_glide_gridfile>  (335) 
pfpi4k_grid

>  <i_i_glide_lignum>  (335) 
44

>  <i_i_glide_rotatable_bonds>  (335) 
2

>  <r_i_docking_score>  (335) 
-3.42466

>  <r_i_glide_ligand_efficiency>  (335) 
-0.180245

>  <r_i_glide_ligand_efficiency_sa>  (335) 
-0.480967

>  <r_i_glide_ligand_efficiency_ln>  (335) 
-0.868226

>  <r_i_glide_gscore>  (335) 
-3.42466

>  <r_i_glide_lipo>  (335) 
-0.4697

>  <r_i_glide_hbond>  (335) 
-0.16

>  <r_i_glide_metal>  (335) 
-0

>  <r_i_glide_rewards>  (335) 
-1.60664

>  <r_i_glide_evdw>  (335) 
-12.3186

>  <r_i_glide_ecoul>  (335) 
-3.81596

>  <r_i_glide_erotb>  (335) 
0

>  <r_i_glide_esite>  (335) 
0

>  <r_i_glide_emodel>  (335) 
-19.9512

>  <r_i_glide_energy>  (335) 
-16.1346

>  <r_i_glide_einternal>  (335) 
0.485641

>  <r_i_glide_intrahb_reward>  (335) 
-0

>  <i_i_glide_confnum>  (335) 
2

>  <i_i_glide_posenum>  (335) 
8

>  <r_i_glide_eff_state_penalty>  (335) 
0

>  <ligand_id>  (335) 
89

>  <original_smiles>  (335) 
C=C1C2CC(O)C3C1CC1(O)CC3(C)CCCC1O2

>  <smiles>  (335) 
[H]OC1([H])C([H])([H])C2([H])OC3([H])C([H])([H])C([H])([H])C([H])([H])C4(C([H])([H])[H])C([H])([H])C3(O[H])C([H])([H])C([H])(C2=C([H])[H])C14[H]

$$$$
90:0:0
     RDKit          3D

 66 72  0  0  1  0  0  0  0  0999 V2000
    3.0454   -8.6173    2.8358 C   0  0  0  0  0  0  0  0  0  0  0  0
    3.1371   -7.3091    3.3987 O   0  0  0  0  0  0  0  0  0  0  0  0
    3.3704   -6.2646    2.4448 C   0  0  2  0  0  0  0  0  0  0  0  0
    3.9006   -4.9922    3.1253 C   0  0  2  0  0  0  0  0  0  0  0  0
    3.0047   -4.3702    4.2366 C   0  0  2  0  0  0  0  0  0  0  0  0
    1.6195   -5.1187    4.6196 C   0  0  2  0  0  0  0  0  0  0  0  0
    0.7020   -5.9905    3.6583 C   0  0  0  0  0  0  0  0  0  0  0  0
   -0.3797   -6.6877    4.2734 C   0  0  0  0  0  0  0  0  0  0  0  0
   -1.1939   -7.5705    3.5451 C   0  0  0  0  0  0  0  0  0  0  0  0
   -0.9431   -7.8126    2.1904 C   0  0  0  0  0  0  0  0  0  0  0  0
    0.1062   -7.1510    1.5509 C   0  0  0  0  0  0  0  0  0  0  0  0
    0.9222   -6.2334    2.2579 C   0  0  0  0  0  0  0  0  0  0  0  0
    2.1697   -5.6476    1.5938 C   0  0  2  0  0  0  0  0  0  0  0  0
    2.2768   -5.3108   -0.0120 C   0  0  1  0  0  0  0  0  0  0  0  0
    1.0414   -5.4511   -0.7158 O   0  0  0  0  0  0  0  0  0  0  0  0
    2.8702   -3.7798   -0.3886 C   0  0  0  0  0  0  0  0  0  0  0  0
    3.4444   -3.0408    0.9944 C   0  0  2  0  0  0  0  0  0  0  0  0
    4.4951   -1.9434    0.7118 C   0  0  0  0  0  0  0  0  0  0  0  0
    5.4060   -2.2128   -0.3397 O   0  0  0  0  0  0  0  0  0  0  0  0
    3.7927   -4.2402    1.8164 C   0  0  1  0  0  0  0  0  0  0  0  0
    4.7485   -4.8107    0.8823 O   0  0  0  0  0  0  0  0  0  0  0  0
    6.1256   -4.7145    1.2271 C   0  0  0  0  0  0  0  0  0  0  0  0
    2.1027   -4.1890    1.7732 C   0  0  1  0  0  0  0  0  0  0  0  0
    2.5492   -2.8162    2.2551 C   0  0  2  0  0  0  0  0  0  0  0  0
    1.4802   -1.8929    2.0186 O   0  0  0  0  0  0  0  0  0  0  0  0
    1.7910   -0.5097    1.8902 C   0  0  0  0  0  0  0  0  0  0  0  0
    2.8718   -2.8677    3.8052 C   0  0  2  0  0  0  0  0  0  0  0  0
    4.0857   -2.1856    4.0117 O   0  0  0  0  0  0  0  0  0  0  0  0
    1.8704   -2.1411    4.7431 C   0  0  0  0  0  0  0  0  0  0  0  0
    0.5455   -2.8862    4.8971 C   0  0  0  0  0  0  0  0  0  0  0  0
    0.7514   -4.2454    5.4613 N   0  0  2  0  0  0  0  0  0  0  0  0
    1.1331   -4.2316    6.9006 C   0  0  0  0  0  0  0  0  0  0  0  0
    2.7952   -9.3348    3.6187 H   0  0  0  0  0  0  0  0  0  0  0  0
    3.9808   -8.9366    2.3714 H   0  0  0  0  0  0  0  0  0  0  0  0
    2.2694   -8.6862    2.0750 H   0  0  0  0  0  0  0  0  0  0  0  0
    4.1258   -6.7087    1.7934 H   0  0  0  0  0  0  0  0  0  0  0  0
    4.9241   -5.0913    3.4716 H   0  0  0  0  0  0  0  0  0  0  0  0
    3.5999   -4.3455    5.1542 H   0  0  0  0  0  0  0  0  0  0  0  0
    1.9837   -5.8962    5.2881 H   0  0  0  0  0  0  0  0  0  0  0  0
   -0.5605   -6.5971    5.3330 H   0  0  0  0  0  0  0  0  0  0  0  0
   -1.9950   -8.1056    4.0303 H   0  0  0  0  0  0  0  0  0  0  0  0
   -1.5295   -8.5402    1.6404 H   0  0  0  0  0  0  0  0  0  0  0  0
    0.3442   -7.4277    0.5357 H   0  0  0  0  0  0  0  0  0  0  0  0
    2.9713   -6.0664   -0.3651 H   0  0  0  0  0  0  0  0  0  0  0  0
    1.2131   -5.1923   -1.6206 H   0  0  0  0  0  0  0  0  0  0  0  0
    3.6458   -3.8774   -1.1547 H   0  0  0  0  0  0  0  0  0  0  0  0
    2.0862   -3.1508   -0.8180 H   0  0  0  0  0  0  0  0  0  0  0  0
    4.0281   -0.9936    0.4675 H   0  0  0  0  0  0  0  0  0  0  0  0
    5.0979   -1.7719    1.6039 H   0  0  0  0  0  0  0  0  0  0  0  0
    4.9166   -2.4472   -1.1148 H   0  0  0  0  0  0  0  0  0  0  0  0
    6.6867   -4.8585    0.3070 H   0  0  0  0  0  0  0  0  0  0  0  0
    6.4353   -5.4860    1.9339 H   0  0  0  0  0  0  0  0  0  0  0  0
    6.3884   -3.7396    1.6400 H   0  0  0  0  0  0  0  0  0  0  0  0
    1.3102   -4.0094    2.4768 H   0  0  0  0  0  0  0  0  0  0  0  0
    0.8744    0.0459    2.0759 H   0  0  0  0  0  0  0  0  0  0  0  0
    2.1288   -0.2245    0.8962 H   0  0  0  0  0  0  0  0  0  0  0  0
    2.5347   -0.1789    2.6121 H   0  0  0  0  0  0  0  0  0  0  0  0
    3.9360   -1.2878    3.7516 H   0  0  0  0  0  0  0  0  0  0  0  0
    2.3429   -2.0203    5.7207 H   0  0  0  0  0  0  0  0  0  0  0  0
    1.6545   -1.1153    4.4468 H   0  0  0  0  0  0  0  0  0  0  0  0
   -0.0933   -2.3221    5.5744 H   0  0  0  0  0  0  0  0  0  0  0  0
    0.0109   -2.9427    3.9459 H   0  0  0  0  0  0  0  0  0  0  0  0
    2.1531   -3.8742    7.0488 H   0  0  0  0  0  0  0  0  0  0  0  0
    1.0556   -5.2357    7.3289 H   0  0  0  0  0  0  0  0  0  0  0  0
    0.4630   -3.5816    7.4663 H   0  0  0  0  0  0  0  0  0  0  0  0
   -0.1447   -4.6946    5.4392 H   0  0  0  0  0  0  0  0  0  0  0  0
  1  2  1  0
  1 33  1  0
  1 34  1  0
  1 35  1  0
  2  3  1  0
  3 13  1  0
  3  4  1  0
  3 36  1  6
  4 20  1  0
  4  5  1  0
  4 37  1  1
  5 27  1  0
  5  6  1  0
  5 38  1  1
  6 31  1  0
  6  7  1  0
  6 39  1  1
  7 12  2  0
  7  8  1  0
  8  9  2  0
  8 40  1  0
  9 10  1  0
  9 41  1  0
 10 11  2  0
 10 42  1  0
 11 12  1  0
 11 43  1  0
 13 12  1  6
 13 23  1  0
 13 14  1  0
 14 15  1  0
 14 16  1  0
 14 44  1  6
 15 45  1  0
 16 17  1  0
 16 46  1  0
 16 47  1  0
 17 24  1  0
 17 18  1  6
 17 20  1  0
 18 19  1  0
 18 48  1  0
 18 49  1  0
 19 50  1  0
 20 21  1  6
 20 23  1  0
 21 22  1  0
 22 51  1  0
 22 52  1  0
 22 53  1  0
 23 24  1  0
 23 54  1  6
 24 25  1  6
 24 27  1  0
 25 26  1  0
 26 55  1  0
 26 56  1  0
 26 57  1  0
 27 28  1  6
 27 29  1  0
 28 58  1  0
 29 30  1  0
 29 59  1  0
 29 60  1  0
 30 31  1  0
 30 61  1  0
 30 62  1  0
 31 32  1  0
 31 66  1  1
 32 63  1  0
 32 64  1  0
 32 65  1  0
M  CHG  1  31   1
M  END
>  <i_m_ct_stereo_status>  (336) 
1

>  <s_m_source_file>  (336) 
/var/tmp/pbs.5076255.sched01/tmpwmgilt76/96rd2vfdyj.sdf

>  <i_m_source_file_index>  (336) 
45

>  <i_lp_mmshare_version>  (336) 
48012

>  <i_f3d_flags>  (336) 
0

>  <s_epik_input>  (336) 
W2NIXTFbY0hdW2NIXVtjSF1jKGMxW0NAQF0yMzQpW0NASF01W0NASF02W0NAQEhdKFtDQEhdMk9bQ0gzXSlbQ0BdNyhPW0NIM10pW0NAQF0oW0NIMl1bT0hdKShbQ0gyXVtDQEBIXTNbT0hdKVtDQF0oW0NASF00NykoT1tDSDNdKVtDQEBdNihbT0hdKVtDSDJdW0NIMl1ONVtDSDNd

>  <s_epik_cmdline>  (336) 
J2VwaWtfcHl0aG9uJywgJy1waHQnLCAnMi4wJywgJy1waCcsICc3LjAnLCAnLXRuJywgJzgnLCAnLW1hJywgJzIwMCcsICctaW1hZScsICc8aW5maWxlLm1hZT4nLCAnLW9tYWUnLCAnPG91dGZpbGUubWFlPic=

>  <r_epik_Ionization_Penalty>  (336) 
0.0261719

>  <r_epik_Ionization_Penalty_Charging>  (336) 
0.0261675

>  <r_epik_Ionization_Penalty_Neutral>  (336) 
4.37885e-06

>  <r_epik_State_Penalty>  (336) 
0.0213452

>  <r_epik_Charging_Adjusted_Penalty>  (336) 
0.0475127

>  <i_epik_Tot_Q>  (336) 
1

>  <i_epik_Tot_abs_Q>  (336) 
1

>  <s_lp_Force_Field>  (336) 
OPLS3e

>  <r_lp_Energy>  (336) 
354.96

>  <b_lp_Chiralities_Consistent>  (336) 
1

>  <s_lp_Variant>  (336) 
90:0-1

>  <s_i_glide_gridfile>  (336) 
pfpi4k_grid

>  <i_i_glide_lignum>  (336) 
45

>  <i_i_glide_rotatable_bonds>  (336) 
7

>  <r_i_docking_score>  (336) 
-3.20062

>  <r_i_glide_ligand_efficiency>  (336) 
-0.100019

>  <r_i_glide_ligand_efficiency_sa>  (336) 
-0.317542

>  <r_i_glide_ligand_efficiency_ln>  (336) 
-0.716707

>  <r_i_glide_gscore>  (336) 
-3.20062

>  <r_i_glide_lipo>  (336) 
-0.101161

>  <r_i_glide_hbond>  (336) 
-0.481089

>  <r_i_glide_metal>  (336) 
-0

>  <r_i_glide_rewards>  (336) 
-0.378133

>  <r_i_glide_evdw>  (336) 
-20.3743

>  <r_i_glide_ecoul>  (336) 
-8.80354

>  <r_i_glide_erotb>  (336) 
0.10121

>  <r_i_glide_esite>  (336) 
-0.00220245

>  <r_i_glide_emodel>  (336) 
-33.7202

>  <r_i_glide_energy>  (336) 
-29.1779

>  <r_i_glide_einternal>  (336) 
2.67805

>  <r_i_glide_intrahb_reward>  (336) 
-0

>  <i_i_glide_confnum>  (336) 
1

>  <i_i_glide_posenum>  (336) 
1

>  <r_i_glide_eff_state_penalty>  (336) 
0

>  <ligand_id>  (336) 
90

>  <original_smiles>  (336) 
COC1C2C3C4c5ccccc5C15C(O)CC1(CO)C2(OC)C5C1(OC)C3(O)CCN4C

>  <smiles>  (336) 
[H]OC([H])([H])C12C([H])([H])C([H])(O[H])C34c5c([H])c([H])c([H])c([H])c5C5([H])C6([H])C([H])(C3([H])OC([H])([H])[H])C1(OC([H])([H])[H])C4([H])C2(OC([H])([H])[H])C6(O[H])C([H])([H])C([H])([H])[N+]5([H])C([H])([H])[H]

$$$$
90:0:1
     RDKit          3D

 66 72  0  0  1  0  0  0  0  0999 V2000
    5.3225   -7.5474    2.5286 C   0  0  0  0  0  0  0  0  0  0  0  0
    5.3256   -6.1965    2.9895 O   0  0  0  0  0  0  0  0  0  0  0  0
    5.0606   -5.2240    1.9741 C   0  0  2  0  0  0  0  0  0  0  0  0
    5.5118   -3.8193    2.4187 C   0  0  2  0  0  0  0  0  0  0  0  0
    4.8830   -3.2598    3.7245 C   0  0  2  0  0  0  0  0  0  0  0  0
    3.8429   -4.1965    4.5416 C   0  0  2  0  0  0  0  0  0  0  0  0
    2.8733   -5.3040    3.9351 C   0  0  0  0  0  0  0  0  0  0  0  0
    2.1723   -6.1130    4.8710 C   0  0  0  0  0  0  0  0  0  0  0  0
    1.3540   -7.1810    4.4625 C   0  0  0  0  0  0  0  0  0  0  0  0
    1.2311   -7.5016    3.1011 C   0  0  0  0  0  0  0  0  0  0  0  0
    1.9147   -6.7378    2.1485 C   0  0  0  0  0  0  0  0  0  0  0  0
    2.7137   -5.6340    2.5355 C   0  0  0  0  0  0  0  0  0  0  0  0
    3.5691   -4.9019    1.4978 C   0  0  2  0  0  0  0  0  0  0  0  0
    3.1542   -4.6880   -0.0823 C   0  0  1  0  0  0  0  0  0  0  0  0
    1.8223   -5.0620   -0.3244 O   0  0  0  0  0  0  0  0  0  0  0  0
    3.3008   -3.1152   -0.6582 C   0  0  0  0  0  0  0  0  0  0  0  0
    4.0984   -2.1765    0.4634 C   0  0  2  0  0  0  0  0  0  0  0  0
    4.8172   -0.9517   -0.1601 C   0  0  0  0  0  0  0  0  0  0  0  0
    5.3876   -1.1750   -1.4369 O   0  0  0  0  0  0  0  0  0  0  0  0
    4.8706   -3.2292    1.1870 C   0  0  1  0  0  0  0  0  0  0  0  0
    5.6154   -3.7035    0.0237 O   0  0  0  0  0  0  0  0  0  0  0  0
    6.9908   -3.3441   -0.0815 C   0  0  0  0  0  0  0  0  0  0  0  0
    3.2637   -3.4714    1.6570 C   0  0  1  0  0  0  0  0  0  0  0  0
    3.5728   -2.0001    1.9179 C   0  0  2  0  0  0  0  0  0  0  0  0
    2.3103   -1.3183    1.9695 O   0  0  0  0  0  0  0  0  0  0  0  0
    2.3008    0.0618    1.6285 C   0  0  0  0  0  0  0  0  0  0  0  0
    4.3446   -1.8433    3.2962 C   0  0  2  0  0  0  0  0  0  0  0  0
    5.4224   -0.9522    3.1000 O   0  0  0  0  0  0  0  0  0  0  0  0
    3.5544   -1.2100    4.4629 C   0  0  0  0  0  0  0  0  0  0  0  0
    2.5060   -2.1502    5.0620 C   0  0  0  0  0  0  0  0  0  0  0  0
    3.1202   -3.4002    5.5810 N   0  0  2  0  0  0  0  0  0  0  0  0
    3.8964   -3.1970    6.8350 C   0  0  0  0  0  0  0  0  0  0  0  0
    5.4546   -8.2235    3.3744 H   0  0  0  0  0  0  0  0  0  0  0  0
    6.1253   -7.7431    1.8142 H   0  0  0  0  0  0  0  0  0  0  0  0
    4.3840   -7.8144    2.0444 H   0  0  0  0  0  0  0  0  0  0  0  0
    5.6568   -5.5921    1.1393 H   0  0  0  0  0  0  0  0  0  0  0  0
    6.5929   -3.7171    2.4287 H   0  0  0  0  0  0  0  0  0  0  0  0
    5.7024   -3.0594    4.4221 H   0  0  0  0  0  0  0  0  0  0  0  0
    4.5216   -4.8402    5.1024 H   0  0  0  0  0  0  0  0  0  0  0  0
    2.2870   -5.9511    5.9331 H   0  0  0  0  0  0  0  0  0  0  0  0
    0.8371   -7.7852    5.1932 H   0  0  0  0  0  0  0  0  0  0  0  0
    0.6393   -8.3534    2.7916 H   0  0  0  0  0  0  0  0  0  0  0  0
    1.8789   -7.0561    1.1159 H   0  0  0  0  0  0  0  0  0  0  0  0
    3.7659   -5.3583   -0.6847 H   0  0  0  0  0  0  0  0  0  0  0  0
    1.7381   -5.1452   -1.2665 H   0  0  0  0  0  0  0  0  0  0  0  0
    3.8093   -3.1451   -1.6226 H   0  0  0  0  0  0  0  0  0  0  0  0
    2.3174   -2.6767   -0.8438 H   0  0  0  0  0  0  0  0  0  0  0  0
    4.1558   -0.1016   -0.2711 H   0  0  0  0  0  0  0  0  0  0  0  0
    5.6189   -0.6108    0.4927 H   0  0  0  0  0  0  0  0  0  0  0  0
    4.6920   -1.4251   -2.0276 H   0  0  0  0  0  0  0  0  0  0  0  0
    7.2814   -3.4688   -1.1238 H   0  0  0  0  0  0  0  0  0  0  0  0
    7.6329   -3.9869    0.5202 H   0  0  0  0  0  0  0  0  0  0  0  0
    7.1766   -2.3076    0.1976 H   0  0  0  0  0  0  0  0  0  0  0  0
    2.6891   -3.3727    2.5662 H   0  0  0  0  0  0  0  0  0  0  0  0
    1.4189    0.5326    2.0609 H   0  0  0  0  0  0  0  0  0  0  0  0
    2.2221    0.2065    0.5535 H   0  0  0  0  0  0  0  0  0  0  0  0
    3.1787    0.5937    1.9971 H   0  0  0  0  0  0  0  0  0  0  0  0
    5.9113   -1.2346    2.3387 H   0  0  0  0  0  0  0  0  0  0  0  0
    4.2604   -0.9155    5.2444 H   0  0  0  0  0  0  0  0  0  0  0  0
    3.0869   -0.2719    4.1716 H   0  0  0  0  0  0  0  0  0  0  0  0
    2.0013   -1.6402    5.8827 H   0  0  0  0  0  0  0  0  0  0  0  0
    1.7305   -2.3852    4.3305 H   0  0  0  0  0  0  0  0  0  0  0  0
    4.8276   -2.6622    6.6512 H   0  0  0  0  0  0  0  0  0  0  0  0
    4.1405   -4.1544    7.3001 H   0  0  0  0  0  0  0  0  0  0  0  0
    3.3178   -2.6227    7.5602 H   0  0  0  0  0  0  0  0  0  0  0  0
    2.3444   -3.9868    5.8570 H   0  0  0  0  0  0  0  0  0  0  0  0
  1  2  1  0
  1 33  1  0
  1 34  1  0
  1 35  1  0
  2  3  1  0
  3 13  1  0
  3  4  1  0
  3 36  1  6
  4 20  1  0
  4  5  1  0
  4 37  1  1
  5 27  1  0
  5  6  1  0
  5 38  1  1
  6 31  1  0
  6  7  1  0
  6 39  1  1
  7 12  2  0
  7  8  1  0
  8  9  2  0
  8 40  1  0
  9 10  1  0
  9 41  1  0
 10 11  2  0
 10 42  1  0
 11 12  1  0
 11 43  1  0
 13 12  1  1
 13 23  1  0
 13 14  1  0
 14 15  1  0
 14 16  1  0
 14 44  1  6
 15 45  1  0
 16 17  1  0
 16 46  1  0
 16 47  1  0
 17 24  1  0
 17 18  1  6
 17 20  1  0
 18 19  1  0
 18 48  1  0
 18 49  1  0
 19 50  1  0
 20 21  1  6
 20 23  1  0
 21 22  1  0
 22 51  1  0
 22 52  1  0
 22 53  1  0
 23 24  1  0
 23 54  1  6
 24 25  1  6
 24 27  1  0
 25 26  1  0
 26 55  1  0
 26 56  1  0
 26 57  1  0
 27 28  1  6
 27 29  1  0
 28 58  1  0
 29 30  1  0
 29 59  1  0
 29 60  1  0
 30 31  1  0
 30 61  1  0
 30 62  1  0
 31 32  1  0
 31 66  1  1
 32 63  1  0
 32 64  1  0
 32 65  1  0
M  CHG  1  31   1
M  END
>  <i_m_ct_stereo_status>  (337) 
1

>  <s_m_source_file>  (337) 
/var/tmp/pbs.5076255.sched01/tmpwmgilt76/96rd2vfdyj.sdf

>  <i_m_source_file_index>  (337) 
45

>  <i_lp_mmshare_version>  (337) 
48012

>  <i_f3d_flags>  (337) 
0

>  <s_epik_input>  (337) 
W2NIXTFbY0hdW2NIXVtjSF1jKGMxW0NAQF0yMzQpW0NASF01W0NASF02W0NAQEhdKFtDQEhdMk9bQ0gzXSlbQ0BdNyhPW0NIM10pW0NAQF0oW0NIMl1bT0hdKShbQ0gyXVtDQEBIXTNbT0hdKVtDQF0oW0NASF00NykoT1tDSDNdKVtDQEBdNihbT0hdKVtDSDJdW0NIMl1ONVtDSDNd

>  <s_epik_cmdline>  (337) 
J2VwaWtfcHl0aG9uJywgJy1waHQnLCAnMi4wJywgJy1waCcsICc3LjAnLCAnLXRuJywgJzgnLCAnLW1hJywgJzIwMCcsICctaW1hZScsICc8aW5maWxlLm1hZT4nLCAnLW9tYWUnLCAnPG91dGZpbGUubWFlPic=

>  <r_epik_Ionization_Penalty>  (337) 
0.0261719

>  <r_epik_Ionization_Penalty_Charging>  (337) 
0.0261675

>  <r_epik_Ionization_Penalty_Neutral>  (337) 
4.37885e-06

>  <r_epik_State_Penalty>  (337) 
0.0213452

>  <r_epik_Charging_Adjusted_Penalty>  (337) 
0.0475127

>  <i_epik_Tot_Q>  (337) 
1

>  <i_epik_Tot_abs_Q>  (337) 
1

>  <s_lp_Force_Field>  (337) 
OPLS3e

>  <r_lp_Energy>  (337) 
354.96

>  <b_lp_Chiralities_Consistent>  (337) 
1

>  <s_lp_Variant>  (337) 
90:0-1

>  <s_i_glide_gridfile>  (337) 
pfpi4k_grid

>  <i_i_glide_lignum>  (337) 
45

>  <i_i_glide_rotatable_bonds>  (337) 
7

>  <r_i_docking_score>  (337) 
-2.67246

>  <r_i_glide_ligand_efficiency>  (337) 
-0.0835145

>  <r_i_glide_ligand_efficiency_sa>  (337) 
-0.265142

>  <r_i_glide_ligand_efficiency_ln>  (337) 
-0.598437

>  <r_i_glide_gscore>  (337) 
-2.67246

>  <r_i_glide_lipo>  (337) 
-0.291584

>  <r_i_glide_hbond>  (337) 
-0.232845

>  <r_i_glide_metal>  (337) 
-0

>  <r_i_glide_rewards>  (337) 
-0.378133

>  <r_i_glide_evdw>  (337) 
-19.4941

>  <r_i_glide_ecoul>  (337) 
-5.97603

>  <r_i_glide_erotb>  (337) 
0.10121

>  <r_i_glide_esite>  (337) 
0

>  <r_i_glide_emodel>  (337) 
-29.0463

>  <r_i_glide_energy>  (337) 
-25.4702

>  <r_i_glide_einternal>  (337) 
2.59698

>  <r_i_glide_intrahb_reward>  (337) 
-0

>  <i_i_glide_confnum>  (337) 
1

>  <i_i_glide_posenum>  (337) 
23

>  <r_i_glide_eff_state_penalty>  (337) 
0

>  <ligand_id>  (337) 
90

>  <original_smiles>  (337) 
COC1C2C3C4c5ccccc5C15C(O)CC1(CO)C2(OC)C5C1(OC)C3(O)CCN4C

>  <smiles>  (337) 
[H]OC([H])([H])C12C([H])([H])C([H])(O[H])C34c5c([H])c([H])c([H])c([H])c5C5([H])C6([H])C([H])(C3([H])OC([H])([H])[H])C1(OC([H])([H])[H])C4([H])C2(OC([H])([H])[H])C6(O[H])C([H])([H])C([H])([H])[N+]5([H])C([H])([H])[H]

$$$$
90:0:2
     RDKit          3D

 66 72  0  0  1  0  0  0  0  0999 V2000
    4.5028   -7.7568    2.1160 C   0  0  0  0  0  0  0  0  0  0  0  0
    4.5262   -6.5342    2.8554 O   0  0  0  0  0  0  0  0  0  0  0  0
    4.5525   -5.3506    2.0470 C   0  0  2  0  0  0  0  0  0  0  0  0
    5.0140   -4.1274    2.8626 C   0  0  2  0  0  0  0  0  0  0  0  0
    4.1759   -3.7676    4.1203 C   0  0  2  0  0  0  0  0  0  0  0  0
    2.9219   -4.7197    4.5118 C   0  0  2  0  0  0  0  0  0  0  0  0
    2.0114   -5.5609    3.5119 C   0  0  0  0  0  0  0  0  0  0  0  0
    1.0709   -6.4500    4.0997 C   0  0  0  0  0  0  0  0  0  0  0  0
    0.2707   -7.3096    3.3229 C   0  0  0  0  0  0  0  0  0  0  0  0
    0.4037   -7.3344    1.9284 C   0  0  0  0  0  0  0  0  0  0  0  0
    1.3292   -6.4835    1.3085 C   0  0  0  0  0  0  0  0  0  0  0  0
    2.1153   -5.5853    2.0679 C   0  0  0  0  0  0  0  0  0  0  0  0
    3.2169   -4.7666    1.3860 C   0  0  2  0  0  0  0  0  0  0  0  0
    3.1380   -4.1965   -0.1625 C   0  0  1  0  0  0  0  0  0  0  0  0
    1.8464   -4.3387   -0.7207 O   0  0  0  0  0  0  0  0  0  0  0  0
    3.5327   -2.5737   -0.3395 C   0  0  0  0  0  0  0  0  0  0  0  0
    4.1514   -1.9728    1.0886 C   0  0  2  0  0  0  0  0  0  0  0  0
    5.0783   -0.7433    0.8995 C   0  0  0  0  0  0  0  0  0  0  0  0
    5.7849   -0.7341   -0.3227 O   0  0  0  0  0  0  0  0  0  0  0  0
    4.6823   -3.2314    1.6925 C   0  0  1  0  0  0  0  0  0  0  0  0
    5.6094   -3.5520    0.6106 O   0  0  0  0  0  0  0  0  0  0  0  0
    6.9979   -3.2988    0.8168 C   0  0  0  0  0  0  0  0  0  0  0  0
    2.9962   -3.3716    1.7968 C   0  0  1  0  0  0  0  0  0  0  0  0
    3.3538   -2.0301    2.4224 C   0  0  2  0  0  0  0  0  0  0  0  0
    2.1679   -1.2209    2.3936 O   0  0  0  0  0  0  0  0  0  0  0  0
    2.3316    0.1864    2.2764 C   0  0  0  0  0  0  0  0  0  0  0  0
    3.8405   -2.2430    3.9168 C   0  0  2  0  0  0  0  0  0  0  0  0
    4.9999   -1.4550    4.0986 O   0  0  0  0  0  0  0  0  0  0  0  0
    2.8812   -1.7634    5.0320 C   0  0  0  0  0  0  0  0  0  0  0  0
    1.6643   -2.6778    5.2115 C   0  0  0  0  0  0  0  0  0  0  0  0
    2.0636   -4.0688    5.5479 N   0  0  2  0  0  0  0  0  0  0  0  0
    2.5806   -4.2146    6.9356 C   0  0  0  0  0  0  0  0  0  0  0  0
    4.4186   -8.5995    2.8039 H   0  0  0  0  0  0  0  0  0  0  0  0
    5.4081   -7.8996    1.5214 H   0  0  0  0  0  0  0  0  0  0  0  0
    3.6532   -7.8097    1.4359 H   0  0  0  0  0  0  0  0  0  0  0  0
    5.2804   -5.6143    1.2785 H   0  0  0  0  0  0  0  0  0  0  0  0
    6.0745   -4.1614    3.0967 H   0  0  0  0  0  0  0  0  0  0  0  0
    4.8486   -3.8045    4.9818 H   0  0  0  0  0  0  0  0  0  0  0  0
    3.4196   -5.5418    5.0270 H   0  0  0  0  0  0  0  0  0  0  0  0
    0.9816   -6.5225    5.1722 H   0  0  0  0  0  0  0  0  0  0  0  0
   -0.4230   -7.9869    3.8003 H   0  0  0  0  0  0  0  0  0  0  0  0
   -0.1692   -8.0345    1.3353 H   0  0  0  0  0  0  0  0  0  0  0  0
    1.4798   -6.5837    0.2438 H   0  0  0  0  0  0  0  0  0  0  0  0
    3.8084   -4.8052   -0.7675 H   0  0  0  0  0  0  0  0  0  0  0  0
    1.9417   -4.4787   -1.6575 H   0  0  0  0  0  0  0  0  0  0  0  0
    4.2248   -2.4764   -1.1764 H   0  0  0  0  0  0  0  0  0  0  0  0
    2.6448   -1.9976   -0.6008 H   0  0  0  0  0  0  0  0  0  0  0  0
    4.5417    0.1996    0.9366 H   0  0  0  0  0  0  0  0  0  0  0  0
    5.8072   -0.6895    1.7082 H   0  0  0  0  0  0  0  0  0  0  0  0
    5.1589   -0.5391   -1.0056 H   0  0  0  0  0  0  0  0  0  0  0  0
    7.4701   -3.2630   -0.1643 H   0  0  0  0  0  0  0  0  0  0  0  0
    7.4854   -4.0827    1.3985 H   0  0  0  0  0  0  0  0  0  0  0  0
    7.1908   -2.3400    1.2954 H   0  0  0  0  0  0  0  0  0  0  0  0
    2.2592   -3.3892    2.5870 H   0  0  0  0  0  0  0  0  0  0  0  0
    1.4369    0.6839    2.6441 H   0  0  0  0  0  0  0  0  0  0  0  0
    2.4410    0.4922    1.2359 H   0  0  0  0  0  0  0  0  0  0  0  0
    3.1796    0.5560    2.8558 H   0  0  0  0  0  0  0  0  0  0  0  0
    4.7476   -0.5553    3.9505 H   0  0  0  0  0  0  0  0  0  0  0  0
    3.4355   -1.7183    5.9765 H   0  0  0  0  0  0  0  0  0  0  0  0
    2.5536   -0.7352    4.8655 H   0  0  0  0  0  0  0  0  0  0  0  0
    1.0448   -2.2850    6.0172 H   0  0  0  0  0  0  0  0  0  0  0  0
    1.0404   -2.6680    4.3155 H   0  0  0  0  0  0  0  0  0  0  0  0
    3.5694   -3.7685    7.0481 H   0  0  0  0  0  0  0  0  0  0  0  0
    2.6513   -5.2688    7.2139 H   0  0  0  0  0  0  0  0  0  0  0  0
    1.9100   -3.7350    7.6513 H   0  0  0  0  0  0  0  0  0  0  0  0
    1.2085   -4.6047    5.5387 H   0  0  0  0  0  0  0  0  0  0  0  0
  1  2  1  0
  1 33  1  0
  1 34  1  0
  1 35  1  0
  2  3  1  0
  3 13  1  0
  3  4  1  0
  3 36  1  6
  4 20  1  0
  4  5  1  0
  4 37  1  1
  5 27  1  0
  5  6  1  0
  5 38  1  1
  6 31  1  0
  6  7  1  0
  6 39  1  1
  7 12  2  0
  7  8  1  0
  8  9  2  0
  8 40  1  0
  9 10  1  0
  9 41  1  0
 10 11  2  0
 10 42  1  0
 11 12  1  0
 11 43  1  0
 13 12  1  6
 13 23  1  0
 13 14  1  0
 14 15  1  0
 14 16  1  0
 14 44  1  6
 15 45  1  0
 16 17  1  0
 16 46  1  0
 16 47  1  0
 17 24  1  0
 17 18  1  6
 17 20  1  0
 18 19  1  0
 18 48  1  0
 18 49  1  0
 19 50  1  0
 20 21  1  6
 20 23  1  0
 21 22  1  0
 22 51  1  0
 22 52  1  0
 22 53  1  0
 23 24  1  0
 23 54  1  6
 24 25  1  1
 24 27  1  0
 25 26  1  0
 26 55  1  0
 26 56  1  0
 26 57  1  0
 27 28  1  6
 27 29  1  0
 28 58  1  0
 29 30  1  0
 29 59  1  0
 29 60  1  0
 30 31  1  0
 30 61  1  0
 30 62  1  0
 31 32  1  0
 31 66  1  1
 32 63  1  0
 32 64  1  0
 32 65  1  0
M  CHG  1  31   1
M  END
>  <i_m_ct_stereo_status>  (338) 
1

>  <s_m_source_file>  (338) 
/var/tmp/pbs.5076255.sched01/tmpwmgilt76/96rd2vfdyj.sdf

>  <i_m_source_file_index>  (338) 
45

>  <i_lp_mmshare_version>  (338) 
48012

>  <i_f3d_flags>  (338) 
0

>  <s_epik_input>  (338) 
W2NIXTFbY0hdW2NIXVtjSF1jKGMxW0NAQF0yMzQpW0NASF01W0NASF02W0NAQEhdKFtDQEhdMk9bQ0gzXSlbQ0BdNyhPW0NIM10pW0NAQF0oW0NIMl1bT0hdKShbQ0gyXVtDQEBIXTNbT0hdKVtDQF0oW0NASF00NykoT1tDSDNdKVtDQEBdNihbT0hdKVtDSDJdW0NIMl1ONVtDSDNd

>  <s_epik_cmdline>  (338) 
J2VwaWtfcHl0aG9uJywgJy1waHQnLCAnMi4wJywgJy1waCcsICc3LjAnLCAnLXRuJywgJzgnLCAnLW1hJywgJzIwMCcsICctaW1hZScsICc8aW5maWxlLm1hZT4nLCAnLW9tYWUnLCAnPG91dGZpbGUubWFlPic=

>  <r_epik_Ionization_Penalty>  (338) 
0.0261719

>  <r_epik_Ionization_Penalty_Charging>  (338) 
0.0261675

>  <r_epik_Ionization_Penalty_Neutral>  (338) 
4.37885e-06

>  <r_epik_State_Penalty>  (338) 
0.0213452

>  <r_epik_Charging_Adjusted_Penalty>  (338) 
0.0475127

>  <i_epik_Tot_Q>  (338) 
1

>  <i_epik_Tot_abs_Q>  (338) 
1

>  <s_lp_Force_Field>  (338) 
OPLS3e

>  <r_lp_Energy>  (338) 
354.96

>  <b_lp_Chiralities_Consistent>  (338) 
1

>  <s_lp_Variant>  (338) 
90:0-1

>  <s_i_glide_gridfile>  (338) 
pfpi4k_grid

>  <i_i_glide_lignum>  (338) 
45

>  <i_i_glide_rotatable_bonds>  (338) 
7

>  <r_i_docking_score>  (338) 
-2.59815

>  <r_i_glide_ligand_efficiency>  (338) 
-0.0811922

>  <r_i_glide_ligand_efficiency_sa>  (338) 
-0.257769

>  <r_i_glide_ligand_efficiency_ln>  (338) 
-0.581797

>  <r_i_glide_gscore>  (338) 
-2.59815

>  <r_i_glide_lipo>  (338) 
-0.30437

>  <r_i_glide_hbond>  (338) 
-0.131503

>  <r_i_glide_metal>  (338) 
-0

>  <r_i_glide_rewards>  (338) 
-0.378133

>  <r_i_glide_evdw>  (338) 
-20.0705

>  <r_i_glide_ecoul>  (338) 
-5.87889

>  <r_i_glide_erotb>  (338) 
0.10121

>  <r_i_glide_esite>  (338) 
0

>  <r_i_glide_emodel>  (338) 
-28.7393

>  <r_i_glide_energy>  (338) 
-25.9494

>  <r_i_glide_einternal>  (338) 
3.44095

>  <r_i_glide_intrahb_reward>  (338) 
-0

>  <i_i_glide_confnum>  (338) 
2

>  <i_i_glide_posenum>  (338) 
7

>  <r_i_glide_eff_state_penalty>  (338) 
0

>  <ligand_id>  (338) 
90

>  <original_smiles>  (338) 
COC1C2C3C4c5ccccc5C15C(O)CC1(CO)C2(OC)C5C1(OC)C3(O)CCN4C

>  <smiles>  (338) 
[H]OC([H])([H])C12C([H])([H])C([H])(O[H])C34c5c([H])c([H])c([H])c([H])c5C5([H])C6([H])C([H])(C3([H])OC([H])([H])[H])C1(OC([H])([H])[H])C4([H])C2(OC([H])([H])[H])C6(O[H])C([H])([H])C([H])([H])[N+]5([H])C([H])([H])[H]

$$$$
90:1:0
     RDKit          3D

 65 71  0  0  1  0  0  0  0  0999 V2000
    5.3904   -6.7489    3.9765 C   0  0  0  0  0  0  0  0  0  0  0  0
    4.1988   -6.3930    3.2864 O   0  0  0  0  0  0  0  0  0  0  0  0
    4.3178   -5.2835    2.3873 C   0  0  2  0  0  0  0  0  0  0  0  0
    4.6893   -3.9615    3.0864 C   0  0  2  0  0  0  0  0  0  0  0  0
    3.7295   -3.5053    4.2186 C   0  0  2  0  0  0  0  0  0  0  0  0
    2.4738   -4.4701    4.6052 C   0  0  2  0  0  0  0  0  0  0  0  0
    1.6485   -5.4030    3.6084 C   0  0  0  0  0  0  0  0  0  0  0  0
    0.6372   -6.2045    4.1945 C   0  0  0  0  0  0  0  0  0  0  0  0
   -0.0930   -7.1513    3.4500 C   0  0  0  0  0  0  0  0  0  0  0  0
    0.1827   -7.3440    2.0888 C   0  0  0  0  0  0  0  0  0  0  0  0
    1.1852   -6.5788    1.4732 C   0  0  0  0  0  0  0  0  0  0  0  0
    1.8968   -5.5952    2.1962 C   0  0  0  0  0  0  0  0  0  0  0  0
    3.0403   -4.8183    1.5390 C   0  0  2  0  0  0  0  0  0  0  0  0
    3.0816   -4.4166   -0.0630 C   0  0  1  0  0  0  0  0  0  0  0  0
    1.8409   -4.6567   -0.7115 O   0  0  0  0  0  0  0  0  0  0  0  0
    3.4796   -2.8091   -0.3860 C   0  0  0  0  0  0  0  0  0  0  0  0
    3.9566   -2.0444    1.0231 C   0  0  2  0  0  0  0  0  0  0  0  0
    4.8922   -0.8164    0.8001 C   0  0  0  0  0  0  0  0  0  0  0  0
    5.3849   -0.6582   -0.5225 O   0  0  0  0  0  0  0  0  0  0  0  0
    4.4443   -3.2235    1.7962 C   0  0  1  0  0  0  0  0  0  0  0  0
    5.4687   -3.6375    0.8407 O   0  0  0  0  0  0  0  0  0  0  0  0
    6.8392   -3.4175    1.1651 C   0  0  0  0  0  0  0  0  0  0  0  0
    2.7555   -3.3956    1.7679 C   0  0  1  0  0  0  0  0  0  0  0  0
    3.0305   -1.9878    2.2709 C   0  0  2  0  0  0  0  0  0  0  0  0
    1.8408   -1.2104    2.0476 O   0  0  0  0  0  0  0  0  0  0  0  0
    2.0039    0.1763    1.7805 C   0  0  0  0  0  0  0  0  0  0  0  0
    3.3633   -2.0241    3.8184 C   0  0  2  0  0  0  0  0  0  0  0  0
    4.4994   -1.1910    3.9974 O   0  0  0  0  0  0  0  0  0  0  0  0
    2.2618   -1.4834    4.7620 C   0  0  0  0  0  0  0  0  0  0  0  0
    1.1044   -2.4761    4.9862 C   0  0  0  0  0  0  0  0  0  0  0  0
    1.5746   -3.7538    5.5234 N   0  0  0  0  0  0  0  0  0  0  0  0
    2.1050   -3.6528    6.8823 C   0  0  0  0  0  0  0  0  0  0  0  0
    5.2085   -7.6448    4.5686 H   0  0  0  0  0  0  0  0  0  0  0  0
    5.7028   -5.9649    4.6658 H   0  0  0  0  0  0  0  0  0  0  0  0
    6.2131   -6.9628    3.2933 H   0  0  0  0  0  0  0  0  0  0  0  0
    5.0825   -5.6459    1.7040 H   0  0  0  0  0  0  0  0  0  0  0  0
    5.7234   -3.9172    3.4226 H   0  0  0  0  0  0  0  0  0  0  0  0
    4.3296   -3.4337    5.1312 H   0  0  0  0  0  0  0  0  0  0  0  0
    2.9516   -5.2381    5.2195 H   0  0  0  0  0  0  0  0  0  0  0  0
    0.4463   -6.1252    5.2535 H   0  0  0  0  0  0  0  0  0  0  0  0
   -0.8411   -7.7592    3.9315 H   0  0  0  0  0  0  0  0  0  0  0  0
   -0.3474   -8.0989    1.5240 H   0  0  0  0  0  0  0  0  0  0  0  0
    1.4254   -6.7879    0.4442 H   0  0  0  0  0  0  0  0  0  0  0  0
    3.8008   -5.0723   -0.5545 H   0  0  0  0  0  0  0  0  0  0  0  0
    2.0362   -4.9231   -1.6093 H   0  0  0  0  0  0  0  0  0  0  0  0
    4.2524   -2.7948   -1.1543 H   0  0  0  0  0  0  0  0  0  0  0  0
    2.6141   -2.2793   -0.7966 H   0  0  0  0  0  0  0  0  0  0  0  0
    4.4106    0.1230    1.0586 H   0  0  0  0  0  0  0  0  0  0  0  0
    5.7356   -0.8332    1.4857 H   0  0  0  0  0  0  0  0  0  0  0  0
    5.4141    0.2738   -0.7045 H   0  0  0  0  0  0  0  0  0  0  0  0
    7.4077   -3.4575    0.2350 H   0  0  0  0  0  0  0  0  0  0  0  0
    7.2285   -4.2000    1.8205 H   0  0  0  0  0  0  0  0  0  0  0  0
    7.0113   -2.4491    1.6333 H   0  0  0  0  0  0  0  0  0  0  0  0
    1.9525   -3.3481    2.4855 H   0  0  0  0  0  0  0  0  0  0  0  0
    1.0659    0.6984    1.9653 H   0  0  0  0  0  0  0  0  0  0  0  0
    2.2560    0.3545    0.7344 H   0  0  0  0  0  0  0  0  0  0  0  0
    2.7609    0.6391    2.4160 H   0  0  0  0  0  0  0  0  0  0  0  0
    4.6938   -1.1360    4.9216 H   0  0  0  0  0  0  0  0  0  0  0  0
    2.7012   -1.2402    5.7276 H   0  0  0  0  0  0  0  0  0  0  0  0
    1.8661   -0.5294    4.4091 H   0  0  0  0  0  0  0  0  0  0  0  0
    0.3897   -2.0560    5.6917 H   0  0  0  0  0  0  0  0  0  0  0  0
    0.5592   -2.6471    4.0576 H   0  0  0  0  0  0  0  0  0  0  0  0
    1.3781   -3.1660    7.5317 H   0  0  0  0  0  0  0  0  0  0  0  0
    3.0359   -3.0879    6.9320 H   0  0  0  0  0  0  0  0  0  0  0  0
    2.2947   -4.6471    7.2938 H   0  0  0  0  0  0  0  0  0  0  0  0
  1  2  1  0
  1 33  1  0
  1 34  1  0
  1 35  1  0
  2  3  1  0
  3 13  1  0
  3  4  1  0
  3 36  1  6
  4 20  1  0
  4  5  1  0
  4 37  1  1
  5 27  1  0
  5  6  1  0
  5 38  1  1
  6 31  1  0
  6  7  1  0
  6 39  1  1
  7 12  2  0
  7  8  1  0
  8  9  2  0
  8 40  1  0
  9 10  1  0
  9 41  1  0
 10 11  2  0
 10 42  1  0
 11 12  1  0
 11 43  1  0
 13 12  1  6
 13 23  1  0
 13 14  1  0
 14 15  1  0
 14 16  1  0
 14 44  1  6
 15 45  1  0
 16 17  1  0
 16 46  1  0
 16 47  1  0
 17 24  1  0
 17 18  1  6
 17 20  1  0
 18 19  1  0
 18 48  1  0
 18 49  1  0
 19 50  1  0
 20 21  1  6
 20 23  1  0
 21 22  1  0
 22 51  1  0
 22 52  1  0
 22 53  1  0
 23 24  1  0
 23 54  1  6
 24 25  1  1
 24 27  1  0
 25 26  1  0
 26 55  1  0
 26 56  1  0
 26 57  1  0
 27 28  1  6
 27 29  1  0
 28 58  1  0
 29 30  1  0
 29 59  1  0
 29 60  1  0
 30 31  1  0
 30 61  1  0
 30 62  1  0
 31 32  1  0
 32 63  1  0
 32 64  1  0
 32 65  1  0
M  END
>  <i_m_ct_stereo_status>  (339) 
1

>  <s_m_source_file>  (339) 
/var/tmp/pbs.5076255.sched01/tmpwmgilt76/96rd2vfdyj.sdf

>  <i_m_source_file_index>  (339) 
46

>  <i_lp_mmshare_version>  (339) 
48012

>  <i_f3d_flags>  (339) 
0

>  <s_epik_input>  (339) 
W2NIXTFbY0hdW2NIXVtjSF1jKGMxW0NAQF0yMzQpW0NASF01W0NASF02W0NAQEhdKFtDQEhdMk9bQ0gzXSlbQ0BdNyhPW0NIM10pW0NAQF0oW0NIMl1bT0hdKShbQ0gyXVtDQEBIXTNbT0hdKVtDQF0oW0NASF00NykoT1tDSDNdKVtDQEBdNihbT0hdKVtDSDJdW0NIMl1ONVtDSDNd

>  <s_epik_cmdline>  (339) 
J2VwaWtfcHl0aG9uJywgJy1waHQnLCAnMi4wJywgJy1waCcsICc3LjAnLCAnLXRuJywgJzgnLCAnLW1hJywgJzIwMCcsICctaW1hZScsICc8aW5maWxlLm1hZT4nLCAnLW9tYWUnLCAnPG91dGZpbGUubWFlPic=

>  <r_epik_Ionization_Penalty>  (339) 
1.86148

>  <r_epik_Ionization_Penalty_Charging>  (339) 
0

>  <r_epik_Ionization_Penalty_Neutral>  (339) 
1.86148

>  <r_epik_State_Penalty>  (339) 
1.97977

>  <r_epik_Charging_Adjusted_Penalty>  (339) 
1.97977

>  <i_epik_Tot_Q>  (339) 
0

>  <i_epik_Tot_abs_Q>  (339) 
0

>  <s_lp_Force_Field>  (339) 
OPLS3e

>  <r_lp_Energy>  (339) 
352.083

>  <b_lp_Chiralities_Consistent>  (339) 
1

>  <s_lp_Variant>  (339) 
90:0-2

>  <s_i_glide_gridfile>  (339) 
pfpi4k_grid

>  <i_i_glide_lignum>  (339) 
46

>  <i_i_glide_rotatable_bonds>  (339) 
7

>  <r_i_docking_score>  (339) 
-3.01611

>  <r_i_glide_ligand_efficiency>  (339) 
-0.0942535

>  <r_i_glide_ligand_efficiency_sa>  (339) 
-0.299236

>  <r_i_glide_ligand_efficiency_ln>  (339) 
-0.675389

>  <r_i_glide_gscore>  (339) 
-3.01611

>  <r_i_glide_lipo>  (339) 
-0.213848

>  <r_i_glide_hbond>  (339) 
-0.27502

>  <r_i_glide_metal>  (339) 
-0

>  <r_i_glide_rewards>  (339) 
-0.385005

>  <r_i_glide_evdw>  (339) 
-20.2966

>  <r_i_glide_ecoul>  (339) 
-8.19357

>  <r_i_glide_erotb>  (339) 
0.101628

>  <r_i_glide_esite>  (339) 
0

>  <r_i_glide_emodel>  (339) 
-33.2152

>  <r_i_glide_energy>  (339) 
-28.4902

>  <r_i_glide_einternal>  (339) 
4.4673

>  <r_i_glide_intrahb_reward>  (339) 
-0

>  <i_i_glide_confnum>  (339) 
1

>  <i_i_glide_posenum>  (339) 
6

>  <r_i_glide_eff_state_penalty>  (339) 
0

>  <ligand_id>  (339) 
90

>  <original_smiles>  (339) 
COC1C2C3C4c5ccccc5C15C(O)CC1(CO)C2(OC)C5C1(OC)C3(O)CCN4C

>  <smiles>  (339) 
[H]OC([H])([H])C12C([H])([H])C([H])(O[H])C34c5c([H])c([H])c([H])c([H])c5C5([H])N(C([H])([H])[H])C([H])([H])C([H])([H])C6(O[H])C5([H])C([H])(C3([H])OC([H])([H])[H])C1(OC([H])([H])[H])C4([H])C62OC([H])([H])[H]

$$$$
90:1:1
     RDKit          3D

 65 71  0  0  1  0  0  0  0  0999 V2000
    3.0887   -8.4894    3.5451 C   0  0  0  0  0  0  0  0  0  0  0  0
    3.0985   -7.1602    4.0641 O   0  0  0  0  0  0  0  0  0  0  0  0
    3.4030   -6.1418    3.1018 C   0  0  2  0  0  0  0  0  0  0  0  0
    3.8047   -4.8222    3.7977 C   0  0  2  0  0  0  0  0  0  0  0  0
    2.7636   -4.2034    4.7637 C   0  0  2  0  0  0  0  0  0  0  0  0
    1.3899   -5.0218    5.0357 C   0  0  2  0  0  0  0  0  0  0  0  0
    0.6116   -5.9352    3.9892 C   0  0  0  0  0  0  0  0  0  0  0  0
   -0.5340   -6.6165    4.4709 C   0  0  0  0  0  0  0  0  0  0  0  0
   -1.2550   -7.5341    3.6842 C   0  0  0  0  0  0  0  0  0  0  0  0
   -0.8327   -7.8237    2.3767 C   0  0  0  0  0  0  0  0  0  0  0  0
    0.2939   -7.1703    1.8552 C   0  0  0  0  0  0  0  0  0  0  0  0
    1.0055   -6.2211    2.6151 C   0  0  0  0  0  0  0  0  0  0  0  0
    2.3029   -5.6039    2.0817 C   0  0  2  0  0  0  0  0  0  0  0  0
    2.6005   -5.3031    0.4829 C   0  0  1  0  0  0  0  0  0  0  0  0
    1.4374   -5.4554   -0.3174 O   0  0  0  0  0  0  0  0  0  0  0  0
    3.1972   -3.7586    0.1467 C   0  0  0  0  0  0  0  0  0  0  0  0
    3.5318   -2.9502    1.5701 C   0  0  2  0  0  0  0  0  0  0  0  0
    4.6167   -1.8603    1.3746 C   0  0  0  0  0  0  0  0  0  0  0  0
    4.3213   -0.9496    0.3490 O   0  0  0  0  0  0  0  0  0  0  0  0
    3.8084   -4.1216    2.4548 C   0  0  1  0  0  0  0  0  0  0  0  0
    4.8977   -4.6805    1.6760 O   0  0  0  0  0  0  0  0  0  0  0  0
    6.2377   -4.5289    2.1493 C   0  0  0  0  0  0  0  0  0  0  0  0
    2.1302   -4.1471    2.2038 C   0  0  1  0  0  0  0  0  0  0  0  0
    2.4716   -2.7418    2.6799 C   0  0  2  0  0  0  0  0  0  0  0  0
    1.4195   -1.8747    2.2448 O   0  0  0  0  0  0  0  0  0  0  0  0
    1.7149   -0.4998    2.0338 C   0  0  0  0  0  0  0  0  0  0  0  0
    2.5816   -2.7231    4.2625 C   0  0  2  0  0  0  0  0  0  0  0  0
    3.7258   -1.9715    4.5854 O   0  0  0  0  0  0  0  0  0  0  0  0
    1.4275   -2.0322    5.0185 C   0  0  0  0  0  0  0  0  0  0  0  0
    0.1696   -2.9035    5.1321 C   0  0  0  0  0  0  0  0  0  0  0  0
    0.4392   -4.1821    5.7895 N   0  0  0  0  0  0  0  0  0  0  0  0
    0.8037   -4.0378    7.1964 C   0  0  0  0  0  0  0  0  0  0  0  0
    2.7526   -9.1880    4.3163 H   0  0  0  0  0  0  0  0  0  0  0  0
    4.0818   -8.8058    3.2186 H   0  0  0  0  0  0  0  0  0  0  0  0
    2.4143   -8.6020    2.6967 H   0  0  0  0  0  0  0  0  0  0  0  0
    4.2478   -6.5750    2.5689 H   0  0  0  0  0  0  0  0  0  0  0  0
    4.7837   -4.8746    4.2665 H   0  0  0  0  0  0  0  0  0  0  0  0
    3.2481   -4.1245    5.7433 H   0  0  0  0  0  0  0  0  0  0  0  0
    1.7016   -5.7937    5.7449 H   0  0  0  0  0  0  0  0  0  0  0  0
   -0.8499   -6.4576    5.4947 H   0  0  0  0  0  0  0  0  0  0  0  0
   -2.1138   -8.0574    4.0972 H   0  0  0  0  0  0  0  0  0  0  0  0
   -1.3496   -8.5755    1.7920 H   0  0  0  0  0  0  0  0  0  0  0  0
    0.6403   -7.4726    0.8763 H   0  0  0  0  0  0  0  0  0  0  0  0
    3.3096   -6.0597    0.1289 H   0  0  0  0  0  0  0  0  0  0  0  0
    1.7368   -5.4284   -1.2296 H   0  0  0  0  0  0  0  0  0  0  0  0
    4.0759   -3.8157   -0.4851 H   0  0  0  0  0  0  0  0  0  0  0  0
    2.4491   -3.1865   -0.4009 H   0  0  0  0  0  0  0  0  0  0  0  0
    4.8080   -1.3287    2.3152 H   0  0  0  0  0  0  0  0  0  0  0  0
    5.5664   -2.2583    1.0384 H   0  0  0  0  0  0  0  0  0  0  0  0
    3.4503   -0.5982    0.4891 H   0  0  0  0  0  0  0  0  0  0  0  0
    6.9053   -4.6759    1.3019 H   0  0  0  0  0  0  0  0  0  0  0  0
    6.5027   -5.2570    2.9214 H   0  0  0  0  0  0  0  0  0  0  0  0
    6.4110   -3.5215    2.5191 H   0  0  0  0  0  0  0  0  0  0  0  0
    1.2585   -3.9862    2.8050 H   0  0  0  0  0  0  0  0  0  0  0  0
    0.7920    0.0768    2.0973 H   0  0  0  0  0  0  0  0  0  0  0  0
    2.0902   -0.3173    1.0321 H   0  0  0  0  0  0  0  0  0  0  0  0
    2.4227   -0.1078    2.7641 H   0  0  0  0  0  0  0  0  0  0  0  0
    3.5937   -1.1045    4.2274 H   0  0  0  0  0  0  0  0  0  0  0  0
    1.7724   -1.7748    6.0212 H   0  0  0  0  0  0  0  0  0  0  0  0
    1.1738   -1.0676    4.5788 H   0  0  0  0  0  0  0  0  0  0  0  0
   -0.5901   -2.3737    5.7072 H   0  0  0  0  0  0  0  0  0  0  0  0
   -0.2551   -3.0769    4.1412 H   0  0  0  0  0  0  0  0  0  0  0  0
    0.0510   -3.4487    7.7197 H   0  0  0  0  0  0  0  0  0  0  0  0
    1.7714   -3.5548    7.3415 H   0  0  0  0  0  0  0  0  0  0  0  0
    0.8449   -5.0153    7.6806 H   0  0  0  0  0  0  0  0  0  0  0  0
  1  2  1  0
  1 33  1  0
  1 34  1  0
  1 35  1  0
  2  3  1  0
  3 13  1  0
  3  4  1  0
  3 36  1  6
  4 20  1  0
  4  5  1  0
  4 37  1  1
  5 27  1  0
  5  6  1  0
  5 38  1  1
  6 31  1  0
  6  7  1  0
  6 39  1  1
  7 12  2  0
  7  8  1  0
  8  9  2  0
  8 40  1  0
  9 10  1  0
  9 41  1  0
 10 11  2  0
 10 42  1  0
 11 12  1  0
 11 43  1  0
 13 12  1  6
 13 23  1  0
 13 14  1  0
 14 15  1  0
 14 16  1  0
 14 44  1  6
 15 45  1  0
 16 17  1  0
 16 46  1  0
 16 47  1  0
 17 24  1  0
 17 18  1  6
 17 20  1  0
 18 19  1  0
 18 48  1  0
 18 49  1  0
 19 50  1  0
 20 21  1  6
 20 23  1  0
 21 22  1  0
 22 51  1  0
 22 52  1  0
 22 53  1  0
 23 24  1  0
 23 54  1  6
 24 25  1  6
 24 27  1  0
 25 26  1  0
 26 55  1  0
 26 56  1  0
 26 57  1  0
 27 28  1  6
 27 29  1  0
 28 58  1  0
 29 30  1  0
 29 59  1  0
 29 60  1  0
 30 31  1  0
 30 61  1  0
 30 62  1  0
 31 32  1  0
 32 63  1  0
 32 64  1  0
 32 65  1  0
M  END
>  <i_m_ct_stereo_status>  (340) 
1

>  <s_m_source_file>  (340) 
/var/tmp/pbs.5076255.sched01/tmpwmgilt76/96rd2vfdyj.sdf

>  <i_m_source_file_index>  (340) 
46

>  <i_lp_mmshare_version>  (340) 
48012

>  <i_f3d_flags>  (340) 
0

>  <s_epik_input>  (340) 
W2NIXTFbY0hdW2NIXVtjSF1jKGMxW0NAQF0yMzQpW0NASF01W0NASF02W0NAQEhdKFtDQEhdMk9bQ0gzXSlbQ0BdNyhPW0NIM10pW0NAQF0oW0NIMl1bT0hdKShbQ0gyXVtDQEBIXTNbT0hdKVtDQF0oW0NASF00NykoT1tDSDNdKVtDQEBdNihbT0hdKVtDSDJdW0NIMl1ONVtDSDNd

>  <s_epik_cmdline>  (340) 
J2VwaWtfcHl0aG9uJywgJy1waHQnLCAnMi4wJywgJy1waCcsICc3LjAnLCAnLXRuJywgJzgnLCAnLW1hJywgJzIwMCcsICctaW1hZScsICc8aW5maWxlLm1hZT4nLCAnLW9tYWUnLCAnPG91dGZpbGUubWFlPic=

>  <r_epik_Ionization_Penalty>  (340) 
1.86148

>  <r_epik_Ionization_Penalty_Charging>  (340) 
0

>  <r_epik_Ionization_Penalty_Neutral>  (340) 
1.86148

>  <r_epik_State_Penalty>  (340) 
1.97977

>  <r_epik_Charging_Adjusted_Penalty>  (340) 
1.97977

>  <i_epik_Tot_Q>  (340) 
0

>  <i_epik_Tot_abs_Q>  (340) 
0

>  <s_lp_Force_Field>  (340) 
OPLS3e

>  <r_lp_Energy>  (340) 
352.083

>  <b_lp_Chiralities_Consistent>  (340) 
1

>  <s_lp_Variant>  (340) 
90:0-2

>  <s_i_glide_gridfile>  (340) 
pfpi4k_grid

>  <i_i_glide_lignum>  (340) 
46

>  <i_i_glide_rotatable_bonds>  (340) 
7

>  <r_i_docking_score>  (340) 
-2.92502

>  <r_i_glide_ligand_efficiency>  (340) 
-0.0914069

>  <r_i_glide_ligand_efficiency_sa>  (340) 
-0.290199

>  <r_i_glide_ligand_efficiency_ln>  (340) 
-0.654992

>  <r_i_glide_gscore>  (340) 
-2.92502

>  <r_i_glide_lipo>  (340) 
-0.0626234

>  <r_i_glide_hbond>  (340) 
-0.556243

>  <r_i_glide_metal>  (340) 
-0

>  <r_i_glide_rewards>  (340) 
-0.385005

>  <r_i_glide_evdw>  (340) 
-22.4747

>  <r_i_glide_ecoul>  (340) 
-5.99363

>  <r_i_glide_erotb>  (340) 
0.101628

>  <r_i_glide_esite>  (340) 
0

>  <r_i_glide_emodel>  (340) 
-34.4256

>  <r_i_glide_energy>  (340) 
-28.4683

>  <r_i_glide_einternal>  (340) 
1.90206

>  <r_i_glide_intrahb_reward>  (340) 
-0

>  <i_i_glide_confnum>  (340) 
1

>  <i_i_glide_posenum>  (340) 
8

>  <r_i_glide_eff_state_penalty>  (340) 
0

>  <ligand_id>  (340) 
90

>  <original_smiles>  (340) 
COC1C2C3C4c5ccccc5C15C(O)CC1(CO)C2(OC)C5C1(OC)C3(O)CCN4C

>  <smiles>  (340) 
[H]OC([H])([H])C12C([H])([H])C([H])(O[H])C34c5c([H])c([H])c([H])c([H])c5C5([H])N(C([H])([H])[H])C([H])([H])C([H])([H])C6(O[H])C5([H])C([H])(C3([H])OC([H])([H])[H])C1(OC([H])([H])[H])C4([H])C62OC([H])([H])[H]

$$$$
90:1:2
     RDKit          3D

 65 71  0  0  1  0  0  0  0  0999 V2000
    4.7390   -7.2773    4.0925 C   0  0  0  0  0  0  0  0  0  0  0  0
    3.5670   -6.8346    3.4205 O   0  0  0  0  0  0  0  0  0  0  0  0
    3.7537   -5.7341    2.5219 C   0  0  2  0  0  0  0  0  0  0  0  0
    4.1437   -4.4214    3.2351 C   0  0  2  0  0  0  0  0  0  0  0  0
    3.1516   -3.9186    4.3189 C   0  0  2  0  0  0  0  0  0  0  0  0
    1.8565   -4.8411    4.6606 C   0  0  2  0  0  0  0  0  0  0  0  0
    1.0426   -5.7575    3.6401 C   0  0  0  0  0  0  0  0  0  0  0  0
   -0.0148   -6.5245    4.1909 C   0  0  0  0  0  0  0  0  0  0  0  0
   -0.7466   -7.4507    3.4271 C   0  0  0  0  0  0  0  0  0  0  0  0
   -0.4219   -7.6594    2.0783 C   0  0  0  0  0  0  0  0  0  0  0  0
    0.6237   -6.9343    1.4944 C   0  0  0  0  0  0  0  0  0  0  0  0
    1.3395   -5.9657    2.2372 C   0  0  0  0  0  0  0  0  0  0  0  0
    2.5288   -5.2323    1.6205 C   0  0  2  0  0  0  0  0  0  0  0  0
    2.6473   -4.8416    0.0170 C   0  0  1  0  0  0  0  0  0  0  0  0
    1.4335   -5.0582   -0.7117 O   0  0  0  0  0  0  0  0  0  0  0  0
    3.1139   -3.2534   -0.2950 C   0  0  0  0  0  0  0  0  0  0  0  0
    3.5645   -2.5033    1.1240 C   0  0  2  0  0  0  0  0  0  0  0  0
    4.5425   -1.3126    0.9146 C   0  0  0  0  0  0  0  0  0  0  0  0
    5.4870   -1.4761   -0.1288 O   0  0  0  0  0  0  0  0  0  0  0  0
    3.9697   -3.6894    1.9315 C   0  0  1  0  0  0  0  0  0  0  0  0
    5.0174   -4.1505    1.0260 O   0  0  0  0  0  0  0  0  0  0  0  0
    6.3766   -3.9377    1.4111 C   0  0  0  0  0  0  0  0  0  0  0  0
    2.2839   -3.8001    1.8288 C   0  0  1  0  0  0  0  0  0  0  0  0
    2.5883   -2.3960    2.3348 C   0  0  2  0  0  0  0  0  0  0  0  0
    1.4473   -1.5758    2.0507 O   0  0  0  0  0  0  0  0  0  0  0  0
    1.6491   -0.1735    1.9024 C   0  0  0  0  0  0  0  0  0  0  0  0
    2.8439   -2.4342    3.8978 C   0  0  2  0  0  0  0  0  0  0  0  0
    3.9646   -1.6123    4.1431 O   0  0  0  0  0  0  0  0  0  0  0  0
    1.7188   -1.8557    4.7917 C   0  0  0  0  0  0  0  0  0  0  0  0
    0.5270   -2.8093    4.9717 C   0  0  0  0  0  0  0  0  0  0  0  0
    0.9340   -4.0956    5.5357 N   0  0  0  0  0  0  0  0  0  0  0  0
    1.4144   -3.9953    6.9117 C   0  0  0  0  0  0  0  0  0  0  0  0
    4.4999   -8.1559    4.6921 H   0  0  0  0  0  0  0  0  0  0  0  0
    5.1289   -6.5169    4.7703 H   0  0  0  0  0  0  0  0  0  0  0  0
    5.5295   -7.5614    3.3956 H   0  0  0  0  0  0  0  0  0  0  0  0
    4.5320   -6.1311    1.8697 H   0  0  0  0  0  0  0  0  0  0  0  0
    5.1614   -4.4064    3.6154 H   0  0  0  0  0  0  0  0  0  0  0  0
    3.7168   -3.8497    5.2535 H   0  0  0  0  0  0  0  0  0  0  0  0
    2.2812   -5.6194    5.2995 H   0  0  0  0  0  0  0  0  0  0  0  0
   -0.2487   -6.4290    5.2418 H   0  0  0  0  0  0  0  0  0  0  0  0
   -1.5355   -8.0331    3.8793 H   0  0  0  0  0  0  0  0  0  0  0  0
   -0.9563   -8.4011    1.4981 H   0  0  0  0  0  0  0  0  0  0  0  0
    0.8997   -7.1646    0.4771 H   0  0  0  0  0  0  0  0  0  0  0  0
    3.3883   -5.5164   -0.4039 H   0  0  0  0  0  0  0  0  0  0  0  0
    1.6712   -5.0630   -1.6374 H   0  0  0  0  0  0  0  0  0  0  0  0
    3.9153   -3.2584   -1.0361 H   0  0  0  0  0  0  0  0  0  0  0  0
    2.2885   -2.6896   -0.7390 H   0  0  0  0  0  0  0  0  0  0  0  0
    4.0166   -0.3882    0.6964 H   0  0  0  0  0  0  0  0  0  0  0  0
    5.1084   -1.1287    1.8291 H   0  0  0  0  0  0  0  0  0  0  0  0
    5.0150   -1.6896   -0.9196 H   0  0  0  0  0  0  0  0  0  0  0  0
    6.9886   -4.0073    0.5118 H   0  0  0  0  0  0  0  0  0  0  0  0
    6.7305   -4.6993    2.1089 H   0  0  0  0  0  0  0  0  0  0  0  0
    6.5402   -2.9542    1.8564 H   0  0  0  0  0  0  0  0  0  0  0  0
    1.4561   -3.7218    2.5138 H   0  0  0  0  0  0  0  0  0  0  0  0
    0.6943    0.3279    2.0568 H   0  0  0  0  0  0  0  0  0  0  0  0
    1.9732    0.1028    0.8999 H   0  0  0  0  0  0  0  0  0  0  0  0
    2.3564    0.2267    2.6292 H   0  0  0  0  0  0  0  0  0  0  0  0
    3.7425   -0.7478    3.8301 H   0  0  0  0  0  0  0  0  0  0  0  0
    2.1371   -1.6234    5.7707 H   0  0  0  0  0  0  0  0  0  0  0  0
    1.3601   -0.8905    4.4348 H   0  0  0  0  0  0  0  0  0  0  0  0
   -0.2025   -2.3564    5.6434 H   0  0  0  0  0  0  0  0  0  0  0  0
    0.0171   -2.9654    4.0202 H   0  0  0  0  0  0  0  0  0  0  0  0
    0.6787   -3.4795    7.5287 H   0  0  0  0  0  0  0  0  0  0  0  0
    2.3601   -3.4583    6.9929 H   0  0  0  0  0  0  0  0  0  0  0  0
    1.5580   -4.9901    7.3386 H   0  0  0  0  0  0  0  0  0  0  0  0
  1  2  1  0
  1 33  1  0
  1 34  1  0
  1 35  1  0
  2  3  1  0
  3 13  1  0
  3  4  1  0
  3 36  1  6
  4 20  1  0
  4  5  1  0
  4 37  1  1
  5 27  1  0
  5  6  1  0
  5 38  1  1
  6 31  1  0
  6  7  1  0
  6 39  1  1
  7 12  2  0
  7  8  1  0
  8  9  2  0
  8 40  1  0
  9 10  1  0
  9 41  1  0
 10 11  2  0
 10 42  1  0
 11 12  1  0
 11 43  1  0
 13 12  1  6
 13 23  1  0
 13 14  1  0
 14 15  1  0
 14 16  1  0
 14 44  1  6
 15 45  1  0
 16 17  1  0
 16 46  1  0
 16 47  1  0
 17 24  1  0
 17 18  1  6
 17 20  1  0
 18 19  1  0
 18 48  1  0
 18 49  1  0
 19 50  1  0
 20 21  1  6
 20 23  1  0
 21 22  1  0
 22 51  1  0
 22 52  1  0
 22 53  1  0
 23 24  1  0
 23 54  1  6
 24 25  1  1
 24 27  1  0
 25 26  1  0
 26 55  1  0
 26 56  1  0
 26 57  1  0
 27 28  1  6
 27 29  1  0
 28 58  1  0
 29 30  1  0
 29 59  1  0
 29 60  1  0
 30 31  1  0
 30 61  1  0
 30 62  1  0
 31 32  1  0
 32 63  1  0
 32 64  1  0
 32 65  1  0
M  END
>  <i_m_ct_stereo_status>  (341) 
1

>  <s_m_source_file>  (341) 
/var/tmp/pbs.5076255.sched01/tmpwmgilt76/96rd2vfdyj.sdf

>  <i_m_source_file_index>  (341) 
46

>  <i_lp_mmshare_version>  (341) 
48012

>  <i_f3d_flags>  (341) 
0

>  <s_epik_input>  (341) 
W2NIXTFbY0hdW2NIXVtjSF1jKGMxW0NAQF0yMzQpW0NASF01W0NASF02W0NAQEhdKFtDQEhdMk9bQ0gzXSlbQ0BdNyhPW0NIM10pW0NAQF0oW0NIMl1bT0hdKShbQ0gyXVtDQEBIXTNbT0hdKVtDQF0oW0NASF00NykoT1tDSDNdKVtDQEBdNihbT0hdKVtDSDJdW0NIMl1ONVtDSDNd

>  <s_epik_cmdline>  (341) 
J2VwaWtfcHl0aG9uJywgJy1waHQnLCAnMi4wJywgJy1waCcsICc3LjAnLCAnLXRuJywgJzgnLCAnLW1hJywgJzIwMCcsICctaW1hZScsICc8aW5maWxlLm1hZT4nLCAnLW9tYWUnLCAnPG91dGZpbGUubWFlPic=

>  <r_epik_Ionization_Penalty>  (341) 
1.86148

>  <r_epik_Ionization_Penalty_Charging>  (341) 
0

>  <r_epik_Ionization_Penalty_Neutral>  (341) 
1.86148

>  <r_epik_State_Penalty>  (341) 
1.97977

>  <r_epik_Charging_Adjusted_Penalty>  (341) 
1.97977

>  <i_epik_Tot_Q>  (341) 
0

>  <i_epik_Tot_abs_Q>  (341) 
0

>  <s_lp_Force_Field>  (341) 
OPLS3e

>  <r_lp_Energy>  (341) 
352.083

>  <b_lp_Chiralities_Consistent>  (341) 
1

>  <s_lp_Variant>  (341) 
90:0-2

>  <s_i_glide_gridfile>  (341) 
pfpi4k_grid

>  <i_i_glide_lignum>  (341) 
46

>  <i_i_glide_rotatable_bonds>  (341) 
7

>  <r_i_docking_score>  (341) 
-2.78593

>  <r_i_glide_ligand_efficiency>  (341) 
-0.0870604

>  <r_i_glide_ligand_efficiency_sa>  (341) 
-0.2764

>  <r_i_glide_ligand_efficiency_ln>  (341) 
-0.623846

>  <r_i_glide_gscore>  (341) 
-2.78593

>  <r_i_glide_lipo>  (341) 
-0.118748

>  <r_i_glide_hbond>  (341) 
-0.346395

>  <r_i_glide_metal>  (341) 
-0

>  <r_i_glide_rewards>  (341) 
-0.385005

>  <r_i_glide_evdw>  (341) 
-21.0338

>  <r_i_glide_ecoul>  (341) 
-6.57147

>  <r_i_glide_erotb>  (341) 
0.101628

>  <r_i_glide_esite>  (341) 
0

>  <r_i_glide_emodel>  (341) 
-33.4542

>  <r_i_glide_energy>  (341) 
-27.6053

>  <r_i_glide_einternal>  (341) 
1.76362

>  <r_i_glide_intrahb_reward>  (341) 
-0

>  <i_i_glide_confnum>  (341) 
1

>  <i_i_glide_posenum>  (341) 
17

>  <r_i_glide_eff_state_penalty>  (341) 
0

>  <ligand_id>  (341) 
90

>  <original_smiles>  (341) 
COC1C2C3C4c5ccccc5C15C(O)CC1(CO)C2(OC)C5C1(OC)C3(O)CCN4C

>  <smiles>  (341) 
[H]OC([H])([H])C12C([H])([H])C([H])(O[H])C34c5c([H])c([H])c([H])c([H])c5C5([H])N(C([H])([H])[H])C([H])([H])C([H])([H])C6(O[H])C5([H])C([H])(C3([H])OC([H])([H])[H])C1(OC([H])([H])[H])C4([H])C62OC([H])([H])[H]

$$$$
91:0:0
     RDKit          3D

 29 31  0  0  1  0  0  0  0  0999 V2000
    3.9775   -0.7675   -3.9642 C   0  0  0  0  0  0  0  0  0  0  0  0
    4.2163   -0.2783   -2.7497 N   0  0  0  0  0  0  0  0  0  0  0  0
    4.1941   -1.1514   -1.7248 C   0  0  0  0  0  0  0  0  0  0  0  0
    3.9985   -2.5256   -1.9409 C   0  0  0  0  0  0  0  0  0  0  0  0
    3.9758   -3.5166   -0.7971 C   0  0  0  0  0  0  0  0  0  0  0  0
    5.3871   -3.9700   -0.3859 C   0  0  0  0  0  0  0  0  0  0  0  0
    5.3824   -5.1760    0.5386 C   0  0  0  0  0  0  0  0  0  0  0  0
    6.1612   -5.1765    1.7256 C   0  0  0  0  0  0  0  0  0  0  0  0
    6.1793   -6.3075    2.5776 C   0  0  0  0  0  0  0  0  0  0  0  0
    5.4049   -7.4237    2.2093 C   0  0  0  0  0  0  0  0  0  0  0  0
    4.6520   -7.4248    1.0542 C   0  0  0  0  0  0  0  0  0  0  0  0
    4.6226   -6.3206    0.1922 C   0  0  0  0  0  0  0  0  0  0  0  0
    4.0140   -8.6125    0.9211 O   0  0  0  0  0  0  0  0  0  0  0  0
    4.3775   -9.3733    2.0472 C   0  0  0  0  0  0  0  0  0  0  0  0
    5.2574   -8.6143    2.8449 O   0  0  0  0  0  0  0  0  0  0  0  0
    3.7993   -2.9348   -3.2760 C   0  0  0  0  0  0  0  0  0  0  0  0
    3.8157   -2.0487   -4.2942 N   0  0  0  0  0  0  0  0  0  0  0  0
    4.0180   -0.0645   -4.7805 H   0  0  0  0  0  0  0  0  0  0  0  0
    4.3576   -0.7522   -0.7330 H   0  0  0  0  0  0  0  0  0  0  0  0
    3.4547   -3.0875    0.0587 H   0  0  0  0  0  0  0  0  0  0  0  0
    3.3608   -4.3476   -1.1300 H   0  0  0  0  0  0  0  0  0  0  0  0
    5.9746   -4.2304   -1.2648 H   0  0  0  0  0  0  0  0  0  0  0  0
    5.9022   -3.1343    0.0920 H   0  0  0  0  0  0  0  0  0  0  0  0
    6.7569   -4.3115    1.9852 H   0  0  0  0  0  0  0  0  0  0  0  0
    6.7700   -6.3214    3.4856 H   0  0  0  0  0  0  0  0  0  0  0  0
    4.0510   -6.3825   -0.7153 H   0  0  0  0  0  0  0  0  0  0  0  0
    3.4821   -9.6296    2.6175 H   0  0  0  0  0  0  0  0  0  0  0  0
    4.8622  -10.2943    1.7182 H   0  0  0  0  0  0  0  0  0  0  0  0
    3.6461   -3.9709   -3.5450 H   0  0  0  0  0  0  0  0  0  0  0  0
  1 17  2  0
  1  2  1  0
  1 18  1  0
  2  3  2  0
  3  4  1  0
  3 19  1  0
  4  5  1  0
  4 16  2  0
  5  6  1  0
  5 20  1  0
  5 21  1  0
  6  7  1  0
  6 22  1  0
  6 23  1  0
  7 12  1  0
  7  8  2  0
  8  9  1  0
  8 24  1  0
  9 10  2  0
  9 25  1  0
 10 15  1  0
 10 11  1  0
 11 12  2  0
 11 13  1  0
 12 26  1  0
 13 14  1  0
 14 15  1  0
 14 27  1  0
 14 28  1  0
 16 17  1  0
 16 29  1  0
M  END
>  <i_m_ct_stereo_status>  (342) 
1

>  <s_m_source_file>  (342) 
/var/tmp/pbs.5076255.sched01/tmpwmgilt76/96rd2vfdyj.sdf

>  <i_m_source_file_index>  (342) 
47

>  <i_lp_mmshare_version>  (342) 
48012

>  <i_f3d_flags>  (342) 
0

>  <s_epik_input>  (342) 
W2NIXTFuW2NIXW5bY0hdYzFbQ0gyXVtDSDJdYyhbY0hdW2NIXTIpW2NIXWMoYzIzKU9bQ0gyXU8z

>  <s_epik_cmdline>  (342) 
J2VwaWtfcHl0aG9uJywgJy1waHQnLCAnMi4wJywgJy1waCcsICc3LjAnLCAnLXRuJywgJzgnLCAnLW1hJywgJzIwMCcsICctaW1hZScsICc8aW5maWxlLm1hZT4nLCAnLW9tYWUnLCAnPG91dGZpbGUubWFlPic=

>  <r_lp_tautomer_probability>  (342) 
1

>  <r_epik_Ionization_Penalty>  (342) 
2.54142e-06

>  <r_epik_Ionization_Penalty_Charging>  (342) 
0

>  <r_epik_Ionization_Penalty_Neutral>  (342) 
2.54142e-06

>  <r_epik_State_Penalty>  (342) 
-0

>  <r_epik_Charging_Adjusted_Penalty>  (342) 
0

>  <i_epik_Tot_Q>  (342) 
0

>  <i_epik_Tot_abs_Q>  (342) 
0

>  <s_epik_Chemistry_Notes>  (342) 
This compound contains an electron-poor aromatic ring that is susceptible to covalent hydrolysis at low pH, typically resulting in measured values for nitrogen ring protonation that are around two units higher than predicted values. This compound contains an acetal/aminal-like group ( X-CH(R)-Y where X, Y are N, S, or O) that may be acid/base labile, releasing an aldehyde.

>  <s_lp_Force_Field>  (342) 
OPLS3e

>  <r_lp_Energy>  (342) 
32.1462

>  <b_lp_Chiralities_Consistent>  (342) 
1

>  <s_lp_Variant>  (342) 
91:0-1

>  <s_i_glide_gridfile>  (342) 
pfpi4k_grid

>  <i_i_glide_lignum>  (342) 
47

>  <i_i_glide_rotatable_bonds>  (342) 
3

>  <r_i_docking_score>  (342) 
-3.89931

>  <r_i_glide_ligand_efficiency>  (342) 
-0.229371

>  <r_i_glide_ligand_efficiency_sa>  (342) 
-0.589778

>  <r_i_glide_ligand_efficiency_ln>  (342) 
-1.01724

>  <r_i_glide_gscore>  (342) 
-3.89931

>  <r_i_glide_lipo>  (342) 
-0.582488

>  <r_i_glide_hbond>  (342) 
-0.32

>  <r_i_glide_metal>  (342) 
-0

>  <r_i_glide_rewards>  (342) 
-2.11974

>  <r_i_glide_evdw>  (342) 
-21.7224

>  <r_i_glide_ecoul>  (342) 
-4.84958

>  <r_i_glide_erotb>  (342) 
0.981031

>  <r_i_glide_esite>  (342) 
-0.0445518

>  <r_i_glide_emodel>  (342) 
-32.4669

>  <r_i_glide_energy>  (342) 
-26.572

>  <r_i_glide_einternal>  (342) 
1.39431

>  <r_i_glide_intrahb_reward>  (342) 
-0

>  <i_i_glide_confnum>  (342) 
6

>  <i_i_glide_posenum>  (342) 
14

>  <r_i_glide_eff_state_penalty>  (342) 
0

>  <ligand_id>  (342) 
91

>  <original_smiles>  (342) 
c1ncc(CCc2ccc3c(c2)OCO3)cn1

>  <smiles>  (342) 
[H]c1nc([H])c(C([H])([H])C([H])([H])c2c([H])c([H])c3c(c2[H])OC([H])([H])O3)c([H])n1

$$$$
91:0:1
     RDKit          3D

 29 31  0  0  1  0  0  0  0  0999 V2000
   -0.9530    0.6232    4.6751 C   0  0  0  0  0  0  0  0  0  0  0  0
   -0.6644    0.8311    3.3922 N   0  0  0  0  0  0  0  0  0  0  0  0
   -1.1575    1.9538    2.8321 C   0  0  0  0  0  0  0  0  0  0  0  0
   -1.9490    2.8538    3.5724 C   0  0  0  0  0  0  0  0  0  0  0  0
   -2.5091    4.1099    2.9540 C   0  0  0  0  0  0  0  0  0  0  0  0
   -3.8822    3.8943    2.2957 C   0  0  0  0  0  0  0  0  0  0  0  0
   -4.5554    5.1984    1.8876 C   0  0  0  0  0  0  0  0  0  0  0  0
   -5.9530    5.3518    2.0646 C   0  0  0  0  0  0  0  0  0  0  0  0
   -6.6001    6.5448    1.6782 C   0  0  0  0  0  0  0  0  0  0  0  0
   -5.8201    7.5815    1.1428 C   0  0  0  0  0  0  0  0  0  0  0  0
   -4.4596    7.4434    0.9821 C   0  0  0  0  0  0  0  0  0  0  0  0
   -3.7954    6.2693    1.3505 C   0  0  0  0  0  0  0  0  0  0  0  0
   -3.9426    8.5737    0.4417 O   0  0  0  0  0  0  0  0  0  0  0  0
   -5.0284    9.4450    0.2666 C   0  0  0  0  0  0  0  0  0  0  0  0
   -6.2020    8.8108    0.7132 O   0  0  0  0  0  0  0  0  0  0  0  0
   -2.1801    2.5291    4.9226 C   0  0  0  0  0  0  0  0  0  0  0  0
   -1.6848    1.4019    5.4734 N   0  0  0  0  0  0  0  0  0  0  0  0
   -0.5524   -0.2767    5.1158 H   0  0  0  0  0  0  0  0  0  0  0  0
   -0.9260    2.1248    1.7892 H   0  0  0  0  0  0  0  0  0  0  0  0
   -2.5824    4.8608    3.7353 H   0  0  0  0  0  0  0  0  0  0  0  0
   -1.7876    4.4787    2.2300 H   0  0  0  0  0  0  0  0  0  0  0  0
   -3.7870    3.2515    1.4201 H   0  0  0  0  0  0  0  0  0  0  0  0
   -4.5372    3.3620    2.9856 H   0  0  0  0  0  0  0  0  0  0  0  0
   -6.5449    4.5475    2.4798 H   0  0  0  0  0  0  0  0  0  0  0  0
   -7.6675    6.6557    1.7776 H   0  0  0  0  0  0  0  0  0  0  0  0
   -2.7288    6.2067    1.2049 H   0  0  0  0  0  0  0  0  0  0  0  0
   -4.8542   10.3536    0.8427 H   0  0  0  0  0  0  0  0  0  0  0  0
   -5.1229    9.7010   -0.7900 H   0  0  0  0  0  0  0  0  0  0  0  0
   -2.7762    3.1647    5.5641 H   0  0  0  0  0  0  0  0  0  0  0  0
  1 17  2  0
  1  2  1  0
  1 18  1  0
  2  3  2  0
  3  4  1  0
  3 19  1  0
  4  5  1  0
  4 16  2  0
  5  6  1  0
  5 20  1  0
  5 21  1  0
  6  7  1  0
  6 22  1  0
  6 23  1  0
  7 12  1  0
  7  8  2  0
  8  9  1  0
  8 24  1  0
  9 10  2  0
  9 25  1  0
 10 15  1  0
 10 11  1  0
 11 12  2  0
 11 13  1  0
 12 26  1  0
 13 14  1  0
 14 15  1  0
 14 27  1  0
 14 28  1  0
 16 17  1  0
 16 29  1  0
M  END
>  <i_m_ct_stereo_status>  (343) 
1

>  <s_m_source_file>  (343) 
/var/tmp/pbs.5076255.sched01/tmpwmgilt76/96rd2vfdyj.sdf

>  <i_m_source_file_index>  (343) 
47

>  <i_lp_mmshare_version>  (343) 
48012

>  <i_f3d_flags>  (343) 
0

>  <s_epik_input>  (343) 
W2NIXTFuW2NIXW5bY0hdYzFbQ0gyXVtDSDJdYyhbY0hdW2NIXTIpW2NIXWMoYzIzKU9bQ0gyXU8z

>  <s_epik_cmdline>  (343) 
J2VwaWtfcHl0aG9uJywgJy1waHQnLCAnMi4wJywgJy1waCcsICc3LjAnLCAnLXRuJywgJzgnLCAnLW1hJywgJzIwMCcsICctaW1hZScsICc8aW5maWxlLm1hZT4nLCAnLW9tYWUnLCAnPG91dGZpbGUubWFlPic=

>  <r_lp_tautomer_probability>  (343) 
1

>  <r_epik_Ionization_Penalty>  (343) 
2.54142e-06

>  <r_epik_Ionization_Penalty_Charging>  (343) 
0

>  <r_epik_Ionization_Penalty_Neutral>  (343) 
2.54142e-06

>  <r_epik_State_Penalty>  (343) 
-0

>  <r_epik_Charging_Adjusted_Penalty>  (343) 
0

>  <i_epik_Tot_Q>  (343) 
0

>  <i_epik_Tot_abs_Q>  (343) 
0

>  <s_epik_Chemistry_Notes>  (343) 
This compound contains an electron-poor aromatic ring that is susceptible to covalent hydrolysis at low pH, typically resulting in measured values for nitrogen ring protonation that are around two units higher than predicted values. This compound contains an acetal/aminal-like group ( X-CH(R)-Y where X, Y are N, S, or O) that may be acid/base labile, releasing an aldehyde.

>  <s_lp_Force_Field>  (343) 
OPLS3e

>  <r_lp_Energy>  (343) 
32.1462

>  <b_lp_Chiralities_Consistent>  (343) 
1

>  <s_lp_Variant>  (343) 
91:0-1

>  <s_i_glide_gridfile>  (343) 
pfpi4k_grid

>  <i_i_glide_lignum>  (343) 
47

>  <i_i_glide_rotatable_bonds>  (343) 
3

>  <r_i_docking_score>  (343) 
-3.66609

>  <r_i_glide_ligand_efficiency>  (343) 
-0.215652

>  <r_i_glide_ligand_efficiency_sa>  (343) 
-0.554503

>  <r_i_glide_ligand_efficiency_ln>  (343) 
-0.956402

>  <r_i_glide_gscore>  (343) 
-3.66609

>  <r_i_glide_lipo>  (343) 
-0.931407

>  <r_i_glide_hbond>  (343) 
0

>  <r_i_glide_metal>  (343) 
-0

>  <r_i_glide_rewards>  (343) 
-2.29891

>  <r_i_glide_evdw>  (343) 
-25.6721

>  <r_i_glide_ecoul>  (343) 
-0.735879

>  <r_i_glide_erotb>  (343) 
0.981031

>  <r_i_glide_esite>  (343) 
-0.022815

>  <r_i_glide_emodel>  (343) 
-31.9381

>  <r_i_glide_energy>  (343) 
-26.408

>  <r_i_glide_einternal>  (343) 
1.63424

>  <r_i_glide_intrahb_reward>  (343) 
-0

>  <i_i_glide_confnum>  (343) 
4

>  <i_i_glide_posenum>  (343) 
32

>  <r_i_glide_eff_state_penalty>  (343) 
0

>  <ligand_id>  (343) 
91

>  <original_smiles>  (343) 
c1ncc(CCc2ccc3c(c2)OCO3)cn1

>  <smiles>  (343) 
[H]c1nc([H])c(C([H])([H])C([H])([H])c2c([H])c([H])c3c(c2[H])OC([H])([H])O3)c([H])n1

$$$$
91:0:2
     RDKit          3D

 29 31  0  0  1  0  0  0  0  0999 V2000
    4.2097   -0.9758   -3.7324 C   0  0  0  0  0  0  0  0  0  0  0  0
    3.6128   -2.0832   -4.1785 N   0  0  0  0  0  0  0  0  0  0  0  0
    3.1897   -2.9534   -3.2386 C   0  0  0  0  0  0  0  0  0  0  0  0
    3.4096   -2.7198   -1.8687 C   0  0  0  0  0  0  0  0  0  0  0  0
    2.9118   -3.6928   -0.8322 C   0  0  0  0  0  0  0  0  0  0  0  0
    4.0117   -4.6461   -0.3208 C   0  0  0  0  0  0  0  0  0  0  0  0
    3.4931   -5.7990    0.5313 C   0  0  0  0  0  0  0  0  0  0  0  0
    4.3974   -6.7665    1.0388 C   0  0  0  0  0  0  0  0  0  0  0  0
    3.9345   -7.8659    1.8020 C   0  0  0  0  0  0  0  0  0  0  0  0
    2.5522   -7.9699    2.0372 C   0  0  0  0  0  0  0  0  0  0  0  0
    1.6716   -7.0306    1.5474 C   0  0  0  0  0  0  0  0  0  0  0  0
    2.1098   -5.9349    0.7965 C   0  0  0  0  0  0  0  0  0  0  0  0
    0.4019   -7.3558    1.8936 O   0  0  0  0  0  0  0  0  0  0  0  0
    0.5033   -8.5462    2.6362 C   0  0  0  0  0  0  0  0  0  0  0  0
    1.8612   -8.9187    2.7205 O   0  0  0  0  0  0  0  0  0  0  0  0
    4.0496   -1.5178   -1.5192 C   0  0  0  0  0  0  0  0  0  0  0  0
    4.4679   -0.6523   -2.4638 N   0  0  0  0  0  0  0  0  0  0  0  0
    4.5455   -0.2818   -4.4907 H   0  0  0  0  0  0  0  0  0  0  0  0
    2.6793   -3.8400   -3.5936 H   0  0  0  0  0  0  0  0  0  0  0  0
    2.4750   -3.1367   -0.0014 H   0  0  0  0  0  0  0  0  0  0  0  0
    2.1090   -4.2452   -1.3210 H   0  0  0  0  0  0  0  0  0  0  0  0
    4.5560   -5.0691   -1.1663 H   0  0  0  0  0  0  0  0  0  0  0  0
    4.7480   -4.0850    0.2561 H   0  0  0  0  0  0  0  0  0  0  0  0
    5.4536   -6.6663    0.8331 H   0  0  0  0  0  0  0  0  0  0  0  0
    4.6171   -8.6058    2.1933 H   0  0  0  0  0  0  0  0  0  0  0  0
    1.3869   -5.2416    0.4142 H   0  0  0  0  0  0  0  0  0  0  0  0
    0.0986   -8.3723    3.6366 H   0  0  0  0  0  0  0  0  0  0  0  0
   -0.0728   -9.3343    2.1431 H   0  0  0  0  0  0  0  0  0  0  0  0
    4.2416   -1.2587   -0.4864 H   0  0  0  0  0  0  0  0  0  0  0  0
  1 17  2  0
  1  2  1  0
  1 18  1  0
  2  3  2  0
  3  4  1  0
  3 19  1  0
  4  5  1  0
  4 16  2  0
  5  6  1  0
  5 20  1  0
  5 21  1  0
  6  7  1  0
  6 22  1  0
  6 23  1  0
  7 12  1  0
  7  8  2  0
  8  9  1  0
  8 24  1  0
  9 10  2  0
  9 25  1  0
 10 15  1  0
 10 11  1  0
 11 12  2  0
 11 13  1  0
 12 26  1  0
 13 14  1  0
 14 15  1  0
 14 27  1  0
 14 28  1  0
 16 17  1  0
 16 29  1  0
M  END
>  <i_m_ct_stereo_status>  (344) 
1

>  <s_m_source_file>  (344) 
/var/tmp/pbs.5076255.sched01/tmpwmgilt76/96rd2vfdyj.sdf

>  <i_m_source_file_index>  (344) 
47

>  <i_lp_mmshare_version>  (344) 
48012

>  <i_f3d_flags>  (344) 
0

>  <s_epik_input>  (344) 
W2NIXTFuW2NIXW5bY0hdYzFbQ0gyXVtDSDJdYyhbY0hdW2NIXTIpW2NIXWMoYzIzKU9bQ0gyXU8z

>  <s_epik_cmdline>  (344) 
J2VwaWtfcHl0aG9uJywgJy1waHQnLCAnMi4wJywgJy1waCcsICc3LjAnLCAnLXRuJywgJzgnLCAnLW1hJywgJzIwMCcsICctaW1hZScsICc8aW5maWxlLm1hZT4nLCAnLW9tYWUnLCAnPG91dGZpbGUubWFlPic=

>  <r_lp_tautomer_probability>  (344) 
1

>  <r_epik_Ionization_Penalty>  (344) 
2.54142e-06

>  <r_epik_Ionization_Penalty_Charging>  (344) 
0

>  <r_epik_Ionization_Penalty_Neutral>  (344) 
2.54142e-06

>  <r_epik_State_Penalty>  (344) 
-0

>  <r_epik_Charging_Adjusted_Penalty>  (344) 
0

>  <i_epik_Tot_Q>  (344) 
0

>  <i_epik_Tot_abs_Q>  (344) 
0

>  <s_epik_Chemistry_Notes>  (344) 
This compound contains an electron-poor aromatic ring that is susceptible to covalent hydrolysis at low pH, typically resulting in measured values for nitrogen ring protonation that are around two units higher than predicted values. This compound contains an acetal/aminal-like group ( X-CH(R)-Y where X, Y are N, S, or O) that may be acid/base labile, releasing an aldehyde.

>  <s_lp_Force_Field>  (344) 
OPLS3e

>  <r_lp_Energy>  (344) 
32.1462

>  <b_lp_Chiralities_Consistent>  (344) 
1

>  <s_lp_Variant>  (344) 
91:0-1

>  <s_i_glide_gridfile>  (344) 
pfpi4k_grid

>  <i_i_glide_lignum>  (344) 
47

>  <i_i_glide_rotatable_bonds>  (344) 
3

>  <r_i_docking_score>  (344) 
-3.33881

>  <r_i_glide_ligand_efficiency>  (344) 
-0.196401

>  <r_i_glide_ligand_efficiency_sa>  (344) 
-0.505002

>  <r_i_glide_ligand_efficiency_ln>  (344) 
-0.871022

>  <r_i_glide_gscore>  (344) 
-3.33881

>  <r_i_glide_lipo>  (344) 
-0.202711

>  <r_i_glide_hbond>  (344) 
-0.287365

>  <r_i_glide_metal>  (344) 
-0

>  <r_i_glide_rewards>  (344) 
-2.11655

>  <r_i_glide_evdw>  (344) 
-24.4188

>  <r_i_glide_ecoul>  (344) 
-3.08166

>  <r_i_glide_erotb>  (344) 
0.981031

>  <r_i_glide_esite>  (344) 
-0.0300253

>  <r_i_glide_emodel>  (344) 
-31.6926

>  <r_i_glide_energy>  (344) 
-27.5005

>  <r_i_glide_einternal>  (344) 
2.83916

>  <r_i_glide_intrahb_reward>  (344) 
-0

>  <i_i_glide_confnum>  (344) 
6

>  <i_i_glide_posenum>  (344) 
25

>  <r_i_glide_eff_state_penalty>  (344) 
0

>  <ligand_id>  (344) 
91

>  <original_smiles>  (344) 
c1ncc(CCc2ccc3c(c2)OCO3)cn1

>  <smiles>  (344) 
[H]c1nc([H])c(C([H])([H])C([H])([H])c2c([H])c([H])c3c(c2[H])OC([H])([H])O3)c([H])n1

$$$$
93:0:0
     RDKit          3D

 32 34  0  0  1  0  0  0  0  0999 V2000
    5.6501   -3.3886   -2.7039 C   0  0  0  0  0  0  0  0  0  0  0  0
    4.6595   -2.7893   -1.6844 C   0  0  0  0  0  0  0  0  0  0  0  0
    3.4147   -2.4269   -2.5262 C   0  0  0  0  0  0  0  0  0  0  0  0
    4.3096   -3.8132   -0.5439 C   0  0  2  0  0  0  0  0  0  0  0  0
    3.2871   -3.2242    0.4624 C   0  0  0  0  0  0  0  0  0  0  0  0
    3.8833   -1.9644    1.1287 C   0  0  1  0  0  0  0  0  0  0  0  0
    5.1557   -2.3548    1.9067 C   0  0  0  0  0  0  0  0  0  0  0  0
    6.1832   -2.9510    0.9254 C   0  0  1  0  0  0  0  0  0  0  0  0
    5.5723   -4.2094    0.2673 C   0  0  0  0  0  0  0  0  0  0  0  0
    6.5337   -1.8996   -0.1474 C   0  0  0  0  0  0  0  0  0  0  0  0
    5.2603   -1.5318   -0.9567 C   0  0  2  0  0  0  0  0  0  0  0  0
    4.2387   -0.9345    0.0441 C   0  0  0  0  0  0  0  0  0  0  0  0
    5.2219   -4.2716   -3.1909 H   0  0  0  0  0  0  0  0  0  0  0  0
    6.6032   -3.7006   -2.2875 H   0  0  0  0  0  0  0  0  0  0  0  0
    5.8800   -2.6690   -3.4986 H   0  0  0  0  0  0  0  0  0  0  0  0
    2.5924   -1.9982   -1.9635 H   0  0  0  0  0  0  0  0  0  0  0  0
    3.0065   -3.3087   -3.0324 H   0  0  0  0  0  0  0  0  0  0  0  0
    3.6585   -1.7000   -3.3084 H   0  0  0  0  0  0  0  0  0  0  0  0
    3.8793   -4.7056   -0.9903 H   0  0  0  0  0  0  0  0  0  0  0  0
    2.3370   -2.9866   -0.0093 H   0  0  0  0  0  0  0  0  0  0  0  0
    3.0444   -3.9614    1.2289 H   0  0  0  0  0  0  0  0  0  0  0  0
    3.1565   -1.5310    1.8122 H   0  0  0  0  0  0  0  0  0  0  0  0
    5.5763   -1.4842    2.4103 H   0  0  0  0  0  0  0  0  0  0  0  0
    4.9121   -3.0743    2.6808 H   0  0  0  0  0  0  0  0  0  0  0  0
    7.0845   -3.2257    1.4738 H   0  0  0  0  0  0  0  0  0  0  0  0
    5.3073   -4.9365    1.0356 H   0  0  0  0  0  0  0  0  0  0  0  0
    6.3131   -4.7153   -0.3427 H   0  0  0  0  0  0  0  0  0  0  0  0
    6.9370   -1.0066    0.3379 H   0  0  0  0  0  0  0  0  0  0  0  0
    7.3361   -2.2567   -0.7854 H   0  0  0  0  0  0  0  0  0  0  0  0
    5.5053   -0.7745   -1.6975 H   0  0  0  0  0  0  0  0  0  0  0  0
    3.3256   -0.6356   -0.4521 H   0  0  0  0  0  0  0  0  0  0  0  0
    4.6423   -0.0253    0.5009 H   0  0  0  0  0  0  0  0  0  0  0  0
  1  2  1  0
  1 13  1  0
  1 14  1  0
  1 15  1  0
  2 11  1  0
  2  3  1  0
  2  4  1  0
  3 16  1  0
  3 17  1  0
  3 18  1  0
  4  9  1  0
  4  5  1  0
  4 19  1  6
  5  6  1  0
  5 20  1  0
  5 21  1  0
  6 12  1  0
  6  7  1  0
  6 22  1  1
  7  8  1  0
  7 23  1  0
  7 24  1  0
  8  9  1  0
  8 10  1  0
  8 25  1  1
  9 26  1  0
  9 27  1  0
 10 11  1  0
 10 28  1  0
 10 29  1  0
 11 12  1  0
 11 30  1  6
 12 31  1  0
 12 32  1  0
M  END
>  <i_m_ct_stereo_status>  (345) 
1

>  <s_m_source_file>  (345) 
/var/tmp/pbs.5076255.sched01/tmp54n2b71h/144k2pf1zoq.sdf

>  <i_m_source_file_index>  (345) 
2

>  <i_lp_mmshare_version>  (345) 
48012

>  <i_f3d_flags>  (345) 
0

>  <s_epik_input>  (345) 
W0NIM11DKFtDSDNdKShbQ0BIXTEyKVtDQEBIXTNbQ0gyXVtDQEhdKFtDSDJdMilbQ0gyXVtDQEhdKFtDSDJdMSlbQ0gyXTM=

>  <s_epik_cmdline>  (345) 
J2VwaWtfcHl0aG9uJywgJy1waHQnLCAnMi4wJywgJy1waCcsICc3LjAnLCAnLXRuJywgJzgnLCAnLW1hJywgJzIwMCcsICctaW1hZScsICc8aW5maWxlLm1hZT4nLCAnLW9tYWUnLCAnPG91dGZpbGUubWFlPic=

>  <r_lp_tautomer_probability>  (345) 
1

>  <r_epik_Ionization_Penalty>  (345) 
0

>  <r_epik_Ionization_Penalty_Charging>  (345) 
0

>  <r_epik_Ionization_Penalty_Neutral>  (345) 
0

>  <r_epik_State_Penalty>  (345) 
-0

>  <r_epik_Charging_Adjusted_Penalty>  (345) 
0

>  <i_epik_Tot_Q>  (345) 
0

>  <i_epik_Tot_abs_Q>  (345) 
0

>  <s_lp_Force_Field>  (345) 
OPLS3e

>  <r_lp_Energy>  (345) 
11.4033

>  <b_lp_Chiralities_Consistent>  (345) 
1

>  <s_lp_Variant>  (345) 
93:0-1

>  <s_i_glide_gridfile>  (345) 
pfpi4k_grid

>  <i_i_glide_lignum>  (345) 
2

>  <i_i_glide_rotatable_bonds>  (345) 
0

>  <r_i_docking_score>  (345) 
-3.65921

>  <r_i_glide_ligand_efficiency>  (345) 
-0.304934

>  <r_i_glide_ligand_efficiency_sa>  (345) 
-0.698124

>  <r_i_glide_ligand_efficiency_ln>  (345) 
-1.05002

>  <r_i_glide_gscore>  (345) 
-3.65921

>  <r_i_glide_lipo>  (345) 
-0.469119

>  <r_i_glide_hbond>  (345) 
0

>  <r_i_glide_metal>  (345) 
-0

>  <r_i_glide_rewards>  (345) 
-2.25

>  <r_i_glide_evdw>  (345) 
-17.9737

>  <r_i_glide_ecoul>  (345) 
-0.276011

>  <r_i_glide_erotb>  (345) 
0

>  <r_i_glide_esite>  (345) 
0

>  <r_i_glide_emodel>  (345) 
-22.5753

>  <r_i_glide_energy>  (345) 
-18.2497

>  <r_i_glide_einternal>  (345) 
0

>  <r_i_glide_intrahb_reward>  (345) 
-0

>  <i_i_glide_confnum>  (345) 
1

>  <i_i_glide_posenum>  (345) 
14

>  <r_i_glide_eff_state_penalty>  (345) 
0

>  <ligand_id>  (345) 
93

>  <original_smiles>  (345) 
CC1(C)C2CC3CC(C2)CC1C3

>  <smiles>  (345) 
[H]C([H])([H])C1(C([H])([H])[H])C2([H])C([H])([H])C3([H])C([H])([H])C([H])(C2([H])[H])C([H])([H])C1([H])C3([H])[H]

$$$$
93:0:1
     RDKit          3D

 32 34  0  0  1  0  0  0  0  0999 V2000
    4.5933   -3.4425   -3.2871 C   0  0  0  0  0  0  0  0  0  0  0  0
    4.3346   -2.6065   -2.0159 C   0  0  0  0  0  0  0  0  0  0  0  0
    3.2995   -1.5404   -2.4693 C   0  0  0  0  0  0  0  0  0  0  0  0
    3.7783   -3.4886   -0.8427 C   0  0  2  0  0  0  0  0  0  0  0  0
    3.4827   -2.6424    0.4222 C   0  0  0  0  0  0  0  0  0  0  0  0
    4.7809   -1.9565    0.9025 C   0  0  1  0  0  0  0  0  0  0  0  0
    5.8138   -3.0431    1.2762 C   0  0  0  0  0  0  0  0  0  0  0  0
    6.1146   -3.9009    0.0346 C   0  0  1  0  0  0  0  0  0  0  0  0
    4.8103   -4.5767   -0.4351 C   0  0  0  0  0  0  0  0  0  0  0  0
    6.6950   -3.0021   -1.0776 C   0  0  0  0  0  0  0  0  0  0  0  0
    5.6396   -1.9305   -1.4756 C   0  0  2  0  0  0  0  0  0  0  0  0
    5.3650   -1.0736   -0.2164 C   0  0  0  0  0  0  0  0  0  0  0  0
    3.6706   -3.8956   -3.6572 H   0  0  0  0  0  0  0  0  0  0  0  0
    5.3077   -4.2549   -3.1677 H   0  0  0  0  0  0  0  0  0  0  0  0
    4.9833   -2.8126   -4.0899 H   0  0  0  0  0  0  0  0  0  0  0  0
    2.9842   -0.8668   -1.6795 H   0  0  0  0  0  0  0  0  0  0  0  0
    2.3898   -2.0116   -2.8442 H   0  0  0  0  0  0  0  0  0  0  0  0
    3.6921   -0.9141   -3.2685 H   0  0  0  0  0  0  0  0  0  0  0  0
    2.8580   -3.9759   -1.1571 H   0  0  0  0  0  0  0  0  0  0  0  0
    2.7039   -1.8988    0.2483 H   0  0  0  0  0  0  0  0  0  0  0  0
    3.0879   -3.2732    1.2162 H   0  0  0  0  0  0  0  0  0  0  0  0
    4.5724   -1.3414    1.7786 H   0  0  0  0  0  0  0  0  0  0  0  0
    6.7274   -2.5882    1.6557 H   0  0  0  0  0  0  0  0  0  0  0  0
    5.4230   -3.6666    2.0777 H   0  0  0  0  0  0  0  0  0  0  0  0
    6.8534   -4.6685    0.2989 H   0  0  0  0  0  0  0  0  0  0  0  0
    4.4005   -5.2017    0.3621 H   0  0  0  0  0  0  0  0  0  0  0  0
    5.0072   -5.2760   -1.2466 H   0  0  0  0  0  0  0  0  0  0  0  0
    7.6066   -2.5163   -0.7257 H   0  0  0  0  0  0  0  0  0  0  0  0
    7.0112   -3.5826   -1.9386 H   0  0  0  0  0  0  0  0  0  0  0  0
    6.0470   -1.3043   -2.2585 H   0  0  0  0  0  0  0  0  0  0  0  0
    4.6844   -0.2477   -0.4351 H   0  0  0  0  0  0  0  0  0  0  0  0
    6.2796   -0.5916    0.1271 H   0  0  0  0  0  0  0  0  0  0  0  0
  1  2  1  0
  1 13  1  0
  1 14  1  0
  1 15  1  0
  2 11  1  0
  2  3  1  0
  2  4  1  0
  3 16  1  0
  3 17  1  0
  3 18  1  0
  4  9  1  0
  4  5  1  0
  4 19  1  6
  5  6  1  0
  5 20  1  0
  5 21  1  0
  6 12  1  0
  6  7  1  0
  6 22  1  1
  7  8  1  0
  7 23  1  0
  7 24  1  0
  8  9  1  0
  8 10  1  0
  8 25  1  1
  9 26  1  0
  9 27  1  0
 10 11  1  0
 10 28  1  0
 10 29  1  0
 11 12  1  0
 11 30  1  6
 12 31  1  0
 12 32  1  0
M  END
>  <i_m_ct_stereo_status>  (346) 
1

>  <s_m_source_file>  (346) 
/var/tmp/pbs.5076255.sched01/tmp54n2b71h/144k2pf1zoq.sdf

>  <i_m_source_file_index>  (346) 
2

>  <i_lp_mmshare_version>  (346) 
48012

>  <i_f3d_flags>  (346) 
0

>  <s_epik_input>  (346) 
W0NIM11DKFtDSDNdKShbQ0BIXTEyKVtDQEBIXTNbQ0gyXVtDQEhdKFtDSDJdMilbQ0gyXVtDQEhdKFtDSDJdMSlbQ0gyXTM=

>  <s_epik_cmdline>  (346) 
J2VwaWtfcHl0aG9uJywgJy1waHQnLCAnMi4wJywgJy1waCcsICc3LjAnLCAnLXRuJywgJzgnLCAnLW1hJywgJzIwMCcsICctaW1hZScsICc8aW5maWxlLm1hZT4nLCAnLW9tYWUnLCAnPG91dGZpbGUubWFlPic=

>  <r_lp_tautomer_probability>  (346) 
1

>  <r_epik_Ionization_Penalty>  (346) 
0

>  <r_epik_Ionization_Penalty_Charging>  (346) 
0

>  <r_epik_Ionization_Penalty_Neutral>  (346) 
0

>  <r_epik_State_Penalty>  (346) 
-0

>  <r_epik_Charging_Adjusted_Penalty>  (346) 
0

>  <i_epik_Tot_Q>  (346) 
0

>  <i_epik_Tot_abs_Q>  (346) 
0

>  <s_lp_Force_Field>  (346) 
OPLS3e

>  <r_lp_Energy>  (346) 
11.4033

>  <b_lp_Chiralities_Consistent>  (346) 
1

>  <s_lp_Variant>  (346) 
93:0-1

>  <s_i_glide_gridfile>  (346) 
pfpi4k_grid

>  <i_i_glide_lignum>  (346) 
2

>  <i_i_glide_rotatable_bonds>  (346) 
0

>  <r_i_docking_score>  (346) 
-3.60629

>  <r_i_glide_ligand_efficiency>  (346) 
-0.300524

>  <r_i_glide_ligand_efficiency_sa>  (346) 
-0.688028

>  <r_i_glide_ligand_efficiency_ln>  (346) 
-1.03483

>  <r_i_glide_gscore>  (346) 
-3.60629

>  <r_i_glide_lipo>  (346) 
-0.380772

>  <r_i_glide_hbond>  (346) 
0

>  <r_i_glide_metal>  (346) 
-0

>  <r_i_glide_rewards>  (346) 
-2.25

>  <r_i_glide_evdw>  (346) 
-18.94

>  <r_i_glide_ecoul>  (346) 
-0.190115

>  <r_i_glide_erotb>  (346) 
0

>  <r_i_glide_esite>  (346) 
0

>  <r_i_glide_emodel>  (346) 
-23.3968

>  <r_i_glide_energy>  (346) 
-19.1301

>  <r_i_glide_einternal>  (346) 
0

>  <r_i_glide_intrahb_reward>  (346) 
-0

>  <i_i_glide_confnum>  (346) 
2

>  <i_i_glide_posenum>  (346) 
10

>  <r_i_glide_eff_state_penalty>  (346) 
0

>  <ligand_id>  (346) 
93

>  <original_smiles>  (346) 
CC1(C)C2CC3CC(C2)CC1C3

>  <smiles>  (346) 
[H]C([H])([H])C1(C([H])([H])[H])C2([H])C([H])([H])C3([H])C([H])([H])C([H])(C2([H])[H])C([H])([H])C1([H])C3([H])[H]

$$$$
93:0:2
     RDKit          3D

 32 34  0  0  1  0  0  0  0  0999 V2000
    5.5795   -4.1052    2.0887 C   0  0  0  0  0  0  0  0  0  0  0  0
    4.9843   -4.1258    0.6625 C   0  0  0  0  0  0  0  0  0  0  0  0
    4.6282   -5.6081    0.4019 C   0  0  0  0  0  0  0  0  0  0  0  0
    3.7155   -3.1891    0.5466 C   0  0  2  0  0  0  0  0  0  0  0  0
    3.1172   -3.2421   -0.8827 C   0  0  0  0  0  0  0  0  0  0  0  0
    4.1542   -2.7413   -1.9124 C   0  0  1  0  0  0  0  0  0  0  0  0
    4.5336   -1.2816   -1.5880 C   0  0  0  0  0  0  0  0  0  0  0  0
    5.1376   -1.2162   -0.1709 C   0  0  1  0  0  0  0  0  0  0  0  0
    4.0758   -1.7062    0.8432 C   0  0  0  0  0  0  0  0  0  0  0  0
    6.3950   -2.1077   -0.1057 C   0  0  0  0  0  0  0  0  0  0  0  0
    6.0130   -3.5796   -0.4047 C   0  0  2  0  0  0  0  0  0  0  0  0
    5.4185   -3.6187   -1.8404 C   0  0  0  0  0  0  0  0  0  0  0  0
    4.8626   -4.4902    2.8228 H   0  0  0  0  0  0  0  0  0  0  0  0
    5.8898   -3.1324    2.4494 H   0  0  0  0  0  0  0  0  0  0  0  0
    6.4603   -4.7554    2.1584 H   0  0  0  0  0  0  0  0  0  0  0  0
    4.1900   -5.8160   -0.5658 H   0  0  0  0  0  0  0  0  0  0  0  0
    3.9217   -5.9857    1.1512 H   0  0  0  0  0  0  0  0  0  0  0  0
    5.5146   -6.2481    0.4749 H   0  0  0  0  0  0  0  0  0  0  0  0
    2.9636   -3.5181    1.2545 H   0  0  0  0  0  0  0  0  0  0  0  0
    2.7598   -4.2327   -1.1428 H   0  0  0  0  0  0  0  0  0  0  0  0
    2.2263   -2.6180   -0.9346 H   0  0  0  0  0  0  0  0  0  0  0  0
    3.7317   -2.7920   -2.9137 H   0  0  0  0  0  0  0  0  0  0  0  0
    5.2468   -0.8966   -2.3211 H   0  0  0  0  0  0  0  0  0  0  0  0
    3.6516   -0.6551   -1.6548 H   0  0  0  0  0  0  0  0  0  0  0  0
    5.4097   -0.1832    0.0594 H   0  0  0  0  0  0  0  0  0  0  0  0
    3.1797   -1.0899    0.7637 H   0  0  0  0  0  0  0  0  0  0  0  0
    4.4244   -1.5599    1.8633 H   0  0  0  0  0  0  0  0  0  0  0  0
    7.1255   -1.7884   -0.8521 H   0  0  0  0  0  0  0  0  0  0  0  0
    6.9047   -1.9909    0.8444 H   0  0  0  0  0  0  0  0  0  0  0  0
    6.9096   -4.1879   -0.3695 H   0  0  0  0  0  0  0  0  0  0  0  0
    5.1859   -4.6277   -2.1673 H   0  0  0  0  0  0  0  0  0  0  0  0
    6.1587   -3.2533   -2.5570 H   0  0  0  0  0  0  0  0  0  0  0  0
  1  2  1  0
  1 13  1  0
  1 14  1  0
  1 15  1  0
  2 11  1  0
  2  3  1  0
  2  4  1  0
  3 16  1  0
  3 17  1  0
  3 18  1  0
  4  9  1  0
  4  5  1  0
  4 19  1  1
  5  6  1  0
  5 20  1  0
  5 21  1  0
  6 12  1  0
  6  7  1  0
  6 22  1  6
  7  8  1  0
  7 23  1  0
  7 24  1  0
  8  9  1  0
  8 10  1  0
  8 25  1  1
  9 26  1  0
  9 27  1  0
 10 11  1  0
 10 28  1  0
 10 29  1  0
 11 12  1  0
 11 30  1  6
 12 31  1  0
 12 32  1  0
M  END
>  <i_m_ct_stereo_status>  (347) 
1

>  <s_m_source_file>  (347) 
/var/tmp/pbs.5076255.sched01/tmp54n2b71h/144k2pf1zoq.sdf

>  <i_m_source_file_index>  (347) 
2

>  <i_lp_mmshare_version>  (347) 
48012

>  <i_f3d_flags>  (347) 
0

>  <s_epik_input>  (347) 
W0NIM11DKFtDSDNdKShbQ0BIXTEyKVtDQEBIXTNbQ0gyXVtDQEhdKFtDSDJdMilbQ0gyXVtDQEhdKFtDSDJdMSlbQ0gyXTM=

>  <s_epik_cmdline>  (347) 
J2VwaWtfcHl0aG9uJywgJy1waHQnLCAnMi4wJywgJy1waCcsICc3LjAnLCAnLXRuJywgJzgnLCAnLW1hJywgJzIwMCcsICctaW1hZScsICc8aW5maWxlLm1hZT4nLCAnLW9tYWUnLCAnPG91dGZpbGUubWFlPic=

>  <r_lp_tautomer_probability>  (347) 
1

>  <r_epik_Ionization_Penalty>  (347) 
0

>  <r_epik_Ionization_Penalty_Charging>  (347) 
0

>  <r_epik_Ionization_Penalty_Neutral>  (347) 
0

>  <r_epik_State_Penalty>  (347) 
-0

>  <r_epik_Charging_Adjusted_Penalty>  (347) 
0

>  <i_epik_Tot_Q>  (347) 
0

>  <i_epik_Tot_abs_Q>  (347) 
0

>  <s_lp_Force_Field>  (347) 
OPLS3e

>  <r_lp_Energy>  (347) 
11.4033

>  <b_lp_Chiralities_Consistent>  (347) 
1

>  <s_lp_Variant>  (347) 
93:0-1

>  <s_i_glide_gridfile>  (347) 
pfpi4k_grid

>  <i_i_glide_lignum>  (347) 
2

>  <i_i_glide_rotatable_bonds>  (347) 
0

>  <r_i_docking_score>  (347) 
-3.49688

>  <r_i_glide_ligand_efficiency>  (347) 
-0.291407

>  <r_i_glide_ligand_efficiency_sa>  (347) 
-0.667155

>  <r_i_glide_ligand_efficiency_ln>  (347) 
-1.00344

>  <r_i_glide_gscore>  (347) 
-3.49688

>  <r_i_glide_lipo>  (347) 
-0.37758

>  <r_i_glide_hbond>  (347) 
0

>  <r_i_glide_metal>  (347) 
-0

>  <r_i_glide_rewards>  (347) 
-2.25

>  <r_i_glide_evdw>  (347) 
-16.8811

>  <r_i_glide_ecoul>  (347) 
-0.168311

>  <r_i_glide_erotb>  (347) 
0

>  <r_i_glide_esite>  (347) 
0

>  <r_i_glide_emodel>  (347) 
-21.1841

>  <r_i_glide_energy>  (347) 
-17.0494

>  <r_i_glide_einternal>  (347) 
0

>  <r_i_glide_intrahb_reward>  (347) 
-0

>  <i_i_glide_confnum>  (347) 
1

>  <i_i_glide_posenum>  (347) 
8

>  <r_i_glide_eff_state_penalty>  (347) 
0

>  <ligand_id>  (347) 
93

>  <original_smiles>  (347) 
CC1(C)C2CC3CC(C2)CC1C3

>  <smiles>  (347) 
[H]C([H])([H])C1(C([H])([H])[H])C2([H])C([H])([H])C3([H])C([H])([H])C([H])(C2([H])[H])C([H])([H])C1([H])C3([H])[H]

$$$$
94:0:0
     RDKit          3D

 59 63  0  0  1  0  0  0  0  0999 V2000
    1.6932   -9.2648    2.2287 C   0  0  0  0  0  0  0  0  0  0  0  0
    0.7525   -8.0929    2.6069 C   0  0  1  0  0  0  0  0  0  0  0  0
   -0.5705   -8.7903    3.0393 C   0  0  0  0  0  0  0  0  0  0  0  0
   -1.6134   -7.8627    3.6636 C   0  0  0  0  0  0  0  0  0  0  0  0
   -1.0015   -7.1148    4.8460 C   0  0  0  0  0  0  0  0  0  0  0  0
    0.2317   -6.3310    4.4265 C   0  0  0  0  0  0  0  0  0  0  0  0
    1.3207   -7.2208    3.7826 C   0  0  2  0  0  0  0  0  0  0  0  0
    2.5360   -6.3255    3.3999 C   0  0  1  0  0  0  0  0  0  0  0  0
    3.8805   -7.0773    3.3328 C   0  0  0  0  0  0  0  0  0  0  0  0
    5.0384   -6.1128    3.0827 C   0  0  0  0  0  0  0  0  0  0  0  0
    4.8363   -5.3046    1.8148 C   0  0  0  0  0  0  0  0  0  0  0  0
    5.8180   -5.2322    0.8924 C   0  0  0  0  0  0  0  0  0  0  0  0
    5.7424   -4.3230   -0.2571 C   0  0  1  0  0  0  0  0  0  0  0  0
    5.5703   -2.9092    0.2780 C   0  0  2  0  0  0  0  0  0  0  0  0
    4.1224   -2.5039    0.1601 C   0  0  0  0  0  0  0  0  0  0  0  0
    3.1648   -3.6729    0.5039 C   0  0  0  0  0  0  0  0  0  0  0  0
    3.4870   -4.5410    1.7691 C   0  0  1  0  0  0  0  0  0  0  0  0
    2.2748   -5.4671    2.1261 C   0  0  1  0  0  0  0  0  0  0  0  0
    1.7644   -6.3596    0.9738 C   0  0  0  0  0  0  0  0  0  0  0  0
    0.5198   -7.1819    1.3740 C   0  0  0  0  0  0  0  0  0  0  0  0
    6.6366   -3.2221   -0.7427 C   0  0  0  0  0  0  0  0  0  0  0  0
    8.1031   -3.2189   -0.3485 C   0  0  0  0  0  0  0  0  0  0  0  0
    6.4508   -2.6977   -2.1440 C   0  0  0  0  0  0  0  0  0  0  0  0
    1.1469  -10.0486    1.7022 H   0  0  0  0  0  0  0  0  0  0  0  0
    2.1340   -9.7257    3.1130 H   0  0  0  0  0  0  0  0  0  0  0  0
    2.4951   -8.9841    1.5523 H   0  0  0  0  0  0  0  0  0  0  0  0
   -1.0215   -9.3153    2.1952 H   0  0  0  0  0  0  0  0  0  0  0  0
   -0.3386   -9.5617    3.7769 H   0  0  0  0  0  0  0  0  0  0  0  0
   -2.0092   -7.1674    2.9233 H   0  0  0  0  0  0  0  0  0  0  0  0
   -2.4546   -8.4646    4.0063 H   0  0  0  0  0  0  0  0  0  0  0  0
   -1.7434   -6.4384    5.2733 H   0  0  0  0  0  0  0  0  0  0  0  0
   -0.7253   -7.8268    5.6258 H   0  0  0  0  0  0  0  0  0  0  0  0
   -0.0778   -5.5376    3.7497 H   0  0  0  0  0  0  0  0  0  0  0  0
    0.6350   -5.8371    5.3081 H   0  0  0  0  0  0  0  0  0  0  0  0
    1.6505   -7.9033    4.5685 H   0  0  0  0  0  0  0  0  0  0  0  0
    2.6603   -5.6206    4.2218 H   0  0  0  0  0  0  0  0  0  0  0  0
    4.0534   -7.6214    4.2624 H   0  0  0  0  0  0  0  0  0  0  0  0
    3.9085   -7.8132    2.5378 H   0  0  0  0  0  0  0  0  0  0  0  0
    5.1228   -5.4146    3.9154 H   0  0  0  0  0  0  0  0  0  0  0  0
    5.9795   -6.6630    3.0319 H   0  0  0  0  0  0  0  0  0  0  0  0
    6.7401   -5.7778    1.0144 H   0  0  0  0  0  0  0  0  0  0  0  0
    5.1079   -4.7383   -1.0405 H   0  0  0  0  0  0  0  0  0  0  0  0
    5.9713   -2.6855    1.2709 H   0  0  0  0  0  0  0  0  0  0  0  0
    3.9569   -1.6726    0.8421 H   0  0  0  0  0  0  0  0  0  0  0  0
    3.8991   -2.1268   -0.8373 H   0  0  0  0  0  0  0  0  0  0  0  0
    2.1728   -3.2369    0.6251 H   0  0  0  0  0  0  0  0  0  0  0  0
    3.0787   -4.3169   -0.3717 H   0  0  0  0  0  0  0  0  0  0  0  0
    3.5630   -3.8357    2.5945 H   0  0  0  0  0  0  0  0  0  0  0  0
    1.4537   -4.7872    2.3600 H   0  0  0  0  0  0  0  0  0  0  0  0
    1.4926   -5.7594    0.1067 H   0  0  0  0  0  0  0  0  0  0  0  0
    2.5747   -7.0055    0.6477 H   0  0  0  0  0  0  0  0  0  0  0  0
    0.1904   -7.7852    0.5285 H   0  0  0  0  0  0  0  0  0  0  0  0
   -0.2954   -6.4905    1.5764 H   0  0  0  0  0  0  0  0  0  0  0  0
    8.5225   -2.2118   -0.3921 H   0  0  0  0  0  0  0  0  0  0  0  0
    8.6802   -3.8604   -1.0175 H   0  0  0  0  0  0  0  0  0  0  0  0
    8.2117   -3.5928    0.6715 H   0  0  0  0  0  0  0  0  0  0  0  0
    6.7987   -1.6761   -2.1938 H   0  0  0  0  0  0  0  0  0  0  0  0
    5.4048   -2.7200   -2.4393 H   0  0  0  0  0  0  0  0  0  0  0  0
    7.0093   -3.3108   -2.8534 H   0  0  0  0  0  0  0  0  0  0  0  0
  2  1  1  6
  1 24  1  0
  1 25  1  0
  1 26  1  0
  2  7  1  0
  2 20  1  0
  2  3  1  0
  3  4  1  0
  3 27  1  0
  3 28  1  0
  4  5  1  0
  4 29  1  0
  4 30  1  0
  5  6  1  0
  5 31  1  0
  5 32  1  0
  6  7  1  0
  6 33  1  0
  6 34  1  0
  7  8  1  0
  7 35  1  1
  8 18  1  0
  8  9  1  0
  8 36  1  1
  9 10  1  0
  9 37  1  0
  9 38  1  0
 10 11  1  0
 10 39  1  0
 10 40  1  0
 11 17  1  0
 11 12  2  0
 12 13  1  0
 12 41  1  0
 13 21  1  0
 13 14  1  0
 13 42  1  6
 14 15  1  0
 14 21  1  0
 14 43  1  1
 15 16  1  0
 15 44  1  0
 15 45  1  0
 16 17  1  0
 16 46  1  0
 16 47  1  0
 17 18  1  0
 17 48  1  1
 18 19  1  0
 18 49  1  1
 19 20  1  0
 19 50  1  0
 19 51  1  0
 20 52  1  0
 20 53  1  0
 21 22  1  0
 21 23  1  0
 22 54  1  0
 22 55  1  0
 22 56  1  0
 23 57  1  0
 23 58  1  0
 23 59  1  0
M  END
>  <i_m_ct_stereo_status>  (348) 
1

>  <s_m_source_file>  (348) 
/var/tmp/pbs.5076255.sched01/tmp54n2b71h/144k2pf1zoq.sdf

>  <i_m_source_file_index>  (348) 
3

>  <i_lp_mmshare_version>  (348) 
48012

>  <i_f3d_flags>  (348) 
0

>  <s_epik_input>  (348) 
W0NIMl0xW0NIMl1bQ0gyXVtDSDJdW0NAQEhdKFtDQEBdMTJbQ0gzXSlbQ0BASF0zW0NASF0oW0NIMl1bQ0gyXTIpW0NASF00QyhbQ0gyXVtDSDJdMyk9W0NIXVtDQEhdNVtDQEhdKFtDSDJdW0NIMl00KUM1KFtDSDNdKVtDSDNd

>  <s_epik_cmdline>  (348) 
J2VwaWtfcHl0aG9uJywgJy1waHQnLCAnMi4wJywgJy1waCcsICc3LjAnLCAnLXRuJywgJzgnLCAnLW1hJywgJzIwMCcsICctaW1hZScsICc8aW5maWxlLm1hZT4nLCAnLW9tYWUnLCAnPG91dGZpbGUubWFlPic=

>  <r_lp_tautomer_probability>  (348) 
1

>  <r_epik_Ionization_Penalty>  (348) 
0

>  <r_epik_Ionization_Penalty_Charging>  (348) 
0

>  <r_epik_Ionization_Penalty_Neutral>  (348) 
0

>  <r_epik_State_Penalty>  (348) 
-0

>  <r_epik_Charging_Adjusted_Penalty>  (348) 
0

>  <i_epik_Tot_Q>  (348) 
0

>  <i_epik_Tot_abs_Q>  (348) 
0

>  <s_lp_Force_Field>  (348) 
OPLS3e

>  <r_lp_Energy>  (348) 
67.8045

>  <b_lp_Chiralities_Consistent>  (348) 
1

>  <s_lp_Variant>  (348) 
94:0-1

>  <s_i_glide_gridfile>  (348) 
pfpi4k_grid

>  <i_i_glide_lignum>  (348) 
3

>  <i_i_glide_rotatable_bonds>  (348) 
0

>  <r_i_docking_score>  (348) 
-3.18831

>  <r_i_glide_ligand_efficiency>  (348) 
-0.138622

>  <r_i_glide_ligand_efficiency_sa>  (348) 
-0.394223

>  <r_i_glide_ligand_efficiency_ln>  (348) 
-0.770961

>  <r_i_glide_gscore>  (348) 
-3.18831

>  <r_i_glide_lipo>  (348) 
-0.569103

>  <r_i_glide_hbond>  (348) 
0

>  <r_i_glide_metal>  (348) 
-0

>  <r_i_glide_rewards>  (348) 
-1.27819

>  <r_i_glide_evdw>  (348) 
-26.8127

>  <r_i_glide_ecoul>  (348) 
-0.00251273

>  <r_i_glide_erotb>  (348) 
0

>  <r_i_glide_esite>  (348) 
0

>  <r_i_glide_emodel>  (348) 
-31.7142

>  <r_i_glide_energy>  (348) 
-26.8152

>  <r_i_glide_einternal>  (348) 
0

>  <r_i_glide_intrahb_reward>  (348) 
-0

>  <i_i_glide_confnum>  (348) 
2

>  <i_i_glide_posenum>  (348) 
20

>  <r_i_glide_eff_state_penalty>  (348) 
0

>  <ligand_id>  (348) 
94

>  <original_smiles>  (348) 
CC12CCCCC1C1CCC3=CC4C(CCC3C1CC2)C4(C)C

>  <smiles>  (348) 
[H]C1=C2C([H])([H])C([H])([H])C3([H])C([H])(C([H])([H])C([H])([H])C4(C([H])([H])[H])C([H])([H])C([H])([H])C([H])([H])C([H])([H])C34[H])C2([H])C([H])([H])C([H])([H])C2([H])C1([H])C2(C([H])([H])[H])C([H])([H])[H]

$$$$
94:0:1
     RDKit          3D

 59 63  0  0  1  0  0  0  0  0999 V2000
    4.7698   -9.9640    3.7736 C   0  0  0  0  0  0  0  0  0  0  0  0
    3.3106   -9.7097    3.3172 C   0  0  1  0  0  0  0  0  0  0  0  0
    2.5656  -11.0330    3.6651 C   0  0  0  0  0  0  0  0  0  0  0  0
    1.0463  -10.9860    3.4969 C   0  0  0  0  0  0  0  0  0  0  0  0
    0.4682   -9.8339    4.3068 C   0  0  0  0  0  0  0  0  0  0  0  0
    1.1036   -8.5046    3.9064 C   0  0  0  0  0  0  0  0  0  0  0  0
    2.6448   -8.4945    4.0538 C   0  0  2  0  0  0  0  0  0  0  0  0
    3.1872   -7.0949    3.6238 C   0  0  1  0  0  0  0  0  0  0  0  0
    4.5393   -6.7130    4.2630 C   0  0  0  0  0  0  0  0  0  0  0  0
    4.9364   -5.2829    3.8977 C   0  0  0  0  0  0  0  0  0  0  0  0
    4.9946   -5.0778    2.3940 C   0  0  0  0  0  0  0  0  0  0  0  0
    6.0868   -4.5268    1.8213 C   0  0  0  0  0  0  0  0  0  0  0  0
    6.1383   -4.1358    0.4059 C   0  0  1  0  0  0  0  0  0  0  0  0
    5.0024   -3.1567    0.1593 C   0  0  2  0  0  0  0  0  0  0  0  0
    3.8486   -3.8790   -0.4859 C   0  0  0  0  0  0  0  0  0  0  0  0
    3.6428   -5.3004    0.1048 C   0  0  0  0  0  0  0  0  0  0  0  0
    3.6906   -5.4705    1.6601 C   0  0  1  0  0  0  0  0  0  0  0  0
    3.1986   -6.8993    2.0800 C   0  0  1  0  0  0  0  0  0  0  0  0
    3.9146   -8.0869    1.3935 C   0  0  0  0  0  0  0  0  0  0  0  0
    3.2922   -9.4436    1.7922 C   0  0  0  0  0  0  0  0  0  0  0  0
    6.4109   -2.8255   -0.2849 C   0  0  0  0  0  0  0  0  0  0  0  0
    7.1973   -1.7567    0.4484 C   0  0  0  0  0  0  0  0  0  0  0  0
    6.7111   -2.7968   -1.7737 C   0  0  0  0  0  0  0  0  0  0  0  0
    5.0790  -10.9838    3.5447 H   0  0  0  0  0  0  0  0  0  0  0  0
    4.8761   -9.8279    4.8496 H   0  0  0  0  0  0  0  0  0  0  0  0
    5.4992   -9.3328    3.2782 H   0  0  0  0  0  0  0  0  0  0  0  0
    2.9581  -11.8602    3.0715 H   0  0  0  0  0  0  0  0  0  0  0  0
    2.7686  -11.2882    4.7067 H   0  0  0  0  0  0  0  0  0  0  0  0
    0.7726  -10.8818    2.4480 H   0  0  0  0  0  0  0  0  0  0  0  0
    0.6123  -11.9270    3.8369 H   0  0  0  0  0  0  0  0  0  0  0  0
   -0.6013   -9.7826    4.1219 H   0  0  0  0  0  0  0  0  0  0  0  0
    0.5988  -10.0211    5.3745 H   0  0  0  0  0  0  0  0  0  0  0  0
    0.8095   -8.2887    2.8809 H   0  0  0  0  0  0  0  0  0  0  0  0
    0.6684   -7.7189    4.5190 H   0  0  0  0  0  0  0  0  0  0  0  0
    2.8399   -8.6101    5.1211 H   0  0  0  0  0  0  0  0  0  0  0  0
    2.4838   -6.3643    4.0209 H   0  0  0  0  0  0  0  0  0  0  0  0
    4.4836   -6.8137    5.3469 H   0  0  0  0  0  0  0  0  0  0  0  0
    5.3478   -7.3570    3.9358 H   0  0  0  0  0  0  0  0  0  0  0  0
    4.2051   -4.5846    4.3072 H   0  0  0  0  0  0  0  0  0  0  0  0
    5.8961   -5.0338    4.3537 H   0  0  0  0  0  0  0  0  0  0  0  0
    6.9462   -4.2775    2.4158 H   0  0  0  0  0  0  0  0  0  0  0  0
    6.3072   -5.0015   -0.2330 H   0  0  0  0  0  0  0  0  0  0  0  0
    4.6669   -2.5388    0.9989 H   0  0  0  0  0  0  0  0  0  0  0  0
    2.9527   -3.2779   -0.3327 H   0  0  0  0  0  0  0  0  0  0  0  0
    3.9922   -3.9445   -1.5646 H   0  0  0  0  0  0  0  0  0  0  0  0
    2.6760   -5.6598   -0.2541 H   0  0  0  0  0  0  0  0  0  0  0  0
    4.3656   -5.9716   -0.3569 H   0  0  0  0  0  0  0  0  0  0  0  0
    2.9493   -4.7761    2.0535 H   0  0  0  0  0  0  0  0  0  0  0  0
    2.1622   -6.9525    1.7426 H   0  0  0  0  0  0  0  0  0  0  0  0
    3.8318   -8.0026    0.3129 H   0  0  0  0  0  0  0  0  0  0  0  0
    4.9825   -8.0602    1.6040 H   0  0  0  0  0  0  0  0  0  0  0  0
    3.8149  -10.2499    1.2829 H   0  0  0  0  0  0  0  0  0  0  0  0
    2.2688   -9.4679    1.4181 H   0  0  0  0  0  0  0  0  0  0  0  0
    6.9500   -0.7608    0.0787 H   0  0  0  0  0  0  0  0  0  0  0  0
    8.2708   -1.9227    0.3412 H   0  0  0  0  0  0  0  0  0  0  0  0
    6.9487   -1.7708    1.5105 H   0  0  0  0  0  0  0  0  0  0  0  0
    6.3977   -1.8473   -2.2044 H   0  0  0  0  0  0  0  0  0  0  0  0
    6.1646   -3.5885   -2.2886 H   0  0  0  0  0  0  0  0  0  0  0  0
    7.7752   -2.9443   -1.9608 H   0  0  0  0  0  0  0  0  0  0  0  0
  2  1  1  1
  1 24  1  0
  1 25  1  0
  1 26  1  0
  2  7  1  0
  2 20  1  0
  2  3  1  0
  3  4  1  0
  3 27  1  0
  3 28  1  0
  4  5  1  0
  4 29  1  0
  4 30  1  0
  5  6  1  0
  5 31  1  0
  5 32  1  0
  6  7  1  0
  6 33  1  0
  6 34  1  0
  7  8  1  0
  7 35  1  1
  8 18  1  0
  8  9  1  0
  8 36  1  1
  9 10  1  0
  9 37  1  0
  9 38  1  0
 10 11  1  0
 10 39  1  0
 10 40  1  0
 11 17  1  0
 11 12  2  0
 12 13  1  0
 12 41  1  0
 13 21  1  0
 13 14  1  0
 13 42  1  6
 14 15  1  0
 14 21  1  0
 14 43  1  1
 15 16  1  0
 15 44  1  0
 15 45  1  0
 16 17  1  0
 16 46  1  0
 16 47  1  0
 17 18  1  0
 17 48  1  1
 18 19  1  0
 18 49  1  6
 19 20  1  0
 19 50  1  0
 19 51  1  0
 20 52  1  0
 20 53  1  0
 21 22  1  0
 21 23  1  0
 22 54  1  0
 22 55  1  0
 22 56  1  0
 23 57  1  0
 23 58  1  0
 23 59  1  0
M  END
>  <i_m_ct_stereo_status>  (349) 
1

>  <s_m_source_file>  (349) 
/var/tmp/pbs.5076255.sched01/tmp54n2b71h/144k2pf1zoq.sdf

>  <i_m_source_file_index>  (349) 
3

>  <i_lp_mmshare_version>  (349) 
48012

>  <i_f3d_flags>  (349) 
0

>  <s_epik_input>  (349) 
W0NIMl0xW0NIMl1bQ0gyXVtDSDJdW0NAQEhdKFtDQEBdMTJbQ0gzXSlbQ0BASF0zW0NASF0oW0NIMl1bQ0gyXTIpW0NASF00QyhbQ0gyXVtDSDJdMyk9W0NIXVtDQEhdNVtDQEhdKFtDSDJdW0NIMl00KUM1KFtDSDNdKVtDSDNd

>  <s_epik_cmdline>  (349) 
J2VwaWtfcHl0aG9uJywgJy1waHQnLCAnMi4wJywgJy1waCcsICc3LjAnLCAnLXRuJywgJzgnLCAnLW1hJywgJzIwMCcsICctaW1hZScsICc8aW5maWxlLm1hZT4nLCAnLW9tYWUnLCAnPG91dGZpbGUubWFlPic=

>  <r_lp_tautomer_probability>  (349) 
1

>  <r_epik_Ionization_Penalty>  (349) 
0

>  <r_epik_Ionization_Penalty_Charging>  (349) 
0

>  <r_epik_Ionization_Penalty_Neutral>  (349) 
0

>  <r_epik_State_Penalty>  (349) 
-0

>  <r_epik_Charging_Adjusted_Penalty>  (349) 
0

>  <i_epik_Tot_Q>  (349) 
0

>  <i_epik_Tot_abs_Q>  (349) 
0

>  <s_lp_Force_Field>  (349) 
OPLS3e

>  <r_lp_Energy>  (349) 
67.8045

>  <b_lp_Chiralities_Consistent>  (349) 
1

>  <s_lp_Variant>  (349) 
94:0-1

>  <s_i_glide_gridfile>  (349) 
pfpi4k_grid

>  <i_i_glide_lignum>  (349) 
3

>  <i_i_glide_rotatable_bonds>  (349) 
0

>  <r_i_docking_score>  (349) 
-3.01764

>  <r_i_glide_ligand_efficiency>  (349) 
-0.131202

>  <r_i_glide_ligand_efficiency_sa>  (349) 
-0.373121

>  <r_i_glide_ligand_efficiency_ln>  (349) 
-0.729694

>  <r_i_glide_gscore>  (349) 
-3.01764

>  <r_i_glide_lipo>  (349) 
-0.436173

>  <r_i_glide_hbond>  (349) 
0

>  <r_i_glide_metal>  (349) 
-0

>  <r_i_glide_rewards>  (349) 
-1.27819

>  <r_i_glide_evdw>  (349) 
-24.2389

>  <r_i_glide_ecoul>  (349) 
-0.608888

>  <r_i_glide_erotb>  (349) 
0

>  <r_i_glide_esite>  (349) 
0

>  <r_i_glide_emodel>  (349) 
-29.4937

>  <r_i_glide_energy>  (349) 
-24.8478

>  <r_i_glide_einternal>  (349) 
0

>  <r_i_glide_intrahb_reward>  (349) 
-0

>  <i_i_glide_confnum>  (349) 
2

>  <i_i_glide_posenum>  (349) 
1

>  <r_i_glide_eff_state_penalty>  (349) 
0

>  <ligand_id>  (349) 
94

>  <original_smiles>  (349) 
CC12CCCCC1C1CCC3=CC4C(CCC3C1CC2)C4(C)C

>  <smiles>  (349) 
[H]C1=C2C([H])([H])C([H])([H])C3([H])C([H])(C([H])([H])C([H])([H])C4(C([H])([H])[H])C([H])([H])C([H])([H])C([H])([H])C([H])([H])C34[H])C2([H])C([H])([H])C([H])([H])C2([H])C1([H])C2(C([H])([H])[H])C([H])([H])[H]

$$$$
94:0:2
     RDKit          3D

 59 63  0  0  1  0  0  0  0  0999 V2000
    3.2587   -8.7171    4.3155 C   0  0  0  0  0  0  0  0  0  0  0  0
    1.9788   -8.5173    3.4695 C   0  0  1  0  0  0  0  0  0  0  0  0
    1.1198   -9.7656    3.7898 C   0  0  0  0  0  0  0  0  0  0  0  0
   -0.2896   -9.7239    3.2158 C   0  0  0  0  0  0  0  0  0  0  0  0
   -1.0403   -8.4926    3.7181 C   0  0  0  0  0  0  0  0  0  0  0  0
   -0.2743   -7.2314    3.3290 C   0  0  0  0  0  0  0  0  0  0  0  0
    1.1874   -7.2124    3.8499 C   0  0  2  0  0  0  0  0  0  0  0  0
    1.8691   -5.8902    3.3868 C   0  0  1  0  0  0  0  0  0  0  0  0
    3.0351   -5.4311    4.2883 C   0  0  0  0  0  0  0  0  0  0  0  0
    3.5686   -4.0677    3.8482 C   0  0  0  0  0  0  0  0  0  0  0  0
    4.0110   -4.0749    2.3988 C   0  0  0  0  0  0  0  0  0  0  0  0
    5.2309   -3.6104    2.0521 C   0  0  0  0  0  0  0  0  0  0  0  0
    5.6334   -3.4328    0.6504 C   0  0  1  0  0  0  0  0  0  0  0  0
    4.6284   -2.4949   -0.0043 C   0  0  2  0  0  0  0  0  0  0  0  0
    3.6445   -3.2949   -0.8173 C   0  0  0  0  0  0  0  0  0  0  0  0
    3.2473   -4.6119   -0.1069 C   0  0  0  0  0  0  0  0  0  0  0  0
    2.9148   -4.5623    1.4201 C   0  0  1  0  0  0  0  0  0  0  0  0
    2.2750   -5.9143    1.8849 C   0  0  1  0  0  0  0  0  0  0  0  0
    3.0968   -7.1859    1.5657 C   0  0  0  0  0  0  0  0  0  0  0  0
    2.3488   -8.4765    1.9669 C   0  0  0  0  0  0  0  0  0  0  0  0
    6.1109   -2.2436   -0.1264 C   0  0  0  0  0  0  0  0  0  0  0  0
    6.7294   -1.0799    0.6154 C   0  0  0  0  0  0  0  0  0  0  0  0
    6.7698   -2.4342   -1.4782 C   0  0  0  0  0  0  0  0  0  0  0  0
    3.5730   -9.7619    4.3085 H   0  0  0  0  0  0  0  0  0  0  0  0
    3.0967   -8.4374    5.3561 H   0  0  0  0  0  0  0  0  0  0  0  0
    4.1158   -8.1652    3.9430 H   0  0  0  0  0  0  0  0  0  0  0  0
    1.6109  -10.6744    3.4381 H   0  0  0  0  0  0  0  0  0  0  0  0
    1.0363   -9.8770    4.8733 H   0  0  0  0  0  0  0  0  0  0  0  0
   -0.2813   -9.7602    2.1261 H   0  0  0  0  0  0  0  0  0  0  0  0
   -0.7879  -10.6257    3.5508 H   0  0  0  0  0  0  0  0  0  0  0  0
   -2.0455   -8.4755    3.2951 H   0  0  0  0  0  0  0  0  0  0  0  0
   -1.1624   -8.5415    4.8023 H   0  0  0  0  0  0  0  0  0  0  0  0
   -0.2982   -7.1568    2.2433 H   0  0  0  0  0  0  0  0  0  0  0  0
   -0.8134   -6.3672    3.7140 H   0  0  0  0  0  0  0  0  0  0  0  0
    1.1098   -7.1804    4.9393 H   0  0  0  0  0  0  0  0  0  0  0  0
    1.1178   -5.1092    3.4941 H   0  0  0  0  0  0  0  0  0  0  0  0
    2.7112   -5.3802    5.3279 H   0  0  0  0  0  0  0  0  0  0  0  0
    3.8717   -6.1205    4.2636 H   0  0  0  0  0  0  0  0  0  0  0  0
    2.7875   -3.3154    3.9568 H   0  0  0  0  0  0  0  0  0  0  0  0
    4.3978   -3.7666    4.4915 H   0  0  0  0  0  0  0  0  0  0  0  0
    5.9156   -3.2545    2.8020 H   0  0  0  0  0  0  0  0  0  0  0  0
    5.9241   -4.3830    0.2043 H   0  0  0  0  0  0  0  0  0  0  0  0
    4.1184   -1.7657    0.6343 H   0  0  0  0  0  0  0  0  0  0  0  0
    2.7675   -2.6708   -0.9755 H   0  0  0  0  0  0  0  0  0  0  0  0
    4.0475   -3.5139   -1.8056 H   0  0  0  0  0  0  0  0  0  0  0  0
    2.3791   -5.0098   -0.6354 H   0  0  0  0  0  0  0  0  0  0  0  0
    4.0332   -5.3420   -0.2874 H   0  0  0  0  0  0  0  0  0  0  0  0
    2.1335   -3.8120    1.5251 H   0  0  0  0  0  0  0  0  0  0  0  0
    1.3560   -6.0131    1.3069 H   0  0  0  0  0  0  0  0  0  0  0  0
    3.2998   -7.2441    0.4977 H   0  0  0  0  0  0  0  0  0  0  0  0
    4.0764   -7.1354    2.0394 H   0  0  0  0  0  0  0  0  0  0  0  0
    2.9430   -9.3539    1.7040 H   0  0  0  0  0  0  0  0  0  0  0  0
    1.4449   -8.5447    1.3613 H   0  0  0  0  0  0  0  0  0  0  0  0
    6.6065   -0.1461    0.0679 H   0  0  0  0  0  0  0  0  0  0  0  0
    7.7941   -1.2573    0.7904 H   0  0  0  0  0  0  0  0  0  0  0  0
    6.2377   -0.9479    1.5816 H   0  0  0  0  0  0  0  0  0  0  0  0
    6.5895   -1.5510   -2.0866 H   0  0  0  0  0  0  0  0  0  0  0  0
    6.3476   -3.2956   -1.9996 H   0  0  0  0  0  0  0  0  0  0  0  0
    7.8463   -2.5865   -1.3770 H   0  0  0  0  0  0  0  0  0  0  0  0
  2  1  1  1
  1 24  1  0
  1 25  1  0
  1 26  1  0
  2  7  1  0
  2 20  1  0
  2  3  1  0
  3  4  1  0
  3 27  1  0
  3 28  1  0
  4  5  1  0
  4 29  1  0
  4 30  1  0
  5  6  1  0
  5 31  1  0
  5 32  1  0
  6  7  1  0
  6 33  1  0
  6 34  1  0
  7  8  1  0
  7 35  1  1
  8 18  1  0
  8  9  1  0
  8 36  1  6
  9 10  1  0
  9 37  1  0
  9 38  1  0
 10 11  1  0
 10 39  1  0
 10 40  1  0
 11 17  1  0
 11 12  2  0
 12 13  1  0
 12 41  1  0
 13 21  1  0
 13 14  1  0
 13 42  1  6
 14 15  1  0
 14 21  1  0
 14 43  1  1
 15 16  1  0
 15 44  1  0
 15 45  1  0
 16 17  1  0
 16 46  1  0
 16 47  1  0
 17 18  1  0
 17 48  1  6
 18 19  1  0
 18 49  1  6
 19 20  1  0
 19 50  1  0
 19 51  1  0
 20 52  1  0
 20 53  1  0
 21 22  1  0
 21 23  1  0
 22 54  1  0
 22 55  1  0
 22 56  1  0
 23 57  1  0
 23 58  1  0
 23 59  1  0
M  END
>  <i_m_ct_stereo_status>  (350) 
1

>  <s_m_source_file>  (350) 
/var/tmp/pbs.5076255.sched01/tmp54n2b71h/144k2pf1zoq.sdf

>  <i_m_source_file_index>  (350) 
3

>  <i_lp_mmshare_version>  (350) 
48012

>  <i_f3d_flags>  (350) 
0

>  <s_epik_input>  (350) 
W0NIMl0xW0NIMl1bQ0gyXVtDSDJdW0NAQEhdKFtDQEBdMTJbQ0gzXSlbQ0BASF0zW0NASF0oW0NIMl1bQ0gyXTIpW0NASF00QyhbQ0gyXVtDSDJdMyk9W0NIXVtDQEhdNVtDQEhdKFtDSDJdW0NIMl00KUM1KFtDSDNdKVtDSDNd

>  <s_epik_cmdline>  (350) 
J2VwaWtfcHl0aG9uJywgJy1waHQnLCAnMi4wJywgJy1waCcsICc3LjAnLCAnLXRuJywgJzgnLCAnLW1hJywgJzIwMCcsICctaW1hZScsICc8aW5maWxlLm1hZT4nLCAnLW9tYWUnLCAnPG91dGZpbGUubWFlPic=

>  <r_lp_tautomer_probability>  (350) 
1

>  <r_epik_Ionization_Penalty>  (350) 
0

>  <r_epik_Ionization_Penalty_Charging>  (350) 
0

>  <r_epik_Ionization_Penalty_Neutral>  (350) 
0

>  <r_epik_State_Penalty>  (350) 
-0

>  <r_epik_Charging_Adjusted_Penalty>  (350) 
0

>  <i_epik_Tot_Q>  (350) 
0

>  <i_epik_Tot_abs_Q>  (350) 
0

>  <s_lp_Force_Field>  (350) 
OPLS3e

>  <r_lp_Energy>  (350) 
67.8045

>  <b_lp_Chiralities_Consistent>  (350) 
1

>  <s_lp_Variant>  (350) 
94:0-1

>  <s_i_glide_gridfile>  (350) 
pfpi4k_grid

>  <i_i_glide_lignum>  (350) 
3

>  <i_i_glide_rotatable_bonds>  (350) 
0

>  <r_i_docking_score>  (350) 
-2.67287

>  <r_i_glide_ligand_efficiency>  (350) 
-0.116212

>  <r_i_glide_ligand_efficiency_sa>  (350) 
-0.330491

>  <r_i_glide_ligand_efficiency_ln>  (350) 
-0.646325

>  <r_i_glide_gscore>  (350) 
-2.67287

>  <r_i_glide_lipo>  (350) 
-0.197203

>  <r_i_glide_hbond>  (350) 
0

>  <r_i_glide_metal>  (350) 
-0

>  <r_i_glide_rewards>  (350) 
-1.27819

>  <r_i_glide_evdw>  (350) 
-23.0933

>  <r_i_glide_ecoul>  (350) 
-0.285401

>  <r_i_glide_erotb>  (350) 
0

>  <r_i_glide_esite>  (350) 
0

>  <r_i_glide_emodel>  (350) 
-27.4707

>  <r_i_glide_energy>  (350) 
-23.3787

>  <r_i_glide_einternal>  (350) 
0

>  <r_i_glide_intrahb_reward>  (350) 
-0

>  <i_i_glide_confnum>  (350) 
1

>  <i_i_glide_posenum>  (350) 
8

>  <r_i_glide_eff_state_penalty>  (350) 
0

>  <ligand_id>  (350) 
94

>  <original_smiles>  (350) 
CC12CCCCC1C1CCC3=CC4C(CCC3C1CC2)C4(C)C

>  <smiles>  (350) 
[H]C1=C2C([H])([H])C([H])([H])C3([H])C([H])(C([H])([H])C([H])([H])C4(C([H])([H])[H])C([H])([H])C([H])([H])C([H])([H])C([H])([H])C34[H])C2([H])C([H])([H])C([H])([H])C2([H])C1([H])C2(C([H])([H])[H])C([H])([H])[H]

$$$$
95:2:0
     RDKit          3D

 47 51  0  0  1  0  0  0  0  0999 V2000
    1.8170   -3.2033   -2.3679 C   0  0  0  0  0  0  0  0  0  0  0  0
    3.0976   -2.6874   -1.8345 N   0  0  0  0  0  0  0  0  0  0  0  0
    3.2498   -1.4209   -1.4813 C   0  0  0  0  0  0  0  0  0  0  0  0
    3.4498   -1.1040   -0.1275 N   0  0  0  0  0  0  0  0  0  0  0  0
    4.1590   -2.2440    0.5516 C   0  0  1  0  0  0  0  0  0  0  0  0
    5.5341   -2.0247   -0.2431 C   0  0  0  0  0  0  0  0  0  0  0  0
    5.6342   -2.5200   -1.6374 C   0  0  0  0  0  0  0  0  0  0  0  0
    4.4072   -3.3625   -1.9784 C   0  0  2  0  0  0  0  0  0  0  0  0
    4.4441   -3.2210   -3.5278 C   0  0  0  0  0  0  0  0  0  0  0  0
    4.0973   -1.6710   -3.9230 C   0  0  0  0  0  0  0  0  0  0  0  0
    3.5105   -0.6601   -2.7757 C   0  0  0  0  0  0  0  0  0  0  0  0
    4.5317   -4.6083   -0.9041 C   0  0  1  0  0  0  0  0  0  0  0  0
    5.6635   -4.6966    0.2652 C   0  0  0  0  0  0  0  0  0  0  0  0
    5.5114   -3.9937    1.7189 C   0  0  0  0  0  0  0  0  0  0  0  0
    5.9843   -4.5825    2.6802 O   0  0  0  0  0  0  0  0  0  0  0  0
    4.7289   -2.5860    1.9462 C   0  0  1  0  0  0  0  0  0  0  0  0
    5.5325   -1.5200    2.5309 N   0  0  0  0  0  0  0  0  0  0  0  0
    3.5271   -2.8339    2.8754 C   0  0  0  0  0  0  0  0  0  0  0  0
    2.4406   -3.3285    1.9395 C   0  0  0  0  0  0  0  0  0  0  0  0
    3.0701   -3.3269    0.6064 N   0  0  2  0  0  0  0  0  0  0  0  0
    3.2940   -4.6729   -0.0064 C   0  0  0  0  0  0  0  0  0  0  0  0
    1.0487   -3.0758   -1.6028 H   0  0  0  0  0  0  0  0  0  0  0  0
    1.8633   -4.2483   -2.6256 H   0  0  0  0  0  0  0  0  0  0  0  0
    1.5055   -2.6522   -3.2586 H   0  0  0  0  0  0  0  0  0  0  0  0
    5.6987   -0.9480   -0.3152 H   0  0  0  0  0  0  0  0  0  0  0  0
    6.4788   -2.2420    0.2650 H   0  0  0  0  0  0  0  0  0  0  0  0
    5.8436   -1.6609   -2.2699 H   0  0  0  0  0  0  0  0  0  0  0  0
    6.5387   -3.1206   -1.7660 H   0  0  0  0  0  0  0  0  0  0  0  0
    5.4188   -3.5148   -3.9190 H   0  0  0  0  0  0  0  0  0  0  0  0
    3.7426   -3.9101   -4.0013 H   0  0  0  0  0  0  0  0  0  0  0  0
    4.9930   -1.2102   -4.3303 H   0  0  0  0  0  0  0  0  0  0  0  0
    3.3877   -1.6827   -4.7483 H   0  0  0  0  0  0  0  0  0  0  0  0
    2.5814   -0.2086   -3.1210 H   0  0  0  0  0  0  0  0  0  0  0  0
    4.2057    0.1585   -2.5909 H   0  0  0  0  0  0  0  0  0  0  0  0
    4.6156   -5.5296   -1.4748 H   0  0  0  0  0  0  0  0  0  0  0  0
    5.7367   -5.7570    0.5056 H   0  0  0  0  0  0  0  0  0  0  0  0
    6.6490   -4.4590   -0.1310 H   0  0  0  0  0  0  0  0  0  0  0  0
    4.9885   -0.6855    2.7054 H   0  0  0  0  0  0  0  0  0  0  0  0
    5.8457   -1.8505    3.4319 H   0  0  0  0  0  0  0  0  0  0  0  0
    3.7357   -3.5813    3.6471 H   0  0  0  0  0  0  0  0  0  0  0  0
    3.1916   -1.9230    3.3820 H   0  0  0  0  0  0  0  0  0  0  0  0
    2.0066   -4.2850    2.2346 H   0  0  0  0  0  0  0  0  0  0  0  0
    1.6451   -2.5811    1.9232 H   0  0  0  0  0  0  0  0  0  0  0  0
    2.4088   -4.9790   -0.5614 H   0  0  0  0  0  0  0  0  0  0  0  0
    3.4062   -5.4471    0.7569 H   0  0  0  0  0  0  0  0  0  0  0  0
    3.5839   -0.1559    0.1930 H   0  0  0  0  0  0  0  0  0  0  0  0
    2.3638   -2.9236    0.0044 H   0  0  0  0  0  0  0  0  0  0  0  0
  1  2  1  0
  1 22  1  0
  1 23  1  0
  1 24  1  0
  2  8  1  0
  2  3  1  0
  3 11  1  0
  3  4  2  0
  5  4  1  1
  4 46  1  0
  5 16  1  0
  5 20  1  0
  5  6  1  0
  6  7  1  0
  6 25  1  0
  6 26  1  0
  7  8  1  0
  7 27  1  0
  7 28  1  0
  8  9  1  6
  8 12  1  0
  9 10  1  0
  9 29  1  0
  9 30  1  0
 10 11  1  0
 10 31  1  0
 10 32  1  0
 11 33  1  0
 11 34  1  0
 12 21  1  0
 12 13  1  0
 12 35  1  6
 13 14  1  0
 13 36  1  0
 13 37  1  0
 14 15  2  0
 14 16  1  0
 16 17  1  1
 16 18  1  0
 17 38  1  0
 17 39  1  0
 18 19  1  0
 18 40  1  0
 18 41  1  0
 19 20  1  0
 19 42  1  0
 19 43  1  0
 20 21  1  0
 20 47  1  6
 21 44  1  0
 21 45  1  0
M  CHG  2   4   1  20   1
M  END
>  <i_m_ct_stereo_status>  (351) 
1

>  <s_m_source_file>  (351) 
/var/tmp/pbs.5076255.sched01/tmp54n2b71h/144k2pf1zoq.sdf

>  <i_m_source_file_index>  (351) 
6

>  <i_lp_mmshare_version>  (351) 
48012

>  <i_f3d_flags>  (351) 
0

>  <s_epik_input>  (351) 
W0NIMl0xW0NIMl1bQ0gyXUMoPU4yKU4oW0NIM10pW0NAQF0xKFtDSDJdW0NIMl0zKVtDQEBIXShbQ0gyXUMoPU8pW0NAXTQoW0NAQF0yMzUpW05IMl0pW0NIMl1ONVtDSDJdW0NIMl00

>  <s_epik_cmdline>  (351) 
J2VwaWtfcHl0aG9uJywgJy1waHQnLCAnMi4wJywgJy1waCcsICc3LjAnLCAnLXRuJywgJzgnLCAnLW1hJywgJzIwMCcsICctaW1hZScsICc8aW5maWxlLm1hZT4nLCAnLW9tYWUnLCAnPG91dGZpbGUubWFlPic=

>  <r_epik_Ionization_Penalty>  (351) 
3.94261

>  <r_epik_Ionization_Penalty_Charging>  (351) 
3.94261

>  <r_epik_Ionization_Penalty_Neutral>  (351) 
1.29651e-07

>  <r_epik_State_Penalty>  (351) 
1.72154

>  <r_epik_Charging_Adjusted_Penalty>  (351) 
5.66416

>  <i_epik_Tot_Q>  (351) 
2

>  <i_epik_Tot_abs_Q>  (351) 
2

>  <s_epik_Chemistry_Notes>  (351) 
This compound has an imine and may undergo hydrolysis.

>  <s_lp_Force_Field>  (351) 
OPLS3e

>  <r_lp_Energy>  (351) 
264.814

>  <b_lp_Chiralities_Consistent>  (351) 
1

>  <s_lp_Variant>  (351) 
95:0-3

>  <s_i_glide_gridfile>  (351) 
pfpi4k_grid

>  <i_i_glide_lignum>  (351) 
6

>  <i_i_glide_rotatable_bonds>  (351) 
0

>  <r_i_docking_score>  (351) 
-4.13564

>  <r_i_glide_ligand_efficiency>  (351) 
-0.196935

>  <r_i_glide_ligand_efficiency_sa>  (351) 
-0.543329

>  <r_i_glide_ligand_efficiency_ln>  (351) 
-1.02253

>  <r_i_glide_gscore>  (351) 
-4.13564

>  <r_i_glide_lipo>  (351) 
-0.490115

>  <r_i_glide_hbond>  (351) 
0

>  <r_i_glide_metal>  (351) 
-0

>  <r_i_glide_rewards>  (351) 
-1.49058

>  <r_i_glide_evdw>  (351) 
-19.6783

>  <r_i_glide_ecoul>  (351) 
-6.24852

>  <r_i_glide_erotb>  (351) 
0

>  <r_i_glide_esite>  (351) 
-0.233749

>  <r_i_glide_emodel>  (351) 
-32.4306

>  <r_i_glide_energy>  (351) 
-25.9269

>  <r_i_glide_einternal>  (351) 
0

>  <r_i_glide_intrahb_reward>  (351) 
-0

>  <i_i_glide_confnum>  (351) 
2

>  <i_i_glide_posenum>  (351) 
9

>  <r_i_glide_eff_state_penalty>  (351) 
0

>  <ligand_id>  (351) 
95

>  <original_smiles>  (351) 
CN1C2=NC34CCC1(CCC2)C1CC(=O)C3(N)CCN4C1

>  <smiles>  (351) 
[H]N([H])C12C(=O)C([H])([H])C3([H])C45N(C([H])([H])[H])C(=[N+]([H])C1(C([H])([H])C4([H])[H])[N+]([H])(C([H])([H])C2([H])[H])C3([H])[H])C([H])([H])C([H])([H])C5([H])[H]

$$$$
96:0:0
     RDKit          3D

 31 34  0  0  1  0  0  0  0  0999 V2000
   -5.2300  -10.6587   -7.6638 O   0  0  0  0  0  0  0  0  0  0  0  0
   -5.8223   -9.6765   -7.2069 C   0  0  0  0  0  0  0  0  0  0  0  0
   -5.6767   -9.1461   -5.9561 O   0  0  0  0  0  0  0  0  0  0  0  0
   -6.5217   -7.9843   -5.7960 N   0  0  0  0  0  0  0  0  0  0  0  0
   -5.8248   -6.8988   -5.0869 C   0  0  0  0  0  0  0  0  0  0  0  0
   -6.5904   -5.5756   -4.9734 C   0  0  0  0  0  0  0  0  0  0  0  0
   -5.8585   -4.3232   -4.5692 C   0  0  0  0  0  0  0  0  0  0  0  0
   -6.8980   -4.9141   -3.6469 C   0  0  0  0  0  0  0  0  0  0  0  0
   -7.1315   -7.8005   -7.0409 C   0  0  0  0  0  0  0  0  0  0  0  0
   -8.0182   -6.8419   -7.3672 N   0  0  0  0  0  0  0  0  0  0  0  0
   -8.5680   -6.8875   -8.5912 C   0  0  0  0  0  0  0  0  0  0  0  0
   -9.5345   -5.7897   -8.9101 C   0  0  0  0  0  0  0  0  0  0  0  0
  -10.8715   -5.7245   -8.2198 C   0  0  0  0  0  0  0  0  0  0  0  0
  -10.7974   -6.0962   -9.6850 C   0  0  0  0  0  0  0  0  0  0  0  0
   -8.2675   -7.9042   -9.5310 C   0  0  0  0  0  0  0  0  0  0  0  0
   -7.3559   -8.9202   -9.1696 C   0  0  0  0  0  0  0  0  0  0  0  0
   -6.7859   -8.8291   -7.8992 C   0  0  0  0  0  0  0  0  0  0  0  0
   -5.6271   -7.2682   -4.0780 H   0  0  0  0  0  0  0  0  0  0  0  0
   -4.8437   -6.7253   -5.5320 H   0  0  0  0  0  0  0  0  0  0  0  0
   -7.3287   -5.3757   -5.7380 H   0  0  0  0  0  0  0  0  0  0  0  0
   -4.7988   -4.4132   -4.3311 H   0  0  0  0  0  0  0  0  0  0  0  0
   -6.1213   -3.4460   -5.1509 H   0  0  0  0  0  0  0  0  0  0  0  0
   -7.8720   -4.4274   -3.6024 H   0  0  0  0  0  0  0  0  0  0  0  0
   -6.5853   -5.4044   -2.7245 H   0  0  0  0  0  0  0  0  0  0  0  0
   -9.0178   -4.8443   -9.0864 H   0  0  0  0  0  0  0  0  0  0  0  0
  -11.1062   -6.5130   -7.5083 H   0  0  0  0  0  0  0  0  0  0  0  0
  -11.2937   -4.7530   -7.9857 H   0  0  0  0  0  0  0  0  0  0  0  0
  -11.1650   -5.3681  -10.4043 H   0  0  0  0  0  0  0  0  0  0  0  0
  -10.9894   -7.1385   -9.9444 H   0  0  0  0  0  0  0  0  0  0  0  0
   -8.7312   -7.9135  -10.5058 H   0  0  0  0  0  0  0  0  0  0  0  0
   -7.1240   -9.7273   -9.8373 H   0  0  0  0  0  0  0  0  0  0  0  0
  1  2  2  0
  2 17  1  0
  2  3  1  0
  3  4  1  0
  4  5  1  0
  4  9  1  0
  5  6  1  0
  5 18  1  0
  5 19  1  0
  6  8  1  0
  6  7  1  0
  6 20  1  0
  7  8  1  0
  7 21  1  0
  7 22  1  0
  8 23  1  0
  8 24  1  0
  9 17  2  0
  9 10  1  0
 10 11  2  0
 11 12  1  0
 11 15  1  0
 12 14  1  0
 12 13  1  0
 12 25  1  0
 13 14  1  0
 13 26  1  0
 13 27  1  0
 14 28  1  0
 14 29  1  0
 15 16  2  0
 15 30  1  0
 16 17  1  0
 16 31  1  0
M  END
>  <i_m_ct_stereo_status>  (352) 
1

>  <s_m_source_file>  (352) 
/var/tmp/pbs.5076255.sched01/tmp54n2b71h/144k2pf1zoq.sdf

>  <i_m_source_file_index>  (352) 
7

>  <i_lp_mmshare_version>  (352) 
48012

>  <i_f3d_flags>  (352) 
0

>  <s_epik_input>  (352) 
W0NIMl0xW0NIMl1bQ0hdMVtDSDJdbjJvYyg9TyljKGMyMylbY0hdW2NIXWMobjMpW0NIXTRbQ0gyXVtDSDJdNA==

>  <s_epik_cmdline>  (352) 
J2VwaWtfcHl0aG9uJywgJy1waHQnLCAnMi4wJywgJy1waCcsICc3LjAnLCAnLXRuJywgJzgnLCAnLW1hJywgJzIwMCcsICctaW1hZScsICc8aW5maWxlLm1hZT4nLCAnLW9tYWUnLCAnPG91dGZpbGUubWFlPic=

>  <r_lp_tautomer_probability>  (352) 
1

>  <r_epik_Ionization_Penalty>  (352) 
2.44792e-07

>  <r_epik_Ionization_Penalty_Charging>  (352) 
1.41439e-08

>  <r_epik_Ionization_Penalty_Neutral>  (352) 
2.30648e-07

>  <r_epik_State_Penalty>  (352) 
-0

>  <r_epik_Charging_Adjusted_Penalty>  (352) 
1.41439e-08

>  <i_epik_Tot_Q>  (352) 
0

>  <i_epik_Tot_abs_Q>  (352) 
0

>  <s_lp_Force_Field>  (352) 
OPLS3e

>  <r_lp_Energy>  (352) 
29.2333

>  <b_lp_Chiralities_Consistent>  (352) 
1

>  <s_lp_Variant>  (352) 
96:0-1

>  <s_i_glide_gridfile>  (352) 
pfpi4k_grid

>  <i_i_glide_lignum>  (352) 
7

>  <i_i_glide_rotatable_bonds>  (352) 
3

>  <r_i_docking_score>  (352) 
-5.21809

>  <r_i_glide_ligand_efficiency>  (352) 
-0.306946

>  <r_i_glide_ligand_efficiency_sa>  (352) 
-0.789246

>  <r_i_glide_ligand_efficiency_ln>  (352) 
-1.36128

>  <r_i_glide_gscore>  (352) 
-5.21809

>  <r_i_glide_lipo>  (352) 
-2.04332

>  <r_i_glide_hbond>  (352) 
0

>  <r_i_glide_metal>  (352) 
-0

>  <r_i_glide_rewards>  (352) 
-3.00045

>  <r_i_glide_evdw>  (352) 
-24.707

>  <r_i_glide_ecoul>  (352) 
0.630146

>  <r_i_glide_erotb>  (352) 
0.966507

>  <r_i_glide_esite>  (352) 
0

>  <r_i_glide_emodel>  (352) 
-30.0516

>  <r_i_glide_energy>  (352) 
-24.0768

>  <r_i_glide_einternal>  (352) 
2.088

>  <r_i_glide_intrahb_reward>  (352) 
-0

>  <i_i_glide_confnum>  (352) 
6

>  <i_i_glide_posenum>  (352) 
17

>  <r_i_glide_eff_state_penalty>  (352) 
0

>  <ligand_id>  (352) 
96

>  <original_smiles>  (352) 
O=c1on(CC2CC2)c2nc(C3CC3)ccc12

>  <smiles>  (352) 
[H]c1c(C2([H])C([H])([H])C2([H])[H])nc2c(c1[H])c(=O)on2C([H])([H])C1([H])C([H])([H])C1([H])[H]

$$$$
96:0:1
     RDKit          3D

 31 34  0  0  1  0  0  0  0  0999 V2000
  -10.6535   -5.9417   -9.7421 O   0  0  0  0  0  0  0  0  0  0  0  0
   -9.7119   -6.0762   -8.9590 C   0  0  0  0  0  0  0  0  0  0  0  0
   -9.2645   -5.1433   -8.0728 O   0  0  0  0  0  0  0  0  0  0  0  0
   -8.1065   -5.6513   -7.3706 N   0  0  0  0  0  0  0  0  0  0  0  0
   -8.1350   -5.3137   -5.9452 C   0  0  0  0  0  0  0  0  0  0  0  0
   -6.8801   -5.7040   -5.1767 C   0  0  0  0  0  0  0  0  0  0  0  0
   -6.5868   -5.0838   -3.8396 C   0  0  0  0  0  0  0  0  0  0  0  0
   -5.7101   -4.7623   -5.0279 C   0  0  0  0  0  0  0  0  0  0  0  0
   -7.9201   -6.9584   -7.8265 C   0  0  0  0  0  0  0  0  0  0  0  0
   -6.9573   -7.8219   -7.4380 N   0  0  0  0  0  0  0  0  0  0  0  0
   -6.9241   -9.0201   -8.0684 C   0  0  0  0  0  0  0  0  0  0  0  0
   -5.8925   -9.9905   -7.5744 C   0  0  0  0  0  0  0  0  0  0  0  0
   -6.2891  -11.4162   -7.2518 C   0  0  0  0  0  0  0  0  0  0  0  0
   -5.9031  -10.4674   -6.1447 C   0  0  0  0  0  0  0  0  0  0  0  0
   -7.8040   -9.3655   -9.1204 C   0  0  0  0  0  0  0  0  0  0  0  0
   -8.7981   -8.4478   -9.5167 C   0  0  0  0  0  0  0  0  0  0  0  0
   -8.8370   -7.2343   -8.8203 C   0  0  0  0  0  0  0  0  0  0  0  0
   -8.2602   -4.2346   -5.8658 H   0  0  0  0  0  0  0  0  0  0  0  0
   -8.9970   -5.7655   -5.4579 H   0  0  0  0  0  0  0  0  0  0  0  0
   -6.6506   -6.7669   -5.2023 H   0  0  0  0  0  0  0  0  0  0  0  0
   -7.2480   -4.3060   -3.4714 H   0  0  0  0  0  0  0  0  0  0  0  0
   -6.1958   -5.7696   -3.0907 H   0  0  0  0  0  0  0  0  0  0  0  0
   -4.7189   -5.2086   -5.0605 H   0  0  0  0  0  0  0  0  0  0  0  0
   -5.7868   -3.7639   -5.4462 H   0  0  0  0  0  0  0  0  0  0  0  0
   -4.9340   -9.8293   -8.0553 H   0  0  0  0  0  0  0  0  0  0  0  0
   -7.3414  -11.6865   -7.3406 H   0  0  0  0  0  0  0  0  0  0  0  0
   -5.5842  -12.2150   -7.4778 H   0  0  0  0  0  0  0  0  0  0  0  0
   -4.9507  -10.6491   -5.6520 H   0  0  0  0  0  0  0  0  0  0  0  0
   -6.6940  -10.0775   -5.5139 H   0  0  0  0  0  0  0  0  0  0  0  0
   -7.7153  -10.3183   -9.6138 H   0  0  0  0  0  0  0  0  0  0  0  0
   -9.4883   -8.6661  -10.3184 H   0  0  0  0  0  0  0  0  0  0  0  0
  1  2  2  0
  2 17  1  0
  2  3  1  0
  3  4  1  0
  4  5  1  0
  4  9  1  0
  5  6  1  0
  5 18  1  0
  5 19  1  0
  6  8  1  0
  6  7  1  0
  6 20  1  0
  7  8  1  0
  7 21  1  0
  7 22  1  0
  8 23  1  0
  8 24  1  0
  9 17  2  0
  9 10  1  0
 10 11  2  0
 11 12  1  0
 11 15  1  0
 12 14  1  0
 12 13  1  0
 12 25  1  0
 13 14  1  0
 13 26  1  0
 13 27  1  0
 14 28  1  0
 14 29  1  0
 15 16  2  0
 15 30  1  0
 16 17  1  0
 16 31  1  0
M  END
>  <i_m_ct_stereo_status>  (353) 
1

>  <s_m_source_file>  (353) 
/var/tmp/pbs.5076255.sched01/tmp54n2b71h/144k2pf1zoq.sdf

>  <i_m_source_file_index>  (353) 
7

>  <i_lp_mmshare_version>  (353) 
48012

>  <i_f3d_flags>  (353) 
0

>  <s_epik_input>  (353) 
W0NIMl0xW0NIMl1bQ0hdMVtDSDJdbjJvYyg9TyljKGMyMylbY0hdW2NIXWMobjMpW0NIXTRbQ0gyXVtDSDJdNA==

>  <s_epik_cmdline>  (353) 
J2VwaWtfcHl0aG9uJywgJy1waHQnLCAnMi4wJywgJy1waCcsICc3LjAnLCAnLXRuJywgJzgnLCAnLW1hJywgJzIwMCcsICctaW1hZScsICc8aW5maWxlLm1hZT4nLCAnLW9tYWUnLCAnPG91dGZpbGUubWFlPic=

>  <r_lp_tautomer_probability>  (353) 
1

>  <r_epik_Ionization_Penalty>  (353) 
2.44792e-07

>  <r_epik_Ionization_Penalty_Charging>  (353) 
1.41439e-08

>  <r_epik_Ionization_Penalty_Neutral>  (353) 
2.30648e-07

>  <r_epik_State_Penalty>  (353) 
-0

>  <r_epik_Charging_Adjusted_Penalty>  (353) 
1.41439e-08

>  <i_epik_Tot_Q>  (353) 
0

>  <i_epik_Tot_abs_Q>  (353) 
0

>  <s_lp_Force_Field>  (353) 
OPLS3e

>  <r_lp_Energy>  (353) 
29.2333

>  <b_lp_Chiralities_Consistent>  (353) 
1

>  <s_lp_Variant>  (353) 
96:0-1

>  <s_i_glide_gridfile>  (353) 
pfpi4k_grid

>  <i_i_glide_lignum>  (353) 
7

>  <i_i_glide_rotatable_bonds>  (353) 
3

>  <r_i_docking_score>  (353) 
-5.01872

>  <r_i_glide_ligand_efficiency>  (353) 
-0.295219

>  <r_i_glide_ligand_efficiency_sa>  (353) 
-0.75909

>  <r_i_glide_ligand_efficiency_ln>  (353) 
-1.30927

>  <r_i_glide_gscore>  (353) 
-5.01872

>  <r_i_glide_lipo>  (353) 
-1.94089

>  <r_i_glide_hbond>  (353) 
0

>  <r_i_glide_metal>  (353) 
-0

>  <r_i_glide_rewards>  (353) 
-2.86623

>  <r_i_glide_evdw>  (353) 
-23.5275

>  <r_i_glide_ecoul>  (353) 
-0.0115632

>  <r_i_glide_erotb>  (353) 
0.966507

>  <r_i_glide_esite>  (353) 
0

>  <r_i_glide_emodel>  (353) 
-31.1309

>  <r_i_glide_energy>  (353) 
-23.539

>  <r_i_glide_einternal>  (353) 
0.33571

>  <r_i_glide_intrahb_reward>  (353) 
-0

>  <i_i_glide_confnum>  (353) 
6

>  <i_i_glide_posenum>  (353) 
3

>  <r_i_glide_eff_state_penalty>  (353) 
0

>  <ligand_id>  (353) 
96

>  <original_smiles>  (353) 
O=c1on(CC2CC2)c2nc(C3CC3)ccc12

>  <smiles>  (353) 
[H]c1c(C2([H])C([H])([H])C2([H])[H])nc2c(c1[H])c(=O)on2C([H])([H])C1([H])C([H])([H])C1([H])[H]

$$$$
96:0:2
     RDKit          3D

 31 34  0  0  1  0  0  0  0  0999 V2000
    7.9580   -2.6442   -0.3252 O   0  0  0  0  0  0  0  0  0  0  0  0
    6.7367   -2.6973   -0.2824 C   0  0  0  0  0  0  0  0  0  0  0  0
    5.8859   -1.6817   -0.6106 O   0  0  0  0  0  0  0  0  0  0  0  0
    4.5184   -2.1618   -0.5187 N   0  0  0  0  0  0  0  0  0  0  0  0
    3.6748   -1.7866   -1.6541 C   0  0  0  0  0  0  0  0  0  0  0  0
    4.2335   -2.1840   -3.0251 C   0  0  0  0  0  0  0  0  0  0  0  0
    3.5334   -1.7471   -4.2885 C   0  0  0  0  0  0  0  0  0  0  0  0
    3.5515   -3.2024   -3.8991 C   0  0  0  0  0  0  0  0  0  0  0  0
    4.5953   -3.4875   -0.0877 C   0  0  0  0  0  0  0  0  0  0  0  0
    3.5550   -4.3029    0.1881 N   0  0  0  0  0  0  0  0  0  0  0  0
    3.8642   -5.5163    0.7206 C   0  0  0  0  0  0  0  0  0  0  0  0
    2.6790   -6.4022    1.0379 C   0  0  0  0  0  0  0  0  0  0  0  0
    1.3434   -6.2336    0.3521 C   0  0  0  0  0  0  0  0  0  0  0  0
    1.4997   -5.8844    1.8216 C   0  0  0  0  0  0  0  0  0  0  0  0
    5.1911   -5.9291    0.9904 C   0  0  0  0  0  0  0  0  0  0  0  0
    6.2592   -5.0689    0.6768 C   0  0  0  0  0  0  0  0  0  0  0  0
    5.9106   -3.8284    0.1203 C   0  0  0  0  0  0  0  0  0  0  0  0
    2.6515   -2.1665   -1.5449 H   0  0  0  0  0  0  0  0  0  0  0  0
    3.6028   -0.7056   -1.6331 H   0  0  0  0  0  0  0  0  0  0  0  0
    5.3189   -2.1258   -3.1122 H   0  0  0  0  0  0  0  0  0  0  0  0
    2.5953   -1.2066   -4.1997 H   0  0  0  0  0  0  0  0  0  0  0  0
    4.1757   -1.4143   -5.1020 H   0  0  0  0  0  0  0  0  0  0  0  0
    4.2116   -3.8787   -4.4338 H   0  0  0  0  0  0  0  0  0  0  0  0
    2.6294   -3.6445   -3.5296 H   0  0  0  0  0  0  0  0  0  0  0  0
    3.0118   -7.4033    1.2459 H   0  0  0  0  0  0  0  0  0  0  0  0
    1.2634   -5.4396   -0.3860 H   0  0  0  0  0  0  0  0  0  0  0  0
    0.7733   -7.1328    0.1208 H   0  0  0  0  0  0  0  0  0  0  0  0
    1.0236   -6.5589    2.5331 H   0  0  0  0  0  0  0  0  0  0  0  0
    1.5324   -4.8404    2.1225 H   0  0  0  0  0  0  0  0  0  0  0  0
    5.3903   -6.8922    1.4441 H   0  0  0  0  0  0  0  0  0  0  0  0
    7.2987   -5.3310    0.8835 H   0  0  0  0  0  0  0  0  0  0  0  0
  1  2  2  0
  2 17  1  0
  2  3  1  0
  3  4  1  0
  4  5  1  0
  4  9  1  0
  5  6  1  0
  5 18  1  0
  5 19  1  0
  6  8  1  0
  6  7  1  0
  6 20  1  0
  7  8  1  0
  7 21  1  0
  7 22  1  0
  8 23  1  0
  8 24  1  0
  9 17  2  0
  9 10  1  0
 10 11  2  0
 11 12  1  0
 11 15  1  0
 12 14  1  0
 12 13  1  0
 12 25  1  0
 13 14  1  0
 13 26  1  0
 13 27  1  0
 14 28  1  0
 14 29  1  0
 15 16  2  0
 15 30  1  0
 16 17  1  0
 16 31  1  0
M  END
>  <i_m_ct_stereo_status>  (354) 
1

>  <s_m_source_file>  (354) 
/var/tmp/pbs.5076255.sched01/tmp54n2b71h/144k2pf1zoq.sdf

>  <i_m_source_file_index>  (354) 
7

>  <i_lp_mmshare_version>  (354) 
48012

>  <i_f3d_flags>  (354) 
0

>  <s_epik_input>  (354) 
W0NIMl0xW0NIMl1bQ0hdMVtDSDJdbjJvYyg9TyljKGMyMylbY0hdW2NIXWMobjMpW0NIXTRbQ0gyXVtDSDJdNA==

>  <s_epik_cmdline>  (354) 
J2VwaWtfcHl0aG9uJywgJy1waHQnLCAnMi4wJywgJy1waCcsICc3LjAnLCAnLXRuJywgJzgnLCAnLW1hJywgJzIwMCcsICctaW1hZScsICc8aW5maWxlLm1hZT4nLCAnLW9tYWUnLCAnPG91dGZpbGUubWFlPic=

>  <r_lp_tautomer_probability>  (354) 
1

>  <r_epik_Ionization_Penalty>  (354) 
2.44792e-07

>  <r_epik_Ionization_Penalty_Charging>  (354) 
1.41439e-08

>  <r_epik_Ionization_Penalty_Neutral>  (354) 
2.30648e-07

>  <r_epik_State_Penalty>  (354) 
-0

>  <r_epik_Charging_Adjusted_Penalty>  (354) 
1.41439e-08

>  <i_epik_Tot_Q>  (354) 
0

>  <i_epik_Tot_abs_Q>  (354) 
0

>  <s_lp_Force_Field>  (354) 
OPLS3e

>  <r_lp_Energy>  (354) 
29.2333

>  <b_lp_Chiralities_Consistent>  (354) 
1

>  <s_lp_Variant>  (354) 
96:0-1

>  <s_i_glide_gridfile>  (354) 
pfpi4k_grid

>  <i_i_glide_lignum>  (354) 
7

>  <i_i_glide_rotatable_bonds>  (354) 
3

>  <r_i_docking_score>  (354) 
-2.6809

>  <r_i_glide_ligand_efficiency>  (354) 
-0.1577

>  <r_i_glide_ligand_efficiency_sa>  (354) 
-0.405491

>  <r_i_glide_ligand_efficiency_ln>  (354) 
-0.699387

>  <r_i_glide_gscore>  (354) 
-2.6809

>  <r_i_glide_lipo>  (354) 
-0.526526

>  <r_i_glide_hbond>  (354) 
-0.00792235

>  <r_i_glide_metal>  (354) 
-0

>  <r_i_glide_rewards>  (354) 
-1.88638

>  <r_i_glide_evdw>  (354) 
-23.9393

>  <r_i_glide_ecoul>  (354) 
-0.0640817

>  <r_i_glide_erotb>  (354) 
0.966507

>  <r_i_glide_esite>  (354) 
-0.0200048

>  <r_i_glide_emodel>  (354) 
-26.0486

>  <r_i_glide_energy>  (354) 
-24.0034

>  <r_i_glide_einternal>  (354) 
4.09112

>  <r_i_glide_intrahb_reward>  (354) 
-0

>  <i_i_glide_confnum>  (354) 
2

>  <i_i_glide_posenum>  (354) 
2

>  <r_i_glide_eff_state_penalty>  (354) 
0

>  <ligand_id>  (354) 
96

>  <original_smiles>  (354) 
O=c1on(CC2CC2)c2nc(C3CC3)ccc12

>  <smiles>  (354) 
[H]c1c(C2([H])C([H])([H])C2([H])[H])nc2c(c1[H])c(=O)on2C([H])([H])C1([H])C([H])([H])C1([H])[H]

$$$$
97:0:0
     RDKit          3D

 21 23  0  0  1  0  0  0  0  0999 V2000
    3.2302   -1.0550   -3.8867 C   0  0  0  0  0  0  0  0  0  0  0  0
    2.6154   -2.3030   -3.6325 C   0  0  0  0  0  0  0  0  0  0  0  0
    2.8446   -3.0607   -2.5411 N   0  0  0  0  0  0  0  0  0  0  0  0
    3.7598   -2.5460   -1.6751 C   0  0  0  0  0  0  0  0  0  0  0  0
    4.4553   -1.3295   -1.8070 C   0  0  0  0  0  0  0  0  0  0  0  0
    4.1536   -0.5548   -2.9486 C   0  0  0  0  0  0  0  0  0  0  0  0
    5.3206   -1.1609   -0.7427 N   0  0  0  0  0  0  0  0  0  0  0  0
    5.1952   -2.1894    0.0423 N   0  0  0  0  0  0  0  0  0  0  0  0
    4.2632   -3.0397   -0.4798 N   0  0  0  0  0  0  0  0  0  0  0  0
    3.9375   -4.2414    0.1991 C   0  0  0  0  0  0  0  0  0  0  0  0
    4.8911   -4.9371    0.9727 C   0  0  0  0  0  0  0  0  0  0  0  0
    4.4592   -6.0968    1.6469 C   0  0  0  0  0  0  0  0  0  0  0  0
    3.1834   -6.5438    1.5838 N   0  0  0  0  0  0  0  0  0  0  0  0
    2.2737   -5.8897    0.8505 N   0  0  0  0  0  0  0  0  0  0  0  0
    2.6307   -4.7800    0.1614 C   0  0  0  0  0  0  0  0  0  0  0  0
    2.9600   -0.4785   -4.7630 H   0  0  0  0  0  0  0  0  0  0  0  0
    1.8706   -2.6881   -4.3139 H   0  0  0  0  0  0  0  0  0  0  0  0
    4.6127    0.4088   -3.0926 H   0  0  0  0  0  0  0  0  0  0  0  0
    5.9132   -4.6035    1.0622 H   0  0  0  0  0  0  0  0  0  0  0  0
    5.1383   -6.6683    2.2635 H   0  0  0  0  0  0  0  0  0  0  0  0
    1.8312   -4.3103   -0.3917 H   0  0  0  0  0  0  0  0  0  0  0  0
  1  6  2  0
  1  2  1  0
  1 16  1  0
  2  3  2  0
  2 17  1  0
  3  4  1  0
  4  9  1  0
  4  5  2  0
  5  6  1  0
  5  7  1  0
  6 18  1  0
  7  8  2  0
  8  9  1  0
  9 10  1  0
 10 15  1  0
 10 11  2  0
 11 12  1  0
 11 19  1  0
 12 13  2  0
 12 20  1  0
 13 14  1  0
 14 15  2  0
 15 21  1  0
M  END
>  <i_m_ct_stereo_status>  (355) 
1

>  <s_m_source_file>  (355) 
/var/tmp/pbs.5076255.sched01/tmp54n2b71h/144k2pf1zoq.sdf

>  <i_m_source_file_index>  (355) 
8

>  <i_lp_mmshare_version>  (355) 
48012

>  <i_f3d_flags>  (355) 
0

>  <s_epik_input>  (355) 
bjFbY0hdW2NIXVtjSF1jKGMxMilubm4yLWMzW2NIXVtjSF1ubltjSF0z

>  <s_epik_cmdline>  (355) 
J2VwaWtfcHl0aG9uJywgJy1waHQnLCAnMi4wJywgJy1waCcsICc3LjAnLCAnLXRuJywgJzgnLCAnLW1hJywgJzIwMCcsICctaW1hZScsICc8aW5maWxlLm1hZT4nLCAnLW9tYWUnLCAnPG91dGZpbGUubWFlPic=

>  <r_lp_tautomer_probability>  (355) 
1

>  <r_epik_Ionization_Penalty>  (355) 
6.35243e-08

>  <r_epik_Ionization_Penalty_Charging>  (355) 
0

>  <r_epik_Ionization_Penalty_Neutral>  (355) 
6.35243e-08

>  <r_epik_State_Penalty>  (355) 
-0

>  <r_epik_Charging_Adjusted_Penalty>  (355) 
0

>  <i_epik_Tot_Q>  (355) 
0

>  <i_epik_Tot_abs_Q>  (355) 
0

>  <s_lp_Force_Field>  (355) 
OPLS3e

>  <r_lp_Energy>  (355) 
25.8514

>  <b_lp_Chiralities_Consistent>  (355) 
1

>  <s_lp_Variant>  (355) 
97:0-1

>  <s_i_glide_gridfile>  (355) 
pfpi4k_grid

>  <i_i_glide_lignum>  (355) 
8

>  <i_i_glide_rotatable_bonds>  (355) 
1

>  <r_i_docking_score>  (355) 
-3.68245

>  <r_i_glide_ligand_efficiency>  (355) 
-0.245497

>  <r_i_glide_ligand_efficiency_sa>  (355) 
-0.605447

>  <r_i_glide_ligand_efficiency_ln>  (355) 
-0.993097

>  <r_i_glide_gscore>  (355) 
-3.68245

>  <r_i_glide_lipo>  (355) 
-0.719857

>  <r_i_glide_hbond>  (355) 
0

>  <r_i_glide_metal>  (355) 
-0

>  <r_i_glide_rewards>  (355) 
-2.07533

>  <r_i_glide_evdw>  (355) 
-23.112

>  <r_i_glide_ecoul>  (355) 
-0.23551

>  <r_i_glide_erotb>  (355) 
0.414584

>  <r_i_glide_esite>  (355) 
-0.110927

>  <r_i_glide_emodel>  (355) 
-28.7185

>  <r_i_glide_energy>  (355) 
-23.3475

>  <r_i_glide_einternal>  (355) 
0.309525

>  <r_i_glide_intrahb_reward>  (355) 
-0

>  <i_i_glide_confnum>  (355) 
3

>  <i_i_glide_posenum>  (355) 
2

>  <r_i_glide_eff_state_penalty>  (355) 
0

>  <ligand_id>  (355) 
97

>  <original_smiles>  (355) 
c1cnc2c(c1)nnn2-c1ccnnc1

>  <smiles>  (355) 
[H]c1nnc([H])c(-n2nnc3c([H])c([H])c([H])nc32)c1[H]

$$$$
97:0:1
     RDKit          3D

 21 23  0  0  1  0  0  0  0  0999 V2000
   -0.2969   -9.4102    2.8403 C   0  0  0  0  0  0  0  0  0  0  0  0
   -0.6935   -8.0842    2.5560 C   0  0  0  0  0  0  0  0  0  0  0  0
   -0.6118   -7.0524    3.4322 N   0  0  0  0  0  0  0  0  0  0  0  0
   -0.1088   -7.4079    4.6561 C   0  0  0  0  0  0  0  0  0  0  0  0
    0.3110   -8.6868    5.0693 C   0  0  0  0  0  0  0  0  0  0  0  0
    0.2155   -9.7210    4.1150 C   0  0  0  0  0  0  0  0  0  0  0  0
    0.7344   -8.6462    6.3887 N   0  0  0  0  0  0  0  0  0  0  0  0
    0.6144   -7.4271    6.8120 N   0  0  0  0  0  0  0  0  0  0  0  0
    0.1232   -6.6555    5.7987 N   0  0  0  0  0  0  0  0  0  0  0  0
   -0.1000   -5.2769    6.0058 C   0  0  0  0  0  0  0  0  0  0  0  0
    0.3183   -4.3203    5.0602 C   0  0  0  0  0  0  0  0  0  0  0  0
    0.0511   -2.9687    5.3487 C   0  0  0  0  0  0  0  0  0  0  0  0
   -0.5867   -2.5771    6.4769 N   0  0  0  0  0  0  0  0  0  0  0  0
   -0.9862   -3.4838    7.3765 N   0  0  0  0  0  0  0  0  0  0  0  0
   -0.7480   -4.7989    7.1666 C   0  0  0  0  0  0  0  0  0  0  0  0
   -0.3845  -10.1797    2.0866 H   0  0  0  0  0  0  0  0  0  0  0  0
   -1.0842   -7.8462    1.5760 H   0  0  0  0  0  0  0  0  0  0  0  0
    0.5154  -10.7299    4.3532 H   0  0  0  0  0  0  0  0  0  0  0  0
    0.8203   -4.6052    4.1485 H   0  0  0  0  0  0  0  0  0  0  0  0
    0.3380   -2.1844    4.6623 H   0  0  0  0  0  0  0  0  0  0  0  0
   -1.1017   -5.4692    7.9373 H   0  0  0  0  0  0  0  0  0  0  0  0
  1  6  2  0
  1  2  1  0
  1 16  1  0
  2  3  2  0
  2 17  1  0
  3  4  1  0
  4  9  1  0
  4  5  2  0
  5  6  1  0
  5  7  1  0
  6 18  1  0
  7  8  2  0
  8  9  1  0
  9 10  1  0
 10 15  1  0
 10 11  2  0
 11 12  1  0
 11 19  1  0
 12 13  2  0
 12 20  1  0
 13 14  1  0
 14 15  2  0
 15 21  1  0
M  END
>  <i_m_ct_stereo_status>  (356) 
1

>  <s_m_source_file>  (356) 
/var/tmp/pbs.5076255.sched01/tmp54n2b71h/144k2pf1zoq.sdf

>  <i_m_source_file_index>  (356) 
8

>  <i_lp_mmshare_version>  (356) 
48012

>  <i_f3d_flags>  (356) 
0

>  <s_epik_input>  (356) 
bjFbY0hdW2NIXVtjSF1jKGMxMilubm4yLWMzW2NIXVtjSF1ubltjSF0z

>  <s_epik_cmdline>  (356) 
J2VwaWtfcHl0aG9uJywgJy1waHQnLCAnMi4wJywgJy1waCcsICc3LjAnLCAnLXRuJywgJzgnLCAnLW1hJywgJzIwMCcsICctaW1hZScsICc8aW5maWxlLm1hZT4nLCAnLW9tYWUnLCAnPG91dGZpbGUubWFlPic=

>  <r_lp_tautomer_probability>  (356) 
1

>  <r_epik_Ionization_Penalty>  (356) 
6.35243e-08

>  <r_epik_Ionization_Penalty_Charging>  (356) 
0

>  <r_epik_Ionization_Penalty_Neutral>  (356) 
6.35243e-08

>  <r_epik_State_Penalty>  (356) 
-0

>  <r_epik_Charging_Adjusted_Penalty>  (356) 
0

>  <i_epik_Tot_Q>  (356) 
0

>  <i_epik_Tot_abs_Q>  (356) 
0

>  <s_lp_Force_Field>  (356) 
OPLS3e

>  <r_lp_Energy>  (356) 
25.8514

>  <b_lp_Chiralities_Consistent>  (356) 
1

>  <s_lp_Variant>  (356) 
97:0-1

>  <s_i_glide_gridfile>  (356) 
pfpi4k_grid

>  <i_i_glide_lignum>  (356) 
8

>  <i_i_glide_rotatable_bonds>  (356) 
1

>  <r_i_docking_score>  (356) 
-3.43436

>  <r_i_glide_ligand_efficiency>  (356) 
-0.228957

>  <r_i_glide_ligand_efficiency_sa>  (356) 
-0.564657

>  <r_i_glide_ligand_efficiency_ln>  (356) 
-0.926189

>  <r_i_glide_gscore>  (356) 
-3.43436

>  <r_i_glide_lipo>  (356) 
-0.017787

>  <r_i_glide_hbond>  (356) 
-0.0551735

>  <r_i_glide_metal>  (356) 
-0

>  <r_i_glide_rewards>  (356) 
-2.05784

>  <r_i_glide_evdw>  (356) 
-17.2931

>  <r_i_glide_ecoul>  (356) 
-4.40253

>  <r_i_glide_erotb>  (356) 
0.414584

>  <r_i_glide_esite>  (356) 
-0.193111

>  <r_i_glide_emodel>  (356) 
-26.2987

>  <r_i_glide_energy>  (356) 
-21.6956

>  <r_i_glide_einternal>  (356) 
1.06041

>  <r_i_glide_intrahb_reward>  (356) 
-0

>  <i_i_glide_confnum>  (356) 
5

>  <i_i_glide_posenum>  (356) 
9

>  <r_i_glide_eff_state_penalty>  (356) 
0

>  <ligand_id>  (356) 
97

>  <original_smiles>  (356) 
c1cnc2c(c1)nnn2-c1ccnnc1

>  <smiles>  (356) 
[H]c1nnc([H])c(-n2nnc3c([H])c([H])c([H])nc32)c1[H]

$$$$
97:0:2
     RDKit          3D

 21 23  0  0  1  0  0  0  0  0999 V2000
   -0.6395   -9.0541    2.8933 C   0  0  0  0  0  0  0  0  0  0  0  0
   -1.4150   -8.2563    3.7632 C   0  0  0  0  0  0  0  0  0  0  0  0
   -1.0294   -7.0495    4.2434 N   0  0  0  0  0  0  0  0  0  0  0  0
    0.2165   -6.6588    3.8428 C   0  0  0  0  0  0  0  0  0  0  0  0
    1.0865   -7.3556    2.9809 C   0  0  0  0  0  0  0  0  0  0  0  0
    0.6350   -8.6029    2.4961 C   0  0  0  0  0  0  0  0  0  0  0  0
    2.2426   -6.6230    2.7807 N   0  0  0  0  0  0  0  0  0  0  0  0
    2.1423   -5.5190    3.4599 N   0  0  0  0  0  0  0  0  0  0  0  0
    0.9443   -5.5066    4.1143 N   0  0  0  0  0  0  0  0  0  0  0  0
    0.5805   -4.3842    4.9038 C   0  0  0  0  0  0  0  0  0  0  0  0
    0.9571   -3.0742    4.5392 C   0  0  0  0  0  0  0  0  0  0  0  0
    0.5174   -2.0183    5.3594 C   0  0  0  0  0  0  0  0  0  0  0  0
   -0.2457   -2.2181    6.4600 N   0  0  0  0  0  0  0  0  0  0  0  0
   -0.6002   -3.4588    6.8174 N   0  0  0  0  0  0  0  0  0  0  0  0
   -0.1983   -4.5201    6.0773 C   0  0  0  0  0  0  0  0  0  0  0  0
   -1.0137  -10.0084    2.5508 H   0  0  0  0  0  0  0  0  0  0  0  0
   -2.3880   -8.6073    4.0760 H   0  0  0  0  0  0  0  0  0  0  0  0
    1.2431   -9.1945    1.8286 H   0  0  0  0  0  0  0  0  0  0  0  0
    1.5452   -2.8710    3.6563 H   0  0  0  0  0  0  0  0  0  0  0  0
    0.7655   -0.9927    5.1272 H   0  0  0  0  0  0  0  0  0  0  0  0
   -0.5360   -5.4838    6.4284 H   0  0  0  0  0  0  0  0  0  0  0  0
  1  6  2  0
  1  2  1  0
  1 16  1  0
  2  3  2  0
  2 17  1  0
  3  4  1  0
  4  9  1  0
  4  5  2  0
  5  6  1  0
  5  7  1  0
  6 18  1  0
  7  8  2  0
  8  9  1  0
  9 10  1  0
 10 15  1  0
 10 11  2  0
 11 12  1  0
 11 19  1  0
 12 13  2  0
 12 20  1  0
 13 14  1  0
 14 15  2  0
 15 21  1  0
M  END
>  <i_m_ct_stereo_status>  (357) 
1

>  <s_m_source_file>  (357) 
/var/tmp/pbs.5076255.sched01/tmp54n2b71h/144k2pf1zoq.sdf

>  <i_m_source_file_index>  (357) 
8

>  <i_lp_mmshare_version>  (357) 
48012

>  <i_f3d_flags>  (357) 
0

>  <s_epik_input>  (357) 
bjFbY0hdW2NIXVtjSF1jKGMxMilubm4yLWMzW2NIXVtjSF1ubltjSF0z

>  <s_epik_cmdline>  (357) 
J2VwaWtfcHl0aG9uJywgJy1waHQnLCAnMi4wJywgJy1waCcsICc3LjAnLCAnLXRuJywgJzgnLCAnLW1hJywgJzIwMCcsICctaW1hZScsICc8aW5maWxlLm1hZT4nLCAnLW9tYWUnLCAnPG91dGZpbGUubWFlPic=

>  <r_lp_tautomer_probability>  (357) 
1

>  <r_epik_Ionization_Penalty>  (357) 
6.35243e-08

>  <r_epik_Ionization_Penalty_Charging>  (357) 
0

>  <r_epik_Ionization_Penalty_Neutral>  (357) 
6.35243e-08

>  <r_epik_State_Penalty>  (357) 
-0

>  <r_epik_Charging_Adjusted_Penalty>  (357) 
0

>  <i_epik_Tot_Q>  (357) 
0

>  <i_epik_Tot_abs_Q>  (357) 
0

>  <s_lp_Force_Field>  (357) 
OPLS3e

>  <r_lp_Energy>  (357) 
25.8514

>  <b_lp_Chiralities_Consistent>  (357) 
1

>  <s_lp_Variant>  (357) 
97:0-1

>  <s_i_glide_gridfile>  (357) 
pfpi4k_grid

>  <i_i_glide_lignum>  (357) 
8

>  <i_i_glide_rotatable_bonds>  (357) 
1

>  <r_i_docking_score>  (357) 
-3.23927

>  <r_i_glide_ligand_efficiency>  (357) 
-0.215951

>  <r_i_glide_ligand_efficiency_sa>  (357) 
-0.532581

>  <r_i_glide_ligand_efficiency_ln>  (357) 
-0.873577

>  <r_i_glide_gscore>  (357) 
-3.23927

>  <r_i_glide_lipo>  (357) 
-0.0176183

>  <r_i_glide_hbond>  (357) 
0

>  <r_i_glide_metal>  (357) 
-0

>  <r_i_glide_rewards>  (357) 
-2.05784

>  <r_i_glide_evdw>  (357) 
-17.1543

>  <r_i_glide_ecoul>  (357) 
-3.91364

>  <r_i_glide_erotb>  (357) 
0.414584

>  <r_i_glide_esite>  (357) 
-0.133636

>  <r_i_glide_emodel>  (357) 
-25.7267

>  <r_i_glide_energy>  (357) 
-21.068

>  <r_i_glide_einternal>  (357) 
0.409045

>  <r_i_glide_intrahb_reward>  (357) 
-0

>  <i_i_glide_confnum>  (357) 
4

>  <i_i_glide_posenum>  (357) 
37

>  <r_i_glide_eff_state_penalty>  (357) 
0

>  <ligand_id>  (357) 
97

>  <original_smiles>  (357) 
c1cnc2c(c1)nnn2-c1ccnnc1

>  <smiles>  (357) 
[H]c1nnc([H])c(-n2nnc3c([H])c([H])c([H])nc32)c1[H]

$$$$
98:0:0
     RDKit          3D

 36 40  0  0  1  0  0  0  0  0999 V2000
   -0.4493   -8.7304    2.4126 C   0  0  0  0  0  0  0  0  0  0  0  0
    0.5505   -7.7279    2.1054 N   0  0  0  0  0  0  0  0  0  0  0  0
    0.2515   -6.6676    1.3256 N   0  0  0  0  0  0  0  0  0  0  0  0
    1.2901   -5.9111    1.3715 N   0  0  0  0  0  0  0  0  0  0  0  0
    2.2328   -6.5792    2.1135 C   0  0  0  0  0  0  0  0  0  0  0  0
    3.6401   -6.0726    2.3612 C   0  0  2  0  0  0  0  0  0  0  0  0
    3.7413   -4.7235    3.1344 C   0  0  0  0  0  0  0  0  0  0  0  0
    4.7105   -3.9025    2.2534 C   0  0  1  0  0  0  0  0  0  0  0  0
    5.6593   -5.0144    1.7904 C   0  0  0  0  0  0  0  0  0  0  0  0
    4.5429   -5.8255    1.1206 C   0  0  2  0  0  0  0  0  0  0  0  0
    3.8860   -4.7957    0.2024 C   0  0  2  0  0  0  0  0  0  0  0  0
    4.5171   -3.5757   -0.4333 C   0  0  1  0  0  0  0  0  0  0  0  0
    3.8501   -2.8858   -1.5733 C   0  0  0  0  0  0  0  0  0  0  0  0
    3.8253   -1.5613   -1.7815 N   0  0  0  0  0  0  0  0  0  0  0  0
    3.1174   -1.2764   -2.9138 C   0  0  0  0  0  0  0  0  0  0  0  0
    2.7056   -2.4901   -3.4231 C   0  0  0  0  0  0  0  0  0  0  0  0
    3.1922   -3.4468   -2.5807 N   0  0  0  0  0  0  0  0  0  0  0  0
    3.9703   -3.5092    0.9820 C   0  0  2  0  0  0  0  0  0  0  0  0
    1.8018   -7.7247    2.6131 N   0  0  0  0  0  0  0  0  0  0  0  0
    3.0357   -4.4611   -2.6837 H   0  0  0  0  0  0  0  0  0  0  0  0
   -1.4453   -8.2846    2.3603 H   0  0  0  0  0  0  0  0  0  0  0  0
   -0.2874   -9.1227    3.4187 H   0  0  0  0  0  0  0  0  0  0  0  0
   -0.4023   -9.5470    1.6927 H   0  0  0  0  0  0  0  0  0  0  0  0
    4.1387   -6.8277    2.9771 H   0  0  0  0  0  0  0  0  0  0  0  0
    2.7759   -4.2290    3.2547 H   0  0  0  0  0  0  0  0  0  0  0  0
    4.1626   -4.8760    4.1313 H   0  0  0  0  0  0  0  0  0  0  0  0
    5.1821   -3.0501    2.7439 H   0  0  0  0  0  0  0  0  0  0  0  0
    6.4342   -4.6768    1.1001 H   0  0  0  0  0  0  0  0  0  0  0  0
    6.1507   -5.5333    2.6189 H   0  0  0  0  0  0  0  0  0  0  0  0
    4.8579   -6.7243    0.5909 H   0  0  0  0  0  0  0  0  0  0  0  0
    2.9688   -5.0788   -0.2916 H   0  0  0  0  0  0  0  0  0  0  0  0
    5.5811   -3.5685   -0.6291 H   0  0  0  0  0  0  0  0  0  0  0  0
    2.9297   -0.2690   -3.2474 H   0  0  0  0  0  0  0  0  0  0  0  0
    2.0896   -2.7023   -4.2841 H   0  0  0  0  0  0  0  0  0  0  0  0
    3.0613   -2.9331    1.1214 H   0  0  0  0  0  0  0  0  0  0  0  0
    4.2151   -0.8759   -1.1574 H   0  0  0  0  0  0  0  0  0  0  0  0
  1  2  1  0
  1 21  1  0
  1 22  1  0
  1 23  1  0
  2 19  1  0
  2  3  1  0
  3  4  2  0
  4  5  1  0
  5  6  1  0
  5 19  2  0
  6 10  1  0
  6  7  1  0
  6 24  1  1
  7  8  1  0
  7 25  1  0
  7 26  1  0
  8 18  1  0
  8  9  1  0
  8 27  1  1
  9 10  1  0
  9 28  1  0
  9 29  1  0
 10 11  1  0
 10 30  1  6
 11 18  1  0
 11 12  1  0
 11 31  1  6
 12 13  1  0
 12 18  1  0
 12 32  1  1
 13 17  1  0
 13 14  2  0
 14 15  1  0
 14 36  1  0
 15 16  2  0
 15 33  1  0
 16 17  1  0
 16 34  1  0
 17 20  1  0
 18 35  1  1
M  CHG  1  14   1
M  END
>  <i_m_ct_stereo_status>  (358) 
1

>  <s_m_source_file>  (358) 
/var/tmp/pbs.5076255.sched01/tmp54n2b71h/144k2pf1zoq.sdf

>  <i_m_source_file_index>  (358) 
9

>  <i_lp_mmshare_version>  (358) 
48012

>  <i_f3d_flags>  (358) 
0

>  <s_epik_input>  (358) 
W0NIM11uMW5uYyhuMSlbQ0BIXShbQ0gyXTIpW0NASF0oW0NIMl0zKVtDQEBIXShbQ0BIXTRbQ0BASF0yMylbQ0BIXTRjNW5bY0hdW2NIXVtuSF01

>  <s_epik_cmdline>  (358) 
J2VwaWtfcHl0aG9uJywgJy1waHQnLCAnMi4wJywgJy1waCcsICc3LjAnLCAnLXRuJywgJzgnLCAnLW1hJywgJzIwMCcsICctaW1hZScsICc8aW5maWxlLm1hZT4nLCAnLW9tYWUnLCAnPG91dGZpbGUubWFlPic=

>  <r_lp_tautomer_probability>  (358) 
1

>  <r_epik_Ionization_Penalty>  (358) 
0.255039

>  <r_epik_Ionization_Penalty_Charging>  (358) 
0

>  <r_epik_Ionization_Penalty_Neutral>  (358) 
0.255039

>  <r_epik_State_Penalty>  (358) 
0.246533

>  <r_epik_Charging_Adjusted_Penalty>  (358) 
0.246533

>  <i_epik_Tot_Q>  (358) 
1

>  <i_epik_Tot_abs_Q>  (358) 
1

>  <s_lp_Force_Field>  (358) 
OPLS3e

>  <r_lp_Energy>  (358) 
44.7218

>  <b_lp_Chiralities_Consistent>  (358) 
1

>  <s_lp_Variant>  (358) 
98:0-1

>  <s_i_glide_gridfile>  (358) 
pfpi4k_grid

>  <i_i_glide_lignum>  (358) 
9

>  <i_i_glide_rotatable_bonds>  (358) 
2

>  <r_i_docking_score>  (358) 
-4.51212

>  <r_i_glide_ligand_efficiency>  (358) 
-0.23748

>  <r_i_glide_ligand_efficiency_sa>  (358) 
-0.633692

>  <r_i_glide_ligand_efficiency_ln>  (358) 
-1.14392

>  <r_i_glide_gscore>  (358) 
-4.51212

>  <r_i_glide_lipo>  (358) 
-0.370027

>  <r_i_glide_hbond>  (358) 
0

>  <r_i_glide_metal>  (358) 
-0

>  <r_i_glide_rewards>  (358) 
-1.65468

>  <r_i_glide_evdw>  (358) 
-18.0054

>  <r_i_glide_ecoul>  (358) 
-11.6097

>  <r_i_glide_erotb>  (358) 
0.532944

>  <r_i_glide_esite>  (358) 
-0.378635

>  <r_i_glide_emodel>  (358) 
-38.4132

>  <r_i_glide_energy>  (358) 
-29.6151

>  <r_i_glide_einternal>  (358) 
2.06643

>  <r_i_glide_intrahb_reward>  (358) 
-0

>  <i_i_glide_confnum>  (358) 
2

>  <i_i_glide_posenum>  (358) 
11

>  <r_i_glide_eff_state_penalty>  (358) 
0

>  <ligand_id>  (358) 
98

>  <original_smiles>  (358) 
Cn1nnc(C2CC3CC2C2C(c4ncc[nH]4)C32)n1

>  <smiles>  (358) 
[H]c1c([H])[n+]([H])c(C2([H])C3([H])C4([H])C([H])([H])C([H])(c5nnn(C([H])([H])[H])n5)C([H])(C4([H])[H])C23[H])n1[H]

$$$$
98:0:1
     RDKit          3D

 36 40  0  0  1  0  0  0  0  0999 V2000
   -1.6817   -9.0052    2.6010 C   0  0  0  0  0  0  0  0  0  0  0  0
   -0.4115   -8.3221    2.4935 N   0  0  0  0  0  0  0  0  0  0  0  0
   -0.3273   -6.9939    2.3043 N   0  0  0  0  0  0  0  0  0  0  0  0
    0.9293   -6.7080    2.3591 N   0  0  0  0  0  0  0  0  0  0  0  0
    1.5890   -7.8945    2.5371 C   0  0  0  0  0  0  0  0  0  0  0  0
    3.0924   -8.0435    2.6094 C   0  0  2  0  0  0  0  0  0  0  0  0
    3.7950   -7.1835    3.6969 C   0  0  0  0  0  0  0  0  0  0  0  0
    4.9231   -6.4904    2.8955 C   0  0  1  0  0  0  0  0  0  0  0  0
    5.3045   -7.6175    1.9331 C   0  0  0  0  0  0  0  0  0  0  0  0
    3.8984   -7.6952    1.3259 C   0  0  2  0  0  0  0  0  0  0  0  0
    3.6122   -6.2491    0.9131 C   0  0  2  0  0  0  0  0  0  0  0  0
    4.6311   -5.1939    0.5367 C   0  0  1  0  0  0  0  0  0  0  0  0
    4.2108   -3.9417   -0.1563 C   0  0  0  0  0  0  0  0  0  0  0  0
    4.3391   -2.6926    0.2998 N   0  0  0  0  0  0  0  0  0  0  0  0
    3.8282   -1.7992   -0.6033 C   0  0  0  0  0  0  0  0  0  0  0  0
    3.3853   -2.5402   -1.6696 C   0  0  0  0  0  0  0  0  0  0  0  0
    3.6405   -3.8537   -1.3666 N   0  0  0  0  0  0  0  0  0  0  0  0
    4.2837   -5.4388    1.9932 C   0  0  2  0  0  0  0  0  0  0  0  0
    0.7817   -8.9395    2.6341 N   0  0  0  0  0  0  0  0  0  0  0  0
    3.4029   -4.6642   -1.9499 H   0  0  0  0  0  0  0  0  0  0  0  0
   -2.4332   -8.3165    2.9911 H   0  0  0  0  0  0  0  0  0  0  0  0
   -1.5966   -9.8539    3.2760 H   0  0  0  0  0  0  0  0  0  0  0  0
   -1.9980   -9.3521    1.6202 H   0  0  0  0  0  0  0  0  0  0  0  0
    3.2956   -9.0910    2.8447 H   0  0  0  0  0  0  0  0  0  0  0  0
    3.1285   -6.4591    4.1674 H   0  0  0  0  0  0  0  0  0  0  0  0
    4.2078   -7.8141    4.4874 H   0  0  0  0  0  0  0  0  0  0  0  0
    5.7394   -6.0906    3.4997 H   0  0  0  0  0  0  0  0  0  0  0  0
    6.0819   -7.3486    1.2196 H   0  0  0  0  0  0  0  0  0  0  0  0
    5.6174   -8.5339    2.4422 H   0  0  0  0  0  0  0  0  0  0  0  0
    3.7902   -8.4060    0.5051 H   0  0  0  0  0  0  0  0  0  0  0  0
    2.5924   -6.0173    0.6190 H   0  0  0  0  0  0  0  0  0  0  0  0
    5.5952   -5.4971    0.1344 H   0  0  0  0  0  0  0  0  0  0  0  0
    3.8002   -0.7334   -0.4227 H   0  0  0  0  0  0  0  0  0  0  0  0
    2.8888   -2.2267   -2.5793 H   0  0  0  0  0  0  0  0  0  0  0  0
    3.7011   -4.6730    2.5040 H   0  0  0  0  0  0  0  0  0  0  0  0
    4.7337   -2.4477    1.2029 H   0  0  0  0  0  0  0  0  0  0  0  0
  1  2  1  0
  1 21  1  0
  1 22  1  0
  1 23  1  0
  2 19  1  0
  2  3  1  0
  3  4  2  0
  4  5  1  0
  5  6  1  0
  5 19  2  0
  6 10  1  0
  6  7  1  0
  6 24  1  1
  7  8  1  0
  7 25  1  0
  7 26  1  0
  8 18  1  0
  8  9  1  0
  8 27  1  1
  9 10  1  0
  9 28  1  0
  9 29  1  0
 10 11  1  0
 10 30  1  6
 11 18  1  0
 11 12  1  0
 11 31  1  6
 12 13  1  0
 12 18  1  0
 12 32  1  1
 13 17  1  0
 13 14  2  0
 14 15  1  0
 14 36  1  0
 15 16  2  0
 15 33  1  0
 16 17  1  0
 16 34  1  0
 17 20  1  0
 18 35  1  1
M  CHG  1  14   1
M  END
>  <i_m_ct_stereo_status>  (359) 
1

>  <s_m_source_file>  (359) 
/var/tmp/pbs.5076255.sched01/tmp54n2b71h/144k2pf1zoq.sdf

>  <i_m_source_file_index>  (359) 
9

>  <i_lp_mmshare_version>  (359) 
48012

>  <i_f3d_flags>  (359) 
0

>  <s_epik_input>  (359) 
W0NIM11uMW5uYyhuMSlbQ0BIXShbQ0gyXTIpW0NASF0oW0NIMl0zKVtDQEBIXShbQ0BIXTRbQ0BASF0yMylbQ0BIXTRjNW5bY0hdW2NIXVtuSF01

>  <s_epik_cmdline>  (359) 
J2VwaWtfcHl0aG9uJywgJy1waHQnLCAnMi4wJywgJy1waCcsICc3LjAnLCAnLXRuJywgJzgnLCAnLW1hJywgJzIwMCcsICctaW1hZScsICc8aW5maWxlLm1hZT4nLCAnLW9tYWUnLCAnPG91dGZpbGUubWFlPic=

>  <r_lp_tautomer_probability>  (359) 
1

>  <r_epik_Ionization_Penalty>  (359) 
0.255039

>  <r_epik_Ionization_Penalty_Charging>  (359) 
0

>  <r_epik_Ionization_Penalty_Neutral>  (359) 
0.255039

>  <r_epik_State_Penalty>  (359) 
0.246533

>  <r_epik_Charging_Adjusted_Penalty>  (359) 
0.246533

>  <i_epik_Tot_Q>  (359) 
1

>  <i_epik_Tot_abs_Q>  (359) 
1

>  <s_lp_Force_Field>  (359) 
OPLS3e

>  <r_lp_Energy>  (359) 
44.7218

>  <b_lp_Chiralities_Consistent>  (359) 
1

>  <s_lp_Variant>  (359) 
98:0-1

>  <s_i_glide_gridfile>  (359) 
pfpi4k_grid

>  <i_i_glide_lignum>  (359) 
9

>  <i_i_glide_rotatable_bonds>  (359) 
2

>  <r_i_docking_score>  (359) 
-3.81109

>  <r_i_glide_ligand_efficiency>  (359) 
-0.200584

>  <r_i_glide_ligand_efficiency_sa>  (359) 
-0.535238

>  <r_i_glide_ligand_efficiency_ln>  (359) 
-0.966194

>  <r_i_glide_gscore>  (359) 
-3.81109

>  <r_i_glide_lipo>  (359) 
-0.338341

>  <r_i_glide_hbond>  (359) 
0

>  <r_i_glide_metal>  (359) 
-0

>  <r_i_glide_rewards>  (359) 
-1.65468

>  <r_i_glide_evdw>  (359) 
-19.6063

>  <r_i_glide_ecoul>  (359) 
-7.53863

>  <r_i_glide_erotb>  (359) 
0.532944

>  <r_i_glide_esite>  (359) 
-0.239913

>  <r_i_glide_emodel>  (359) 
-35.1245

>  <r_i_glide_energy>  (359) 
-27.1449

>  <r_i_glide_einternal>  (359) 
0.940393

>  <r_i_glide_intrahb_reward>  (359) 
-0

>  <i_i_glide_confnum>  (359) 
2

>  <i_i_glide_posenum>  (359) 
25

>  <r_i_glide_eff_state_penalty>  (359) 
0

>  <ligand_id>  (359) 
98

>  <original_smiles>  (359) 
Cn1nnc(C2CC3CC2C2C(c4ncc[nH]4)C32)n1

>  <smiles>  (359) 
[H]c1c([H])[n+]([H])c(C2([H])C3([H])C4([H])C([H])([H])C([H])(c5nnn(C([H])([H])[H])n5)C([H])(C4([H])[H])C23[H])n1[H]

$$$$
98:0:2
     RDKit          3D

 36 40  0  0  1  0  0  0  0  0999 V2000
   -0.4886    1.5088    1.9245 C   0  0  0  0  0  0  0  0  0  0  0  0
    0.3234    0.6008    2.7076 N   0  0  0  0  0  0  0  0  0  0  0  0
   -0.1644   -0.1056    3.7506 N   0  0  0  0  0  0  0  0  0  0  0  0
    0.8199   -0.8352    4.1709 N   0  0  0  0  0  0  0  0  0  0  0  0
    1.8931   -0.5229    3.3831 C   0  0  0  0  0  0  0  0  0  0  0  0
    3.2193   -1.2347    3.4889 C   0  0  2  0  0  0  0  0  0  0  0  0
    4.4794   -0.3717    3.1837 C   0  0  0  0  0  0  0  0  0  0  0  0
    5.2427   -1.2456    2.1606 C   0  0  1  0  0  0  0  0  0  0  0  0
    4.9355   -2.6392    2.7143 C   0  0  0  0  0  0  0  0  0  0  0  0
    3.4195   -2.4612    2.5596 C   0  0  2  0  0  0  0  0  0  0  0  0
    3.2512   -2.0319    1.1026 C   0  0  2  0  0  0  0  0  0  0  0  0
    4.1705   -2.3899   -0.0511 C   0  0  1  0  0  0  0  0  0  0  0  0
    3.7428   -2.2106   -1.4741 C   0  0  0  0  0  0  0  0  0  0  0  0
    3.8444   -1.0873   -2.1962 N   0  0  0  0  0  0  0  0  0  0  0  0
    3.3348   -1.2831   -3.4539 C   0  0  0  0  0  0  0  0  0  0  0  0
    2.9220   -2.5892   -3.5064 C   0  0  0  0  0  0  0  0  0  0  0  0
    3.1960   -3.1328   -2.2763 N   0  0  0  0  0  0  0  0  0  0  0  0
    4.4791   -1.1975    0.8404 C   0  0  2  0  0  0  0  0  0  0  0  0
    1.6202    0.3670    2.4394 N   0  0  0  0  0  0  0  0  0  0  0  0
    3.0048   -4.0991   -2.0199 H   0  0  0  0  0  0  0  0  0  0  0  0
   -1.5297    1.1822    1.9267 H   0  0  0  0  0  0  0  0  0  0  0  0
   -0.1307    1.5286    0.8944 H   0  0  0  0  0  0  0  0  0  0  0  0
   -0.4278    2.5168    2.3367 H   0  0  0  0  0  0  0  0  0  0  0  0
    3.3012   -1.5832    4.5211 H   0  0  0  0  0  0  0  0  0  0  0  0
    4.2410    0.6096    2.7723 H   0  0  0  0  0  0  0  0  0  0  0  0
    5.0706   -0.2155    4.0878 H   0  0  0  0  0  0  0  0  0  0  0  0
    6.3015   -1.0046    2.0487 H   0  0  0  0  0  0  0  0  0  0  0  0
    5.3514   -3.4544    2.1237 H   0  0  0  0  0  0  0  0  0  0  0  0
    5.2613   -2.7729    3.7483 H   0  0  0  0  0  0  0  0  0  0  0  0
    2.8162   -3.3334    2.8174 H   0  0  0  0  0  0  0  0  0  0  0  0
    2.2753   -1.6346    0.8323 H   0  0  0  0  0  0  0  0  0  0  0  0
    4.7882   -3.2838    0.0068 H   0  0  0  0  0  0  0  0  0  0  0  0
    3.2857   -0.4919   -4.1887 H   0  0  0  0  0  0  0  0  0  0  0  0
    2.4452   -3.1528   -4.2980 H   0  0  0  0  0  0  0  0  0  0  0  0
    4.3435   -0.2053    0.4135 H   0  0  0  0  0  0  0  0  0  0  0  0
    4.1958   -0.2067   -1.8391 H   0  0  0  0  0  0  0  0  0  0  0  0
  1  2  1  0
  1 21  1  0
  1 22  1  0
  1 23  1  0
  2 19  1  0
  2  3  1  0
  3  4  2  0
  4  5  1  0
  5  6  1  0
  5 19  2  0
  6 10  1  0
  6  7  1  0
  6 24  1  1
  7  8  1  0
  7 25  1  0
  7 26  1  0
  8 18  1  0
  8  9  1  0
  8 27  1  6
  9 10  1  0
  9 28  1  0
  9 29  1  0
 10 11  1  0
 10 30  1  1
 11 18  1  0
 11 12  1  0
 11 31  1  6
 12 13  1  0
 12 18  1  0
 12 32  1  6
 13 17  1  0
 13 14  2  0
 14 15  1  0
 14 36  1  0
 15 16  2  0
 15 33  1  0
 16 17  1  0
 16 34  1  0
 17 20  1  0
 18 35  1  6
M  CHG  1  14   1
M  END
>  <i_m_ct_stereo_status>  (360) 
1

>  <s_m_source_file>  (360) 
/var/tmp/pbs.5076255.sched01/tmp54n2b71h/144k2pf1zoq.sdf

>  <i_m_source_file_index>  (360) 
9

>  <i_lp_mmshare_version>  (360) 
48012

>  <i_f3d_flags>  (360) 
0

>  <s_epik_input>  (360) 
W0NIM11uMW5uYyhuMSlbQ0BIXShbQ0gyXTIpW0NASF0oW0NIMl0zKVtDQEBIXShbQ0BIXTRbQ0BASF0yMylbQ0BIXTRjNW5bY0hdW2NIXVtuSF01

>  <s_epik_cmdline>  (360) 
J2VwaWtfcHl0aG9uJywgJy1waHQnLCAnMi4wJywgJy1waCcsICc3LjAnLCAnLXRuJywgJzgnLCAnLW1hJywgJzIwMCcsICctaW1hZScsICc8aW5maWxlLm1hZT4nLCAnLW9tYWUnLCAnPG91dGZpbGUubWFlPic=

>  <r_lp_tautomer_probability>  (360) 
1

>  <r_epik_Ionization_Penalty>  (360) 
0.255039

>  <r_epik_Ionization_Penalty_Charging>  (360) 
0

>  <r_epik_Ionization_Penalty_Neutral>  (360) 
0.255039

>  <r_epik_State_Penalty>  (360) 
0.246533

>  <r_epik_Charging_Adjusted_Penalty>  (360) 
0.246533

>  <i_epik_Tot_Q>  (360) 
1

>  <i_epik_Tot_abs_Q>  (360) 
1

>  <s_lp_Force_Field>  (360) 
OPLS3e

>  <r_lp_Energy>  (360) 
44.7218

>  <b_lp_Chiralities_Consistent>  (360) 
1

>  <s_lp_Variant>  (360) 
98:0-1

>  <s_i_glide_gridfile>  (360) 
pfpi4k_grid

>  <i_i_glide_lignum>  (360) 
9

>  <i_i_glide_rotatable_bonds>  (360) 
2

>  <r_i_docking_score>  (360) 
-3.72114

>  <r_i_glide_ligand_efficiency>  (360) 
-0.195849

>  <r_i_glide_ligand_efficiency_sa>  (360) 
-0.522605

>  <r_i_glide_ligand_efficiency_ln>  (360) 
-0.943388

>  <r_i_glide_gscore>  (360) 
-3.72114

>  <r_i_glide_lipo>  (360) 
-0.634535

>  <r_i_glide_hbond>  (360) 
0

>  <r_i_glide_metal>  (360) 
-0

>  <r_i_glide_rewards>  (360) 
-1.65468

>  <r_i_glide_evdw>  (360) 
-21.3657

>  <r_i_glide_ecoul>  (360) 
-4.79426

>  <r_i_glide_erotb>  (360) 
0.532944

>  <r_i_glide_esite>  (360) 
-0.177446

>  <r_i_glide_emodel>  (360) 
-34.3413

>  <r_i_glide_energy>  (360) 
-26.16

>  <r_i_glide_einternal>  (360) 
0.297736

>  <r_i_glide_intrahb_reward>  (360) 
-0

>  <i_i_glide_confnum>  (360) 
5

>  <i_i_glide_posenum>  (360) 
34

>  <r_i_glide_eff_state_penalty>  (360) 
0

>  <ligand_id>  (360) 
98

>  <original_smiles>  (360) 
Cn1nnc(C2CC3CC2C2C(c4ncc[nH]4)C32)n1

>  <smiles>  (360) 
[H]c1c([H])[n+]([H])c(C2([H])C3([H])C4([H])C([H])([H])C([H])(c5nnn(C([H])([H])[H])n5)C([H])(C4([H])[H])C23[H])n1[H]

$$$$
98:1:0
     RDKit          3D

 35 39  0  0  1  0  0  0  0  0999 V2000
   -0.2293   -8.3997    2.5074 C   0  0  0  0  0  0  0  0  0  0  0  0
    0.8549   -7.5236    2.1170 N   0  0  0  0  0  0  0  0  0  0  0  0
    0.6295   -6.3019    1.5975 N   0  0  0  0  0  0  0  0  0  0  0  0
    1.7972   -5.7548    1.4771 N   0  0  0  0  0  0  0  0  0  0  0  0
    2.7085   -6.6852    1.8942 C   0  0  0  0  0  0  0  0  0  0  0  0
    4.2082   -6.4774    1.8918 C   0  0  2  0  0  0  0  0  0  0  0  0
    4.7188   -5.2362    2.6822 C   0  0  0  0  0  0  0  0  0  0  0  0
    5.6558   -4.5555    1.6577 C   0  0  1  0  0  0  0  0  0  0  0  0
    6.2578   -5.7904    0.9775 C   0  0  0  0  0  0  0  0  0  0  0  0
    4.8922   -6.3096    0.5088 C   0  0  2  0  0  0  0  0  0  0  0  0
    4.2893   -5.1068   -0.2159 C   0  0  2  0  0  0  0  0  0  0  0  0
    5.0517   -4.0037   -0.9237 C   0  0  1  0  0  0  0  0  0  0  0  0
    4.3545   -3.0610   -1.8469 C   0  0  0  0  0  0  0  0  0  0  0  0
    4.6251   -1.7616   -1.9453 N   0  0  0  0  0  0  0  0  0  0  0  0
    3.7202   -1.2883   -2.8926 C   0  0  0  0  0  0  0  0  0  0  0  0
    2.9635   -2.3313   -3.3765 C   0  0  0  0  0  0  0  0  0  0  0  0
    3.3989   -3.4546   -2.6956 N   0  0  0  0  0  0  0  0  0  0  0  0
    4.7922   -3.9277    0.5704 C   0  0  2  0  0  0  0  0  0  0  0  0
    2.1579   -7.8163    2.3046 N   0  0  0  0  0  0  0  0  0  0  0  0
    3.0415   -4.4077   -2.7680 H   0  0  0  0  0  0  0  0  0  0  0  0
   -1.1009   -7.8021    2.7818 H   0  0  0  0  0  0  0  0  0  0  0  0
    0.0667   -9.0018    3.3687 H   0  0  0  0  0  0  0  0  0  0  0  0
   -0.5005   -9.0497    1.6862 H   0  0  0  0  0  0  0  0  0  0  0  0
    4.6438   -7.3643    2.3592 H   0  0  0  0  0  0  0  0  0  0  0  0
    3.9105   -4.5755    3.0006 H   0  0  0  0  0  0  0  0  0  0  0  0
    5.2699   -5.5480    3.5722 H   0  0  0  0  0  0  0  0  0  0  0  0
    6.3701   -3.8474    2.0812 H   0  0  0  0  0  0  0  0  0  0  0  0
    6.9437   -5.5498    0.1663 H   0  0  0  0  0  0  0  0  0  0  0  0
    6.7756   -6.4547    1.6735 H   0  0  0  0  0  0  0  0  0  0  0  0
    4.9097   -7.2080   -0.1091 H   0  0  0  0  0  0  0  0  0  0  0  0
    3.2349   -5.1641   -0.4704 H   0  0  0  0  0  0  0  0  0  0  0  0
    6.0597   -4.1966   -1.2816 H   0  0  0  0  0  0  0  0  0  0  0  0
    3.6785   -0.2368   -3.1375 H   0  0  0  0  0  0  0  0  0  0  0  0
    2.1646   -2.3560   -4.1008 H   0  0  0  0  0  0  0  0  0  0  0  0
    4.0671   -3.1903    0.9073 H   0  0  0  0  0  0  0  0  0  0  0  0
  1  2  1  0
  1 21  1  0
  1 22  1  0
  1 23  1  0
  2 19  1  0
  2  3  1  0
  3  4  2  0
  4  5  1  0
  5  6  1  0
  5 19  2  0
  6 10  1  0
  6  7  1  0
  6 24  1  1
  7  8  1  0
  7 25  1  0
  7 26  1  0
  8 18  1  0
  8  9  1  0
  8 27  1  1
  9 10  1  0
  9 28  1  0
  9 29  1  0
 10 11  1  0
 10 30  1  6
 11 18  1  0
 11 12  1  0
 11 31  1  6
 12 13  1  0
 12 18  1  0
 12 32  1  1
 13 17  1  0
 13 14  2  0
 14 15  1  0
 15 16  2  0
 15 33  1  0
 16 17  1  0
 16 34  1  0
 17 20  1  0
 18 35  1  1
M  END
>  <i_m_ct_stereo_status>  (361) 
1

>  <s_m_source_file>  (361) 
/var/tmp/pbs.5076255.sched01/tmp54n2b71h/144k2pf1zoq.sdf

>  <i_m_source_file_index>  (361) 
10

>  <i_lp_mmshare_version>  (361) 
48012

>  <i_f3d_flags>  (361) 
0

>  <s_epik_input>  (361) 
W0NIM11uMW5uYyhuMSlbQ0BIXShbQ0gyXTIpW0NASF0oW0NIMl0zKVtDQEBIXShbQ0BIXTRbQ0BASF0yMylbQ0BIXTRjNW5bY0hdW2NIXVtuSF01

>  <s_epik_cmdline>  (361) 
J2VwaWtfcHl0aG9uJywgJy1waHQnLCAnMi4wJywgJy1waCcsICc3LjAnLCAnLXRuJywgJzgnLCAnLW1hJywgJzIwMCcsICctaW1hZScsICc8aW5maWxlLm1hZT4nLCAnLW9tYWUnLCAnPG91dGZpbGUubWFlPic=

>  <r_lp_tautomer_probability>  (361) 
0.5

>  <r_epik_Ionization_Penalty>  (361) 
0.622374

>  <r_epik_Ionization_Penalty_Charging>  (361) 
0.62237

>  <r_epik_Ionization_Penalty_Neutral>  (361) 
3.87978e-06

>  <r_epik_State_Penalty>  (361) 
0.638508

>  <r_epik_Charging_Adjusted_Penalty>  (361) 
1.26088

>  <i_epik_Tot_Q>  (361) 
0

>  <i_epik_Tot_abs_Q>  (361) 
0

>  <s_lp_Force_Field>  (361) 
OPLS3e

>  <r_lp_Energy>  (361) 
40.2903

>  <b_lp_Chiralities_Consistent>  (361) 
1

>  <s_lp_Variant>  (361) 
98:0-2

>  <s_i_glide_gridfile>  (361) 
pfpi4k_grid

>  <i_i_glide_lignum>  (361) 
10

>  <i_i_glide_rotatable_bonds>  (361) 
2

>  <r_i_docking_score>  (361) 
-4.44013

>  <r_i_glide_ligand_efficiency>  (361) 
-0.233691

>  <r_i_glide_ligand_efficiency_sa>  (361) 
-0.623582

>  <r_i_glide_ligand_efficiency_ln>  (361) 
-1.12567

>  <r_i_glide_gscore>  (361) 
-4.44013

>  <r_i_glide_lipo>  (361) 
-0.540026

>  <r_i_glide_hbond>  (361) 
-0.32

>  <r_i_glide_metal>  (361) 
-0

>  <r_i_glide_rewards>  (361) 
-1.66155

>  <r_i_glide_evdw>  (361) 
-21.531

>  <r_i_glide_ecoul>  (361) 
-7.53623

>  <r_i_glide_erotb>  (361) 
0.536554

>  <r_i_glide_esite>  (361) 
-0.248128

>  <r_i_glide_emodel>  (361) 
-36.9754

>  <r_i_glide_energy>  (361) 
-29.0672

>  <r_i_glide_einternal>  (361) 
1.00717

>  <r_i_glide_intrahb_reward>  (361) 
-0

>  <i_i_glide_confnum>  (361) 
6

>  <i_i_glide_posenum>  (361) 
24

>  <r_i_glide_eff_state_penalty>  (361) 
0

>  <ligand_id>  (361) 
98

>  <original_smiles>  (361) 
Cn1nnc(C2CC3CC2C2C(c4ncc[nH]4)C32)n1

>  <smiles>  (361) 
[H]c1nc(C2([H])C3([H])C4([H])C([H])([H])C([H])(c5nnn(C([H])([H])[H])n5)C([H])(C4([H])[H])C23[H])n([H])c1[H]

$$$$
98:1:1
     RDKit          3D

 35 39  0  0  1  0  0  0  0  0999 V2000
    2.3587    1.0711    2.1451 C   0  0  0  0  0  0  0  0  0  0  0  0
    3.4565    0.1825    2.4387 N   0  0  0  0  0  0  0  0  0  0  0  0
    3.7141   -0.2980    3.6710 N   0  0  0  0  0  0  0  0  0  0  0  0
    4.7438   -1.0687    3.5384 N   0  0  0  0  0  0  0  0  0  0  0  0
    5.0894   -1.0062    2.2183 C   0  0  0  0  0  0  0  0  0  0  0  0
    6.1410   -1.8712    1.6134 C   0  0  2  0  0  0  0  0  0  0  0  0
    7.1941   -1.1443    0.7280 C   0  0  0  0  0  0  0  0  0  0  0  0
    7.2522   -2.0557   -0.5162 C   0  0  1  0  0  0  0  0  0  0  0  0
    7.0822   -3.4233    0.1350 C   0  0  0  0  0  0  0  0  0  0  0  0
    5.7208   -3.0848    0.7633 C   0  0  2  0  0  0  0  0  0  0  0  0
    4.9195   -2.5862   -0.4168 C   0  0  2  0  0  0  0  0  0  0  0  0
    5.1045   -2.9596   -1.8656 C   0  0  1  0  0  0  0  0  0  0  0  0
    4.0442   -2.6111   -2.8170 C   0  0  0  0  0  0  0  0  0  0  0  0
    4.0614   -1.5030   -3.5652 N   0  0  0  0  0  0  0  0  0  0  0  0
    2.8731   -1.5770   -4.2762 C   0  0  0  0  0  0  0  0  0  0  0  0
    2.2549   -2.7742   -3.9748 C   0  0  0  0  0  0  0  0  0  0  0  0
    3.0290   -3.4174   -3.0628 N   0  0  0  0  0  0  0  0  0  0  0  0
    5.9422   -1.8671   -1.2544 C   0  0  2  0  0  0  0  0  0  0  0  0
    4.3478   -0.1859    1.5060 N   0  0  0  0  0  0  0  0  0  0  0  0
    2.9027   -4.3834   -2.7273 H   0  0  0  0  0  0  0  0  0  0  0  0
    1.5337    0.8835    2.8278 H   0  0  0  0  0  0  0  0  0  0  0  0
    2.0099    0.8982    1.1290 H   0  0  0  0  0  0  0  0  0  0  0  0
    2.6834    2.1061    2.2410 H   0  0  0  0  0  0  0  0  0  0  0  0
    6.5746   -2.3435    2.4770 H   0  0  0  0  0  0  0  0  0  0  0  0
    6.8677   -0.1407    0.4583 H   0  0  0  0  0  0  0  0  0  0  0  0
    8.1712   -1.0673    1.2038 H   0  0  0  0  0  0  0  0  0  0  0  0
    8.1209   -1.9350   -1.1741 H   0  0  0  0  0  0  0  0  0  0  0  0
    7.0380   -4.2341   -0.5871 H   0  0  0  0  0  0  0  0  0  0  0  0
    7.8701   -3.6371    0.8528 H   0  0  0  0  0  0  0  0  0  0  0  0
    5.2166   -3.8936    1.3018 H   0  0  0  0  0  0  0  0  0  0  0  0
    3.9775   -2.0922   -0.2079 H   0  0  0  0  0  0  0  0  0  0  0  0
    5.5206   -3.9218   -2.1309 H   0  0  0  0  0  0  0  0  0  0  0  0
    2.5737   -0.8030   -4.9707 H   0  0  0  0  0  0  0  0  0  0  0  0
    1.3910   -3.2230   -4.4373 H   0  0  0  0  0  0  0  0  0  0  0  0
    5.6996   -0.8515   -1.5399 H   0  0  0  0  0  0  0  0  0  0  0  0
  1  2  1  0
  1 21  1  0
  1 22  1  0
  1 23  1  0
  2 19  1  0
  2  3  1  0
  3  4  2  0
  4  5  1  0
  5  6  1  0
  5 19  2  0
  6 10  1  0
  6  7  1  0
  6 24  1  1
  7  8  1  0
  7 25  1  0
  7 26  1  0
  8 18  1  0
  8  9  1  0
  8 27  1  6
  9 10  1  0
  9 28  1  0
  9 29  1  0
 10 11  1  0
 10 30  1  1
 11 18  1  0
 11 12  1  0
 11 31  1  1
 12 13  1  0
 12 18  1  0
 12 32  1  1
 13 17  1  0
 13 14  2  0
 14 15  1  0
 15 16  2  0
 15 33  1  0
 16 17  1  0
 16 34  1  0
 17 20  1  0
 18 35  1  6
M  END
>  <i_m_ct_stereo_status>  (362) 
1

>  <s_m_source_file>  (362) 
/var/tmp/pbs.5076255.sched01/tmp54n2b71h/144k2pf1zoq.sdf

>  <i_m_source_file_index>  (362) 
10

>  <i_lp_mmshare_version>  (362) 
48012

>  <i_f3d_flags>  (362) 
0

>  <s_epik_input>  (362) 
W0NIM11uMW5uYyhuMSlbQ0BIXShbQ0gyXTIpW0NASF0oW0NIMl0zKVtDQEBIXShbQ0BIXTRbQ0BASF0yMylbQ0BIXTRjNW5bY0hdW2NIXVtuSF01

>  <s_epik_cmdline>  (362) 
J2VwaWtfcHl0aG9uJywgJy1waHQnLCAnMi4wJywgJy1waCcsICc3LjAnLCAnLXRuJywgJzgnLCAnLW1hJywgJzIwMCcsICctaW1hZScsICc8aW5maWxlLm1hZT4nLCAnLW9tYWUnLCAnPG91dGZpbGUubWFlPic=

>  <r_lp_tautomer_probability>  (362) 
0.5

>  <r_epik_Ionization_Penalty>  (362) 
0.622374

>  <r_epik_Ionization_Penalty_Charging>  (362) 
0.62237

>  <r_epik_Ionization_Penalty_Neutral>  (362) 
3.87978e-06

>  <r_epik_State_Penalty>  (362) 
0.638508

>  <r_epik_Charging_Adjusted_Penalty>  (362) 
1.26088

>  <i_epik_Tot_Q>  (362) 
0

>  <i_epik_Tot_abs_Q>  (362) 
0

>  <s_lp_Force_Field>  (362) 
OPLS3e

>  <r_lp_Energy>  (362) 
40.2903

>  <b_lp_Chiralities_Consistent>  (362) 
1

>  <s_lp_Variant>  (362) 
98:0-2

>  <s_i_glide_gridfile>  (362) 
pfpi4k_grid

>  <i_i_glide_lignum>  (362) 
10

>  <i_i_glide_rotatable_bonds>  (362) 
2

>  <r_i_docking_score>  (362) 
-4.29841

>  <r_i_glide_ligand_efficiency>  (362) 
-0.226232

>  <r_i_glide_ligand_efficiency_sa>  (362) 
-0.603679

>  <r_i_glide_ligand_efficiency_ln>  (362) 
-1.08974

>  <r_i_glide_gscore>  (362) 
-4.29841

>  <r_i_glide_lipo>  (362) 
-0.570362

>  <r_i_glide_hbond>  (362) 
-0.32

>  <r_i_glide_metal>  (362) 
-0

>  <r_i_glide_rewards>  (362) 
-1.95708

>  <r_i_glide_evdw>  (362) 
-18.4483

>  <r_i_glide_ecoul>  (362) 
-7.10076

>  <r_i_glide_erotb>  (362) 
0.536554

>  <r_i_glide_esite>  (362) 
0

>  <r_i_glide_emodel>  (362) 
-32.9945

>  <r_i_glide_energy>  (362) 
-25.549

>  <r_i_glide_einternal>  (362) 
1.10491

>  <r_i_glide_intrahb_reward>  (362) 
-0

>  <i_i_glide_confnum>  (362) 
3

>  <i_i_glide_posenum>  (362) 
5

>  <r_i_glide_eff_state_penalty>  (362) 
0

>  <ligand_id>  (362) 
98

>  <original_smiles>  (362) 
Cn1nnc(C2CC3CC2C2C(c4ncc[nH]4)C32)n1

>  <smiles>  (362) 
[H]c1nc(C2([H])C3([H])C4([H])C([H])([H])C([H])(c5nnn(C([H])([H])[H])n5)C([H])(C4([H])[H])C23[H])n([H])c1[H]

$$$$
98:1:2
     RDKit          3D

 35 39  0  0  1  0  0  0  0  0999 V2000
    1.5073   -8.6057    2.1223 C   0  0  0  0  0  0  0  0  0  0  0  0
    2.2906   -7.4290    1.8079 N   0  0  0  0  0  0  0  0  0  0  0  0
    1.7335   -6.3144    1.2866 N   0  0  0  0  0  0  0  0  0  0  0  0
    2.6887   -5.4442    1.2338 N   0  0  0  0  0  0  0  0  0  0  0  0
    3.8133   -6.0684    1.7056 C   0  0  0  0  0  0  0  0  0  0  0  0
    5.1800   -5.4331    1.7947 C   0  0  2  0  0  0  0  0  0  0  0  0
    5.2313   -4.0601    2.5224 C   0  0  0  0  0  0  0  0  0  0  0  0
    6.0139   -3.1828    1.5152 C   0  0  1  0  0  0  0  0  0  0  0  0
    7.0154   -4.2107    0.9794 C   0  0  0  0  0  0  0  0  0  0  0  0
    5.9121   -5.1399    0.4565 C   0  0  2  0  0  0  0  0  0  0  0  0
    5.0535   -4.2168   -0.4126 C   0  0  2  0  0  0  0  0  0  0  0  0
    5.5202   -2.9612   -1.1284 C   0  0  1  0  0  0  0  0  0  0  0  0
    4.6690   -2.3323   -2.1722 C   0  0  0  0  0  0  0  0  0  0  0  0
    4.2854   -2.9200   -3.2975 N   0  0  0  0  0  0  0  0  0  0  0  0
    3.4963   -1.9664   -3.9294 C   0  0  0  0  0  0  0  0  0  0  0  0
    3.4726   -0.8034   -3.1984 C   0  0  0  0  0  0  0  0  0  0  0  0
    4.2417   -1.0660   -2.0810 N   0  0  0  0  0  0  0  0  0  0  0  0
    5.1006   -2.9084    0.3275 C   0  0  2  0  0  0  0  0  0  0  0  0
    3.6057   -7.3250    2.0738 N   0  0  0  0  0  0  0  0  0  0  0  0
    4.4065   -0.4375   -1.3073 H   0  0  0  0  0  0  0  0  0  0  0  0
    0.4760   -8.3125    2.3291 H   0  0  0  0  0  0  0  0  0  0  0  0
    1.9129   -9.1138    3.0000 H   0  0  0  0  0  0  0  0  0  0  0  0
    1.5148   -9.2931    1.2799 H   0  0  0  0  0  0  0  0  0  0  0  0
    5.8113   -6.1212    2.3619 H   0  0  0  0  0  0  0  0  0  0  0  0
    4.2379   -3.6568    2.7288 H   0  0  0  0  0  0  0  0  0  0  0  0
    5.7669   -4.1431    3.4726 H   0  0  0  0  0  0  0  0  0  0  0  0
    6.4393   -2.2688    1.9316 H   0  0  0  0  0  0  0  0  0  0  0  0
    7.6682   -3.8225    0.1999 H   0  0  0  0  0  0  0  0  0  0  0  0
    7.6416   -4.6567    1.7588 H   0  0  0  0  0  0  0  0  0  0  0  0
    6.2508   -6.0284   -0.0754 H   0  0  0  0  0  0  0  0  0  0  0  0
    4.1003   -4.6143   -0.7472 H   0  0  0  0  0  0  0  0  0  0  0  0
    6.5651   -2.8804   -1.4153 H   0  0  0  0  0  0  0  0  0  0  0  0
    3.0167   -2.1892   -4.8612 H   0  0  0  0  0  0  0  0  0  0  0  0
    2.9737    0.1434   -3.3665 H   0  0  0  0  0  0  0  0  0  0  0  0
    4.1567   -2.4210    0.5640 H   0  0  0  0  0  0  0  0  0  0  0  0
  1  2  1  0
  1 21  1  0
  1 22  1  0
  1 23  1  0
  2 19  1  0
  2  3  1  0
  3  4  2  0
  4  5  1  0
  5  6  1  0
  5 19  2  0
  6 10  1  0
  6  7  1  0
  6 24  1  1
  7  8  1  0
  7 25  1  0
  7 26  1  0
  8 18  1  0
  8  9  1  0
  8 27  1  1
  9 10  1  0
  9 28  1  0
  9 29  1  0
 10 11  1  0
 10 30  1  6
 11 18  1  0
 11 12  1  0
 11 31  1  6
 12 13  1  0
 12 18  1  0
 12 32  1  1
 13 17  1  0
 13 14  2  0
 14 15  1  0
 15 16  2  0
 15 33  1  0
 16 17  1  0
 16 34  1  0
 17 20  1  0
 18 35  1  1
M  END
>  <i_m_ct_stereo_status>  (363) 
1

>  <s_m_source_file>  (363) 
/var/tmp/pbs.5076255.sched01/tmp54n2b71h/144k2pf1zoq.sdf

>  <i_m_source_file_index>  (363) 
10

>  <i_lp_mmshare_version>  (363) 
48012

>  <i_f3d_flags>  (363) 
0

>  <s_epik_input>  (363) 
W0NIM11uMW5uYyhuMSlbQ0BIXShbQ0gyXTIpW0NASF0oW0NIMl0zKVtDQEBIXShbQ0BIXTRbQ0BASF0yMylbQ0BIXTRjNW5bY0hdW2NIXVtuSF01

>  <s_epik_cmdline>  (363) 
J2VwaWtfcHl0aG9uJywgJy1waHQnLCAnMi4wJywgJy1waCcsICc3LjAnLCAnLXRuJywgJzgnLCAnLW1hJywgJzIwMCcsICctaW1hZScsICc8aW5maWxlLm1hZT4nLCAnLW9tYWUnLCAnPG91dGZpbGUubWFlPic=

>  <r_lp_tautomer_probability>  (363) 
0.5

>  <r_epik_Ionization_Penalty>  (363) 
0.622374

>  <r_epik_Ionization_Penalty_Charging>  (363) 
0.62237

>  <r_epik_Ionization_Penalty_Neutral>  (363) 
3.87978e-06

>  <r_epik_State_Penalty>  (363) 
0.638508

>  <r_epik_Charging_Adjusted_Penalty>  (363) 
1.26088

>  <i_epik_Tot_Q>  (363) 
0

>  <i_epik_Tot_abs_Q>  (363) 
0

>  <s_lp_Force_Field>  (363) 
OPLS3e

>  <r_lp_Energy>  (363) 
40.2903

>  <b_lp_Chiralities_Consistent>  (363) 
1

>  <s_lp_Variant>  (363) 
98:0-2

>  <s_i_glide_gridfile>  (363) 
pfpi4k_grid

>  <i_i_glide_lignum>  (363) 
10

>  <i_i_glide_rotatable_bonds>  (363) 
2

>  <r_i_docking_score>  (363) 
-3.45167

>  <r_i_glide_ligand_efficiency>  (363) 
-0.181667

>  <r_i_glide_ligand_efficiency_sa>  (363) 
-0.48476

>  <r_i_glide_ligand_efficiency_ln>  (363) 
-0.875072

>  <r_i_glide_gscore>  (363) 
-3.45167

>  <r_i_glide_lipo>  (363) 
-0.670048

>  <r_i_glide_hbond>  (363) 
0

>  <r_i_glide_metal>  (363) 
-0

>  <r_i_glide_rewards>  (363) 
-1.76953

>  <r_i_glide_evdw>  (363) 
-23.786

>  <r_i_glide_ecoul>  (363) 
-1.6645

>  <r_i_glide_erotb>  (363) 
0.536554

>  <r_i_glide_esite>  (363) 
-0.10967

>  <r_i_glide_emodel>  (363) 
-31.7266

>  <r_i_glide_energy>  (363) 
-25.4505

>  <r_i_glide_einternal>  (363) 
0.60803

>  <r_i_glide_intrahb_reward>  (363) 
-0

>  <i_i_glide_confnum>  (363) 
2

>  <i_i_glide_posenum>  (363) 
33

>  <r_i_glide_eff_state_penalty>  (363) 
0

>  <ligand_id>  (363) 
98

>  <original_smiles>  (363) 
Cn1nnc(C2CC3CC2C2C(c4ncc[nH]4)C32)n1

>  <smiles>  (363) 
[H]c1nc(C2([H])C3([H])C4([H])C([H])([H])C([H])(c5nnn(C([H])([H])[H])n5)C([H])(C4([H])[H])C23[H])n([H])c1[H]

$$$$
99:0:0
     RDKit          3D

 45 49  0  0  1  0  0  0  0  0999 V2000
    3.4341   -3.7410    2.1720 C   0  0  0  0  0  0  0  0  0  0  0  0
    2.8220   -2.6128    2.5883 C   0  0  0  0  0  0  0  0  0  0  0  0
    2.5242   -2.3319    4.0032 C   0  0  0  0  0  0  0  0  0  0  0  0
    2.0512   -3.2844    4.9357 C   0  0  0  0  0  0  0  0  0  0  0  0
    1.2659   -2.8494    6.0219 C   0  0  0  0  0  0  0  0  0  0  0  0
    0.8176   -1.5243    6.1058 C   0  0  0  0  0  0  0  0  0  0  0  0
   -0.2045   -1.2601    6.9971 O   0  0  0  0  0  0  0  0  0  0  0  0
   -0.0953   -0.0356    7.7096 C   0  0  0  0  0  0  0  0  0  0  0  0
    1.3739   -0.5276    5.2220 C   0  0  0  0  0  0  0  0  0  0  0  0
    2.4129   -0.9753    4.3786 C   0  0  0  0  0  0  0  0  0  0  0  0
    3.2349   -0.0241    3.4896 C   0  0  2  0  0  0  0  0  0  0  0  0
    4.7293   -0.3721    3.4285 C   0  0  0  0  0  0  0  0  0  0  0  0
    2.9624    0.8951    2.4046 O   0  0  0  0  0  0  0  0  0  0  0  0
    2.0870   -0.1430    2.4021 C   0  0  2  0  0  0  0  0  0  0  0  0
    0.7500    0.4330    2.8626 C   0  0  0  0  0  0  0  0  0  0  0  0
    0.0411    1.2936    2.1099 C   0  0  0  0  0  0  0  0  0  0  0  0
   -1.0382    2.1817    2.7230 C   0  0  0  0  0  0  0  0  0  0  0  0
   -0.6388    2.7530    4.1121 C   0  0  1  0  0  0  0  0  0  0  0  0
   -1.8927    3.0305    4.9846 C   0  0  0  0  0  0  0  0  0  0  0  0
    0.4450    1.9420    4.8425 C   0  0  0  0  0  0  0  0  0  0  0  0
    0.4747    0.4375    4.4073 C   0  0  2  0  0  0  0  0  0  0  0  0
    2.2779   -1.4979    1.6596 C   0  0  1  0  0  0  0  0  0  0  0  0
    2.9972   -1.3234    0.4833 O   0  0  0  0  0  0  0  0  0  0  0  0
    3.6196   -3.9385    1.1270 H   0  0  0  0  0  0  0  0  0  0  0  0
    3.7706   -4.4682    2.8916 H   0  0  0  0  0  0  0  0  0  0  0  0
    2.1663   -4.3393    4.7651 H   0  0  0  0  0  0  0  0  0  0  0  0
    0.8645   -3.5784    6.7060 H   0  0  0  0  0  0  0  0  0  0  0  0
   -0.9963    0.2561    8.2471 H   0  0  0  0  0  0  0  0  0  0  0  0
    0.0153    0.7732    7.0075 H   0  0  0  0  0  0  0  0  0  0  0  0
    0.8037    0.0285    8.3267 H   0  0  0  0  0  0  0  0  0  0  0  0
    5.1020   -0.7968    4.3618 H   0  0  0  0  0  0  0  0  0  0  0  0
    5.3099    0.5331    3.2348 H   0  0  0  0  0  0  0  0  0  0  0  0
    4.9572   -1.0574    2.6062 H   0  0  0  0  0  0  0  0  0  0  0  0
    0.2807    1.4976    1.0704 H   0  0  0  0  0  0  0  0  0  0  0  0
   -1.2725    3.0273    2.0745 H   0  0  0  0  0  0  0  0  0  0  0  0
   -1.9627    1.6070    2.8190 H   0  0  0  0  0  0  0  0  0  0  0  0
   -0.1539    3.7217    3.9661 H   0  0  0  0  0  0  0  0  0  0  0  0
   -2.4316    2.1080    5.2132 H   0  0  0  0  0  0  0  0  0  0  0  0
   -2.5883    3.6939    4.4667 H   0  0  0  0  0  0  0  0  0  0  0  0
   -1.6488    3.5025    5.9394 H   0  0  0  0  0  0  0  0  0  0  0  0
    1.4596    2.3155    4.7009 H   0  0  0  0  0  0  0  0  0  0  0  0
    0.2337    2.2078    5.8776 H   0  0  0  0  0  0  0  0  0  0  0  0
   -0.5381    0.0108    4.4595 H   0  0  0  0  0  0  0  0  0  0  0  0
    1.2763   -1.7971    1.3704 H   0  0  0  0  0  0  0  0  0  0  0  0
    2.4224   -1.0653   -0.1827 H   0  0  0  0  0  0  0  0  0  0  0  0
  1  2  2  0
  1 24  1  0
  1 25  1  0
  2 22  1  0
  2  3  1  0
  3 10  2  0
  3  4  1  0
  4  5  2  0
  4 26  1  0
  5  6  1  0
  5 27  1  0
  6  7  1  0
  6  9  2  0
  7  8  1  0
  8 28  1  0
  8 29  1  0
  8 30  1  0
  9 21  1  0
  9 10  1  0
 10 11  1  0
 11 14  1  0
 11 12  1  6
 11 13  1  0
 12 31  1  0
 12 32  1  0
 12 33  1  0
 14 13  1  6
 14 15  1  0
 14 22  1  0
 15 21  1  0
 15 16  2  0
 16 17  1  0
 16 34  1  0
 17 18  1  0
 17 35  1  0
 17 36  1  0
 18 19  1  0
 18 20  1  0
 18 37  1  6
 19 38  1  0
 19 39  1  0
 19 40  1  0
 20 21  1  0
 20 41  1  0
 20 42  1  0
 21 43  1  6
 22 23  1  0
 22 44  1  6
 23 45  1  0
M  END
>  <i_m_ct_stereo_status>  (364) 
1

>  <s_m_source_file>  (364) 
/var/tmp/pbs.5076255.sched01/tmp54n2b71h/144k2pf1zoq.sdf

>  <i_m_source_file_index>  (364) 
11

>  <i_lp_mmshare_version>  (364) 
48012

>  <i_f3d_flags>  (364) 
0

>  <s_epik_input>  (364) 
W0NIM11bQ0BAXShPMSkoW0NAXTEyMyljNGMoQyg9W0NIMl0pW0NAQEhdM1tPSF0pW2NIXVtjSF1jKE9bQ0gzXSljNFtDQEBIXTVDMj1bQ0hdW0NIMl1bQ0BASF0oW0NIM10pW0NIMl01

>  <s_epik_cmdline>  (364) 
J2VwaWtfcHl0aG9uJywgJy1waHQnLCAnMi4wJywgJy1waCcsICc3LjAnLCAnLXRuJywgJzgnLCAnLW1hJywgJzIwMCcsICctaW1hZScsICc8aW5maWxlLm1hZT4nLCAnLW9tYWUnLCAnPG91dGZpbGUubWFlPic=

>  <r_lp_tautomer_probability>  (364) 
1

>  <r_epik_Ionization_Penalty>  (364) 
6.76978e-07

>  <r_epik_Ionization_Penalty_Charging>  (364) 
0

>  <r_epik_Ionization_Penalty_Neutral>  (364) 
6.76978e-07

>  <r_epik_State_Penalty>  (364) 
-0

>  <r_epik_Charging_Adjusted_Penalty>  (364) 
0

>  <i_epik_Tot_Q>  (364) 
0

>  <i_epik_Tot_abs_Q>  (364) 
0

>  <s_lp_Force_Field>  (364) 
OPLS3e

>  <r_lp_Energy>  (364) 
134.828

>  <b_lp_Chiralities_Consistent>  (364) 
1

>  <s_lp_Variant>  (364) 
99:0-1

>  <s_i_glide_gridfile>  (364) 
pfpi4k_grid

>  <i_i_glide_lignum>  (364) 
11

>  <i_i_glide_rotatable_bonds>  (364) 
2

>  <r_i_docking_score>  (364) 
-2.78268

>  <r_i_glide_ligand_efficiency>  (364) 
-0.120986

>  <r_i_glide_ligand_efficiency_sa>  (364) 
-0.344068

>  <r_i_glide_ligand_efficiency_ln>  (364) 
-0.672877

>  <r_i_glide_gscore>  (364) 
-2.78268

>  <r_i_glide_lipo>  (364) 
-0.102823

>  <r_i_glide_hbond>  (364) 
0

>  <r_i_glide_metal>  (364) 
-0

>  <r_i_glide_rewards>  (364) 
-1.29282

>  <r_i_glide_evdw>  (364) 
-15.5848

>  <r_i_glide_ecoul>  (364) 
-4.052

>  <r_i_glide_erotb>  (364) 
0

>  <r_i_glide_esite>  (364) 
0

>  <r_i_glide_emodel>  (364) 
-19.405

>  <r_i_glide_energy>  (364) 
-19.6368

>  <r_i_glide_einternal>  (364) 
5.06371

>  <r_i_glide_intrahb_reward>  (364) 
-0

>  <i_i_glide_confnum>  (364) 
2

>  <i_i_glide_posenum>  (364) 
3

>  <r_i_glide_eff_state_penalty>  (364) 
0

>  <ligand_id>  (364) 
99

>  <original_smiles>  (364) 
C=C1c2ccc(OC)c3c2C2(C)OC2(C2=CCC(C)CC23)C1O

>  <smiles>  (364) 
[H]OC1([H])C(=C([H])[H])c2c([H])c([H])c(OC([H])([H])[H])c3c2C2(C([H])([H])[H])OC12C1=C([H])C([H])([H])C([H])(C([H])([H])[H])C([H])([H])C13[H]

$$$$
99:0:1
     RDKit          3D

 45 49  0  0  1  0  0  0  0  0999 V2000
    2.9803   -2.9983   -1.5665 C   0  0  0  0  0  0  0  0  0  0  0  0
    3.0306   -3.1529   -0.2221 C   0  0  0  0  0  0  0  0  0  0  0  0
    2.8756   -4.4634    0.4352 C   0  0  0  0  0  0  0  0  0  0  0  0
    1.9154   -5.4553    0.1023 C   0  0  0  0  0  0  0  0  0  0  0  0
    1.4372   -6.3419    1.0981 C   0  0  0  0  0  0  0  0  0  0  0  0
    1.7707   -6.1137    2.4611 C   0  0  0  0  0  0  0  0  0  0  0  0
    1.0687   -6.6627    3.5185 O   0  0  0  0  0  0  0  0  0  0  0  0
    0.1603   -7.7152    3.2406 C   0  0  0  0  0  0  0  0  0  0  0  0
    2.7940   -5.1894    2.7800 C   0  0  0  0  0  0  0  0  0  0  0  0
    3.4672   -4.5841    1.7023 C   0  0  0  0  0  0  0  0  0  0  0  0
    4.7105   -3.7111    1.8888 C   0  0  2  0  0  0  0  0  0  0  0  0
    5.7876   -3.9227    0.8269 C   0  0  0  0  0  0  0  0  0  0  0  0
    5.0296   -2.4655    2.5853 O   0  0  0  0  0  0  0  0  0  0  0  0
    3.7390   -2.5171    2.1644 C   0  0  2  0  0  0  0  0  0  0  0  0
    2.9107   -2.6465    3.4135 C   0  0  0  0  0  0  0  0  0  0  0  0
    2.8026   -1.6805    4.3504 C   0  0  0  0  0  0  0  0  0  0  0  0
    2.3378   -2.0030    5.7615 C   0  0  0  0  0  0  0  0  0  0  0  0
    2.8764   -3.3584    6.3015 C   0  0  1  0  0  0  0  0  0  0  0  0
    1.9438   -3.9341    7.3830 C   0  0  0  0  0  0  0  0  0  0  0  0
    3.2458   -4.3920    5.1951 C   0  0  0  0  0  0  0  0  0  0  0  0
    2.5811   -4.0879    3.8419 C   0  0  2  0  0  0  0  0  0  0  0  0
    3.1952   -2.0003    0.8033 C   0  0  1  0  0  0  0  0  0  0  0  0
    3.9761   -0.9469    0.2855 O   0  0  0  0  0  0  0  0  0  0  0  0
    3.0591   -2.0351   -2.0399 H   0  0  0  0  0  0  0  0  0  0  0  0
    2.8304   -3.8478   -2.2135 H   0  0  0  0  0  0  0  0  0  0  0  0
    1.4685   -5.4558   -0.8698 H   0  0  0  0  0  0  0  0  0  0  0  0
    0.6713   -7.0506    0.8062 H   0  0  0  0  0  0  0  0  0  0  0  0
   -0.2333   -8.0851    4.1864 H   0  0  0  0  0  0  0  0  0  0  0  0
    0.6520   -8.5471    2.7324 H   0  0  0  0  0  0  0  0  0  0  0  0
   -0.6848   -7.3726    2.6424 H   0  0  0  0  0  0  0  0  0  0  0  0
    5.8242   -4.9610    0.4940 H   0  0  0  0  0  0  0  0  0  0  0  0
    6.7590   -3.6733    1.2490 H   0  0  0  0  0  0  0  0  0  0  0  0
    5.6428   -3.2721   -0.0304 H   0  0  0  0  0  0  0  0  0  0  0  0
    3.1512   -0.6784    4.1673 H   0  0  0  0  0  0  0  0  0  0  0  0
    2.6299   -1.1997    6.4374 H   0  0  0  0  0  0  0  0  0  0  0  0
    1.2502   -2.0150    5.7571 H   0  0  0  0  0  0  0  0  0  0  0  0
    3.8119   -3.1404    6.8137 H   0  0  0  0  0  0  0  0  0  0  0  0
    0.9811   -4.2110    6.9579 H   0  0  0  0  0  0  0  0  0  0  0  0
    1.7595   -3.2044    8.1721 H   0  0  0  0  0  0  0  0  0  0  0  0
    2.3683   -4.8205    7.8556 H   0  0  0  0  0  0  0  0  0  0  0  0
    4.3333   -4.4021    5.0549 H   0  0  0  0  0  0  0  0  0  0  0  0
    2.9715   -5.3947    5.5277 H   0  0  0  0  0  0  0  0  0  0  0  0
    1.5103   -4.0771    4.0347 H   0  0  0  0  0  0  0  0  0  0  0  0
    2.1955   -1.6107    0.9969 H   0  0  0  0  0  0  0  0  0  0  0  0
    3.4643   -0.5296   -0.3946 H   0  0  0  0  0  0  0  0  0  0  0  0
  1  2  2  0
  1 24  1  0
  1 25  1  0
  2 22  1  0
  2  3  1  0
  3 10  2  0
  3  4  1  0
  4  5  2  0
  4 26  1  0
  5  6  1  0
  5 27  1  0
  6  7  1  0
  6  9  2  0
  7  8  1  0
  8 28  1  0
  8 29  1  0
  8 30  1  0
  9 21  1  0
  9 10  1  0
 10 11  1  0
 11 14  1  0
 11 12  1  6
 11 13  1  0
 12 31  1  0
 12 32  1  0
 12 33  1  0
 14 13  1  1
 14 15  1  0
 14 22  1  0
 15 21  1  0
 15 16  2  0
 16 17  1  0
 16 34  1  0
 17 18  1  0
 17 35  1  0
 17 36  1  0
 18 19  1  0
 18 20  1  0
 18 37  1  1
 19 38  1  0
 19 39  1  0
 19 40  1  0
 20 21  1  0
 20 41  1  0
 20 42  1  0
 21 43  1  1
 22 23  1  0
 22 44  1  1
 23 45  1  0
M  END
>  <i_m_ct_stereo_status>  (365) 
1

>  <s_m_source_file>  (365) 
/var/tmp/pbs.5076255.sched01/tmp54n2b71h/144k2pf1zoq.sdf

>  <i_m_source_file_index>  (365) 
11

>  <i_lp_mmshare_version>  (365) 
48012

>  <i_f3d_flags>  (365) 
0

>  <s_epik_input>  (365) 
W0NIM11bQ0BAXShPMSkoW0NAXTEyMyljNGMoQyg9W0NIMl0pW0NAQEhdM1tPSF0pW2NIXVtjSF1jKE9bQ0gzXSljNFtDQEBIXTVDMj1bQ0hdW0NIMl1bQ0BASF0oW0NIM10pW0NIMl01

>  <s_epik_cmdline>  (365) 
J2VwaWtfcHl0aG9uJywgJy1waHQnLCAnMi4wJywgJy1waCcsICc3LjAnLCAnLXRuJywgJzgnLCAnLW1hJywgJzIwMCcsICctaW1hZScsICc8aW5maWxlLm1hZT4nLCAnLW9tYWUnLCAnPG91dGZpbGUubWFlPic=

>  <r_lp_tautomer_probability>  (365) 
1

>  <r_epik_Ionization_Penalty>  (365) 
6.76978e-07

>  <r_epik_Ionization_Penalty_Charging>  (365) 
0

>  <r_epik_Ionization_Penalty_Neutral>  (365) 
6.76978e-07

>  <r_epik_State_Penalty>  (365) 
-0

>  <r_epik_Charging_Adjusted_Penalty>  (365) 
0

>  <i_epik_Tot_Q>  (365) 
0

>  <i_epik_Tot_abs_Q>  (365) 
0

>  <s_lp_Force_Field>  (365) 
OPLS3e

>  <r_lp_Energy>  (365) 
134.828

>  <b_lp_Chiralities_Consistent>  (365) 
1

>  <s_lp_Variant>  (365) 
99:0-1

>  <s_i_glide_gridfile>  (365) 
pfpi4k_grid

>  <i_i_glide_lignum>  (365) 
11

>  <i_i_glide_rotatable_bonds>  (365) 
2

>  <r_i_docking_score>  (365) 
-2.44839

>  <r_i_glide_ligand_efficiency>  (365) 
-0.106452

>  <r_i_glide_ligand_efficiency_sa>  (365) 
-0.302735

>  <r_i_glide_ligand_efficiency_ln>  (365) 
-0.592044

>  <r_i_glide_gscore>  (365) 
-2.44839

>  <r_i_glide_lipo>  (365) 
-0.102604

>  <r_i_glide_hbond>  (365) 
0

>  <r_i_glide_metal>  (365) 
-0

>  <r_i_glide_rewards>  (365) 
-1.29282

>  <r_i_glide_evdw>  (365) 
-15.8808

>  <r_i_glide_ecoul>  (365) 
-1.72622

>  <r_i_glide_erotb>  (365) 
0

>  <r_i_glide_esite>  (365) 
0

>  <r_i_glide_emodel>  (365) 
-20.722

>  <r_i_glide_energy>  (365) 
-17.607

>  <r_i_glide_einternal>  (365) 
0.429352

>  <r_i_glide_intrahb_reward>  (365) 
-0

>  <i_i_glide_confnum>  (365) 
2

>  <i_i_glide_posenum>  (365) 
8

>  <r_i_glide_eff_state_penalty>  (365) 
0

>  <ligand_id>  (365) 
99

>  <original_smiles>  (365) 
C=C1c2ccc(OC)c3c2C2(C)OC2(C2=CCC(C)CC23)C1O

>  <smiles>  (365) 
[H]OC1([H])C(=C([H])[H])c2c([H])c([H])c(OC([H])([H])[H])c3c2C2(C([H])([H])[H])OC12C1=C([H])C([H])([H])C([H])(C([H])([H])[H])C([H])([H])C13[H]

$$$$
99:0:2
     RDKit          3D

 45 49  0  0  1  0  0  0  0  0999 V2000
    5.2006    1.0474    6.9759 C   0  0  0  0  0  0  0  0  0  0  0  0
    3.9671    1.4804    6.6436 C   0  0  0  0  0  0  0  0  0  0  0  0
    2.7612    0.7793    7.0479 C   0  0  0  0  0  0  0  0  0  0  0  0
    2.5496   -0.6310    6.9934 C   0  0  0  0  0  0  0  0  0  0  0  0
    1.2556   -1.1607    6.8065 C   0  0  0  0  0  0  0  0  0  0  0  0
    0.1785   -0.2880    6.4758 C   0  0  0  0  0  0  0  0  0  0  0  0
   -1.0171   -0.7146    5.9458 O   0  0  0  0  0  0  0  0  0  0  0  0
   -1.1743   -2.1001    5.6806 C   0  0  0  0  0  0  0  0  0  0  0  0
    0.3512    1.1091    6.6094 C   0  0  0  0  0  0  0  0  0  0  0  0
    1.5801    1.5546    7.1458 C   0  0  0  0  0  0  0  0  0  0  0  0
    1.8407    3.0089    7.5346 C   0  0  2  0  0  0  0  0  0  0  0  0
    2.6382    3.1812    8.8071 C   0  0  0  0  0  0  0  0  0  0  0  0
    1.8852    4.2995    6.8245 O   0  0  0  0  0  0  0  0  0  0  0  0
    2.2142    3.2444    6.0089 C   0  0  2  0  0  0  0  0  0  0  0  0
    1.0718    3.0911    5.0527 C   0  0  0  0  0  0  0  0  0  0  0  0
    0.7481    3.9894    4.1068 C   0  0  0  0  0  0  0  0  0  0  0  0
   -0.6298    3.9949    3.4649 C   0  0  0  0  0  0  0  0  0  0  0  0
   -1.7768    3.6586    4.4480 C   0  0  1  0  0  0  0  0  0  0  0  0
   -2.9866    3.0828    3.7089 C   0  0  0  0  0  0  0  0  0  0  0  0
   -1.3491    2.8192    5.6928 C   0  0  0  0  0  0  0  0  0  0  0  0
   -0.0017    2.0863    5.4722 C   0  0  2  0  0  0  0  0  0  0  0  0
    3.6563    2.7300    5.7697 C   0  0  1  0  0  0  0  0  0  0  0  0
    4.6262    3.7487    5.9421 O   0  0  0  0  0  0  0  0  0  0  0  0
    6.1002    1.5576    6.6624 H   0  0  0  0  0  0  0  0  0  0  0  0
    5.3252    0.1546    7.5774 H   0  0  0  0  0  0  0  0  0  0  0  0
    3.4018   -1.2894    6.9957 H   0  0  0  0  0  0  0  0  0  0  0  0
    1.1741   -2.2297    6.7196 H   0  0  0  0  0  0  0  0  0  0  0  0
   -2.1835   -2.2548    5.3020 H   0  0  0  0  0  0  0  0  0  0  0  0
   -1.0724   -2.6963    6.5853 H   0  0  0  0  0  0  0  0  0  0  0  0
   -0.4762   -2.4591    4.9239 H   0  0  0  0  0  0  0  0  0  0  0  0
    2.4096    2.4083    9.5308 H   0  0  0  0  0  0  0  0  0  0  0  0
    2.3918    4.1459    9.2576 H   0  0  0  0  0  0  0  0  0  0  0  0
    3.7134    3.1942    8.6217 H   0  0  0  0  0  0  0  0  0  0  0  0
    1.4057    4.8079    3.8535 H   0  0  0  0  0  0  0  0  0  0  0  0
   -0.8086    4.9597    2.9870 H   0  0  0  0  0  0  0  0  0  0  0  0
   -0.6118    3.2563    2.6573 H   0  0  0  0  0  0  0  0  0  0  0  0
   -2.1203    4.6054    4.8708 H   0  0  0  0  0  0  0  0  0  0  0  0
   -2.7357    2.1195    3.2705 H   0  0  0  0  0  0  0  0  0  0  0  0
   -3.3037    3.7280    2.8884 H   0  0  0  0  0  0  0  0  0  0  0  0
   -3.8446    2.9451    4.3631 H   0  0  0  0  0  0  0  0  0  0  0  0
   -1.2408    3.4737    6.5512 H   0  0  0  0  0  0  0  0  0  0  0  0
   -2.1337    2.1009    5.9372 H   0  0  0  0  0  0  0  0  0  0  0  0
   -0.1592    1.4510    4.5958 H   0  0  0  0  0  0  0  0  0  0  0  0
    3.7004    2.3878    4.7292 H   0  0  0  0  0  0  0  0  0  0  0  0
    4.5155    4.1191    6.7914 H   0  0  0  0  0  0  0  0  0  0  0  0
  1  2  2  0
  1 24  1  0
  1 25  1  0
  2 22  1  0
  2  3  1  0
  3 10  2  0
  3  4  1  0
  4  5  2  0
  4 26  1  0
  5  6  1  0
  5 27  1  0
  6  7  1  0
  6  9  2  0
  7  8  1  0
  8 28  1  0
  8 29  1  0
  8 30  1  0
  9 21  1  0
  9 10  1  0
 10 11  1  0
 11 14  1  0
 11 12  1  1
 11 13  1  0
 12 31  1  0
 12 32  1  0
 12 33  1  0
 14 13  1  1
 14 15  1  0
 14 22  1  0
 15 21  1  0
 15 16  2  0
 16 17  1  0
 16 34  1  0
 17 18  1  0
 17 35  1  0
 17 36  1  0
 18 19  1  0
 18 20  1  0
 18 37  1  1
 19 38  1  0
 19 39  1  0
 19 40  1  0
 20 21  1  0
 20 41  1  0
 20 42  1  0
 21 43  1  6
 22 23  1  0
 22 44  1  6
 23 45  1  0
M  END
>  <i_m_ct_stereo_status>  (366) 
1

>  <s_m_source_file>  (366) 
/var/tmp/pbs.5076255.sched01/tmp54n2b71h/144k2pf1zoq.sdf

>  <i_m_source_file_index>  (366) 
11

>  <i_lp_mmshare_version>  (366) 
48012

>  <i_f3d_flags>  (366) 
0

>  <s_epik_input>  (366) 
W0NIM11bQ0BAXShPMSkoW0NAXTEyMyljNGMoQyg9W0NIMl0pW0NAQEhdM1tPSF0pW2NIXVtjSF1jKE9bQ0gzXSljNFtDQEBIXTVDMj1bQ0hdW0NIMl1bQ0BASF0oW0NIM10pW0NIMl01

>  <s_epik_cmdline>  (366) 
J2VwaWtfcHl0aG9uJywgJy1waHQnLCAnMi4wJywgJy1waCcsICc3LjAnLCAnLXRuJywgJzgnLCAnLW1hJywgJzIwMCcsICctaW1hZScsICc8aW5maWxlLm1hZT4nLCAnLW9tYWUnLCAnPG91dGZpbGUubWFlPic=

>  <r_lp_tautomer_probability>  (366) 
1

>  <r_epik_Ionization_Penalty>  (366) 
6.76978e-07

>  <r_epik_Ionization_Penalty_Charging>  (366) 
0

>  <r_epik_Ionization_Penalty_Neutral>  (366) 
6.76978e-07

>  <r_epik_State_Penalty>  (366) 
-0

>  <r_epik_Charging_Adjusted_Penalty>  (366) 
0

>  <i_epik_Tot_Q>  (366) 
0

>  <i_epik_Tot_abs_Q>  (366) 
0

>  <s_lp_Force_Field>  (366) 
OPLS3e

>  <r_lp_Energy>  (366) 
134.828

>  <b_lp_Chiralities_Consistent>  (366) 
1

>  <s_lp_Variant>  (366) 
99:0-1

>  <s_i_glide_gridfile>  (366) 
pfpi4k_grid

>  <i_i_glide_lignum>  (366) 
11

>  <i_i_glide_rotatable_bonds>  (366) 
2

>  <r_i_docking_score>  (366) 
-2.15385

>  <r_i_glide_ligand_efficiency>  (366) 
-0.0936457

>  <r_i_glide_ligand_efficiency_sa>  (366) 
-0.266316

>  <r_i_glide_ligand_efficiency_ln>  (366) 
-0.520821

>  <r_i_glide_gscore>  (366) 
-2.15385

>  <r_i_glide_lipo>  (366) 
-0.0172897

>  <r_i_glide_hbond>  (366) 
-0.00013481

>  <r_i_glide_metal>  (366) 
-0

>  <r_i_glide_rewards>  (366) 
-1.29282

>  <r_i_glide_evdw>  (366) 
-13.2743

>  <r_i_glide_ecoul>  (366) 
-1.19931

>  <r_i_glide_erotb>  (366) 
0

>  <r_i_glide_esite>  (366) 
0

>  <r_i_glide_emodel>  (366) 
-17.3183

>  <r_i_glide_energy>  (366) 
-14.4736

>  <r_i_glide_einternal>  (366) 
0.106354

>  <r_i_glide_intrahb_reward>  (366) 
-0

>  <i_i_glide_confnum>  (366) 
1

>  <i_i_glide_posenum>  (366) 
2

>  <r_i_glide_eff_state_penalty>  (366) 
0

>  <ligand_id>  (366) 
99

>  <original_smiles>  (366) 
C=C1c2ccc(OC)c3c2C2(C)OC2(C2=CCC(C)CC23)C1O

>  <smiles>  (366) 
[H]OC1([H])C(=C([H])[H])c2c([H])c([H])c(OC([H])([H])[H])c3c2C2(C([H])([H])[H])OC12C1=C([H])C([H])([H])C([H])(C([H])([H])[H])C([H])([H])C13[H]

$$$$
100:0:0
     RDKit          3D

 45 50  0  0  1  0  0  0  0  0999 V2000
   -0.7630    1.6428    9.7938 O   0  0  0  0  0  0  0  0  0  0  0  0
   -1.0859    1.8927    8.4904 C   0  0  0  0  0  0  0  0  0  0  0  0
   -2.2205    2.6859    8.1754 C   0  0  0  0  0  0  0  0  0  0  0  0
   -2.5594    2.9758    6.8275 C   0  0  0  0  0  0  0  0  0  0  0  0
   -1.7698    2.4790    5.7750 C   0  0  0  0  0  0  0  0  0  0  0  0
   -0.6809    1.6876    6.1648 C   0  0  0  0  0  0  0  0  0  0  0  0
   -0.2945    1.3575    7.4528 C   0  0  0  0  0  0  0  0  0  0  0  0
    0.8393    0.5877    7.4994 O   0  0  0  0  0  0  0  0  0  0  0  0
    0.9951    0.1176    6.1530 C   0  0  2  0  0  0  0  0  0  0  0  0
    2.3773   -0.2944    5.7396 C   0  0  0  0  0  0  0  0  0  0  0  0
    2.5691   -0.9577    4.5883 C   0  0  0  0  0  0  0  0  0  0  0  0
    1.4410   -1.3423    3.6315 C   0  0  0  0  0  0  0  0  0  0  0  0
    0.6890   -0.1447    2.9924 C   0  0  0  0  0  0  0  0  0  0  0  0
   -0.2916    0.6935    3.9062 C   0  0  2  0  0  0  0  0  0  0  0  0
   -1.4051   -0.1515    4.1505 O   0  0  0  0  0  0  0  0  0  0  0  0
   -0.7627    2.0953    3.3511 C   0  0  1  0  0  0  0  0  0  0  0  0
   -1.8808    2.7203    4.2580 C   0  0  0  0  0  0  0  0  0  0  0  0
    0.6033    2.7958    3.4570 C   0  0  1  0  0  0  0  0  0  0  0  0
    0.9576    4.1983    3.2851 N   0  0  0  0  0  0  0  0  0  0  0  0
    2.3703    4.1944    3.7803 C   0  0  0  0  0  0  0  0  0  0  0  0
    2.5743    2.8569    4.5938 C   0  0  0  0  0  0  0  0  0  0  0  0
    1.1143    2.4973    4.8336 C   0  0  2  0  0  0  0  0  0  0  0  0
    0.3667    1.1791    5.2222 C   0  0  1  0  0  0  0  0  0  0  0  0
   -1.3182    2.0724   10.4297 H   0  0  0  0  0  0  0  0  0  0  0  0
   -2.8191    3.1003    8.9716 H   0  0  0  0  0  0  0  0  0  0  0  0
   -3.3992    3.6095    6.6071 H   0  0  0  0  0  0  0  0  0  0  0  0
    0.3815   -0.7853    6.1191 H   0  0  0  0  0  0  0  0  0  0  0  0
    3.1925   -0.0589    6.4054 H   0  0  0  0  0  0  0  0  0  0  0  0
    3.5679   -1.2676    4.3121 H   0  0  0  0  0  0  0  0  0  0  0  0
    1.9059   -1.9213    2.8314 H   0  0  0  0  0  0  0  0  0  0  0  0
    0.7484   -2.0279    4.1215 H   0  0  0  0  0  0  0  0  0  0  0  0
    1.4683    0.4370    2.5134 H   0  0  0  0  0  0  0  0  0  0  0  0
    0.1245   -0.5276    2.1483 H   0  0  0  0  0  0  0  0  0  0  0  0
   -2.1313    0.1503    3.6176 H   0  0  0  0  0  0  0  0  0  0  0  0
   -1.1003    2.0476    2.3142 H   0  0  0  0  0  0  0  0  0  0  0  0
   -2.8401    2.2979    3.9571 H   0  0  0  0  0  0  0  0  0  0  0  0
   -1.9532    3.7920    4.0824 H   0  0  0  0  0  0  0  0  0  0  0  0
    1.2018    2.3780    2.6543 H   0  0  0  0  0  0  0  0  0  0  0  0
    0.8557    4.4674    2.2962 H   0  0  0  0  0  0  0  0  0  0  0  0
    3.0764    4.2406    2.9512 H   0  0  0  0  0  0  0  0  0  0  0  0
    2.5537    5.0665    4.4095 H   0  0  0  0  0  0  0  0  0  0  0  0
    3.0891    2.1001    3.9929 H   0  0  0  0  0  0  0  0  0  0  0  0
    3.1275    2.9991    5.5261 H   0  0  0  0  0  0  0  0  0  0  0  0
    0.8057    3.2822    5.5316 H   0  0  0  0  0  0  0  0  0  0  0  0
    0.3986    4.7871    3.8713 H   0  0  0  0  0  0  0  0  0  0  0  0
  1  2  1  0
  1 24  1  0
  2  7  2  0
  2  3  1  0
  3  4  2  0
  3 25  1  0
  4  5  1  0
  4 26  1  0
  5 17  1  0
  5  6  2  0
 23  6  1  1
  6  7  1  0
  7  8  1  0
  8  9  1  0
  9 23  1  0
  9 10  1  0
  9 27  1  1
 10 11  2  0
 10 28  1  0
 11 12  1  0
 11 29  1  0
 12 13  1  0
 12 30  1  0
 12 31  1  0
 13 14  1  0
 13 32  1  0
 13 33  1  0
 14 23  1  0
 14 15  1  1
 14 16  1  0
 15 34  1  0
 16 17  1  0
 16 18  1  0
 16 35  1  6
 17 36  1  0
 17 37  1  0
 18 22  1  0
 18 19  1  0
 18 38  1  6
 19 20  1  0
 19 39  1  0
 19 45  1  0
 20 21  1  0
 20 40  1  0
 20 41  1  0
 21 22  1  0
 21 42  1  0
 21 43  1  0
 22 23  1  0
 22 44  1  1
M  CHG  1  19   1
M  END
>  <i_m_ct_stereo_status>  (367) 
1

>  <s_m_source_file>  (367) 
/var/tmp/pbs.5076255.sched01/tmp54n2b71h/144k2pf1zoq.sdf

>  <i_m_source_file_index>  (367) 
12

>  <i_lp_mmshare_version>  (367) 
48012

>  <i_f3d_flags>  (367) 
0

>  <s_epik_input>  (367) 
W0NAXTEyM2M0YzVbY0hdW2NIXWMoW09IXSljNE9bQ0BASF0xW0NIXT1bQ0hdW0NIMl1bQ0gyXVtDQF0yKFtPSF0pW0NAQEhdKFtDSDJdNSlbQ0BASF02W0NAQEhdM1tDSDJdW0NIMl1bTkhdNg==

>  <s_epik_cmdline>  (367) 
J2VwaWtfcHl0aG9uJywgJy1waHQnLCAnMi4wJywgJy1waCcsICc3LjAnLCAnLXRuJywgJzgnLCAnLW1hJywgJzIwMCcsICctaW1hZScsICc8aW5maWxlLm1hZT4nLCAnLW9tYWUnLCAnPG91dGZpbGUubWFlPic=

>  <r_lp_tautomer_probability>  (367) 
1

>  <r_epik_Ionization_Penalty>  (367) 
0.00315702

>  <r_epik_Ionization_Penalty_Charging>  (367) 
8.9968e-05

>  <r_epik_Ionization_Penalty_Neutral>  (367) 
0.00306705

>  <r_epik_State_Penalty>  (367) 
0.00215656

>  <r_epik_Charging_Adjusted_Penalty>  (367) 
0.00224653

>  <i_epik_Tot_Q>  (367) 
1

>  <i_epik_Tot_abs_Q>  (367) 
1

>  <s_lp_Force_Field>  (367) 
OPLS3e

>  <r_lp_Energy>  (367) 
96.6612

>  <b_lp_Chiralities_Consistent>  (367) 
1

>  <s_lp_Variant>  (367) 
100:0-1

>  <s_i_glide_gridfile>  (367) 
pfpi4k_grid

>  <i_i_glide_lignum>  (367) 
12

>  <i_i_glide_rotatable_bonds>  (367) 
2

>  <r_i_docking_score>  (367) 
-4.39524

>  <r_i_glide_ligand_efficiency>  (367) 
-0.191097

>  <r_i_glide_ligand_efficiency_sa>  (367) 
-0.543455

>  <r_i_glide_ligand_efficiency_ln>  (367) 
-1.06281

>  <r_i_glide_gscore>  (367) 
-4.39524

>  <r_i_glide_lipo>  (367) 
-0.193909

>  <r_i_glide_hbond>  (367) 
-0.502164

>  <r_i_glide_metal>  (367) 
-0

>  <r_i_glide_rewards>  (367) 
-1.27921

>  <r_i_glide_evdw>  (367) 
-20.0473

>  <r_i_glide_ecoul>  (367) 
-8.78396

>  <r_i_glide_erotb>  (367) 
0

>  <r_i_glide_esite>  (367) 
-0.1

>  <r_i_glide_emodel>  (367) 
-38.5517

>  <r_i_glide_energy>  (367) 
-28.8312

>  <r_i_glide_einternal>  (367) 
1.11591

>  <r_i_glide_intrahb_reward>  (367) 
-0

>  <i_i_glide_confnum>  (367) 
1

>  <i_i_glide_posenum>  (367) 
14

>  <r_i_glide_eff_state_penalty>  (367) 
0

>  <ligand_id>  (367) 
100

>  <original_smiles>  (367) 
Oc1ccc2c3c1OC1C=CCCC4(O)C(C2)C2NCCC2C314

>  <smiles>  (367) 
[H]Oc1c([H])c([H])c2c3c1OC1([H])C([H])=C([H])C([H])([H])C([H])([H])C4(O[H])C([H])(C2([H])[H])C2([H])C([H])(C([H])([H])C([H])([H])[N+]2([H])[H])C314

$$$$
100:0:1
     RDKit          3D

 45 50  0  0  1  0  0  0  0  0999 V2000
   -2.3026    3.5212    8.0369 O   0  0  0  0  0  0  0  0  0  0  0  0
   -1.7977    3.1080    6.8399 C   0  0  0  0  0  0  0  0  0  0  0  0
   -2.6535    2.9540    5.7209 C   0  0  0  0  0  0  0  0  0  0  0  0
   -2.1687    2.5380    4.4575 C   0  0  0  0  0  0  0  0  0  0  0  0
   -0.7908    2.2822    4.2977 C   0  0  0  0  0  0  0  0  0  0  0  0
   -0.0060    2.4348    5.4519 C   0  0  0  0  0  0  0  0  0  0  0  0
   -0.4210    2.8280    6.7090 C   0  0  0  0  0  0  0  0  0  0  0  0
    0.5948    2.9245    7.6198 O   0  0  0  0  0  0  0  0  0  0  0  0
    1.6805    2.2237    6.9940 C   0  0  2  0  0  0  0  0  0  0  0  0
    3.0622    2.5857    7.4504 C   0  0  0  0  0  0  0  0  0  0  0  0
    4.1115    1.8295    7.0918 C   0  0  0  0  0  0  0  0  0  0  0  0
    3.9962    0.5785    6.2220 C   0  0  0  0  0  0  0  0  0  0  0  0
    3.4899    0.8254    4.7752 C   0  0  0  0  0  0  0  0  0  0  0  0
    1.9656    1.1842    4.5671 C   0  0  2  0  0  0  0  0  0  0  0  0
    1.2622   -0.0242    4.8120 O   0  0  0  0  0  0  0  0  0  0  0  0
    1.5528    1.7808    3.1652 C   0  0  1  0  0  0  0  0  0  0  0  0
   -0.0094    1.8902    3.0335 C   0  0  0  0  0  0  0  0  0  0  0  0
    2.2680    3.1359    3.3241 C   0  0  1  0  0  0  0  0  0  0  0  0
    2.2217    4.3320    2.4921 N   0  0  0  0  0  0  0  0  0  0  0  0
    2.9145    5.3156    3.3889 C   0  0  0  0  0  0  0  0  0  0  0  0
    2.9726    4.6860    4.8368 C   0  0  0  0  0  0  0  0  0  0  0  0
    1.8746    3.6485    4.6808 C   0  0  2  0  0  0  0  0  0  0  0  0
    1.4877    2.3530    5.4658 C   0  0  1  0  0  0  0  0  0  0  0  0
   -1.6434    3.6078    8.7115 H   0  0  0  0  0  0  0  0  0  0  0  0
   -3.7038    3.1632    5.8468 H   0  0  0  0  0  0  0  0  0  0  0  0
   -2.8523    2.4303    3.6220 H   0  0  0  0  0  0  0  0  0  0  0  0
    1.5202    1.1827    7.2820 H   0  0  0  0  0  0  0  0  0  0  0  0
    3.1674    3.4465    8.0918 H   0  0  0  0  0  0  0  0  0  0  0  0
    5.0992    2.0837    7.4505 H   0  0  0  0  0  0  0  0  0  0  0  0
    5.0009    0.1548    6.1696 H   0  0  0  0  0  0  0  0  0  0  0  0
    3.3895   -0.1739    6.7273 H   0  0  0  0  0  0  0  0  0  0  0  0
    4.1848    1.5568    4.3738 H   0  0  0  0  0  0  0  0  0  0  0  0
    3.7011   -0.0705    4.1974 H   0  0  0  0  0  0  0  0  0  0  0  0
    1.5710   -0.6781    4.2042 H   0  0  0  0  0  0  0  0  0  0  0  0
    1.9680    1.2181    2.3266 H   0  0  0  0  0  0  0  0  0  0  0  0
   -0.3867    0.9175    2.7216 H   0  0  0  0  0  0  0  0  0  0  0  0
   -0.2662    2.5775    2.2325 H   0  0  0  0  0  0  0  0  0  0  0  0
    3.3277    2.9133    3.2416 H   0  0  0  0  0  0  0  0  0  0  0  0
    2.6965    4.2157    1.6137 H   0  0  0  0  0  0  0  0  0  0  0  0
    3.9253    5.4950    3.0229 H   0  0  0  0  0  0  0  0  0  0  0  0
    2.4044    6.2797    3.3846 H   0  0  0  0  0  0  0  0  0  0  0  0
    3.9454    4.2281    5.0369 H   0  0  0  0  0  0  0  0  0  0  0  0
    2.7617    5.4163    5.6201 H   0  0  0  0  0  0  0  0  0  0  0  0
    0.9853    4.2834    4.6008 H   0  0  0  0  0  0  0  0  0  0  0  0
    1.2551    4.5945    2.3129 H   0  0  0  0  0  0  0  0  0  0  0  0
  1  2  1  0
  1 24  1  0
  2  7  2  0
  2  3  1  0
  3  4  2  0
  3 25  1  0
  4  5  1  0
  4 26  1  0
  5 17  1  0
  5  6  2  0
 23  6  1  1
  6  7  1  0
  7  8  1  0
  8  9  1  0
  9 23  1  0
  9 10  1  0
  9 27  1  6
 10 11  2  0
 10 28  1  0
 11 12  1  0
 11 29  1  0
 12 13  1  0
 12 30  1  0
 12 31  1  0
 13 14  1  0
 13 32  1  0
 13 33  1  0
 14 23  1  0
 14 15  1  1
 14 16  1  0
 15 34  1  0
 16 17  1  0
 16 18  1  0
 16 35  1  6
 17 36  1  0
 17 37  1  0
 18 22  1  0
 18 19  1  0
 18 38  1  1
 19 20  1  0
 19 39  1  0
 19 45  1  0
 20 21  1  0
 20 40  1  0
 20 41  1  0
 21 22  1  0
 21 42  1  0
 21 43  1  0
 22 23  1  0
 22 44  1  6
M  CHG  1  19   1
M  END
>  <i_m_ct_stereo_status>  (368) 
1

>  <s_m_source_file>  (368) 
/var/tmp/pbs.5076255.sched01/tmp54n2b71h/144k2pf1zoq.sdf

>  <i_m_source_file_index>  (368) 
12

>  <i_lp_mmshare_version>  (368) 
48012

>  <i_f3d_flags>  (368) 
0

>  <s_epik_input>  (368) 
W0NAXTEyM2M0YzVbY0hdW2NIXWMoW09IXSljNE9bQ0BASF0xW0NIXT1bQ0hdW0NIMl1bQ0gyXVtDQF0yKFtPSF0pW0NAQEhdKFtDSDJdNSlbQ0BASF02W0NAQEhdM1tDSDJdW0NIMl1bTkhdNg==

>  <s_epik_cmdline>  (368) 
J2VwaWtfcHl0aG9uJywgJy1waHQnLCAnMi4wJywgJy1waCcsICc3LjAnLCAnLXRuJywgJzgnLCAnLW1hJywgJzIwMCcsICctaW1hZScsICc8aW5maWxlLm1hZT4nLCAnLW9tYWUnLCAnPG91dGZpbGUubWFlPic=

>  <r_lp_tautomer_probability>  (368) 
1

>  <r_epik_Ionization_Penalty>  (368) 
0.00315702

>  <r_epik_Ionization_Penalty_Charging>  (368) 
8.9968e-05

>  <r_epik_Ionization_Penalty_Neutral>  (368) 
0.00306705

>  <r_epik_State_Penalty>  (368) 
0.00215656

>  <r_epik_Charging_Adjusted_Penalty>  (368) 
0.00224653

>  <i_epik_Tot_Q>  (368) 
1

>  <i_epik_Tot_abs_Q>  (368) 
1

>  <s_lp_Force_Field>  (368) 
OPLS3e

>  <r_lp_Energy>  (368) 
96.6612

>  <b_lp_Chiralities_Consistent>  (368) 
1

>  <s_lp_Variant>  (368) 
100:0-1

>  <s_i_glide_gridfile>  (368) 
pfpi4k_grid

>  <i_i_glide_lignum>  (368) 
12

>  <i_i_glide_rotatable_bonds>  (368) 
2

>  <r_i_docking_score>  (368) 
-3.55825

>  <r_i_glide_ligand_efficiency>  (368) 
-0.154706

>  <r_i_glide_ligand_efficiency_sa>  (368) 
-0.439965

>  <r_i_glide_ligand_efficiency_ln>  (368) 
-0.860417

>  <r_i_glide_gscore>  (368) 
-3.55825

>  <r_i_glide_lipo>  (368) 
-0.172636

>  <r_i_glide_hbond>  (368) 
-0.127029

>  <r_i_glide_metal>  (368) 
-0

>  <r_i_glide_rewards>  (368) 
-1.27921

>  <r_i_glide_evdw>  (368) 
-18.341

>  <r_i_glide_ecoul>  (368) 
-6.43858

>  <r_i_glide_erotb>  (368) 
0

>  <r_i_glide_esite>  (368) 
-0.0965414

>  <r_i_glide_emodel>  (368) 
-33.3162

>  <r_i_glide_energy>  (368) 
-24.7795

>  <r_i_glide_einternal>  (368) 
0.00268913

>  <r_i_glide_intrahb_reward>  (368) 
-0

>  <i_i_glide_confnum>  (368) 
1

>  <i_i_glide_posenum>  (368) 
30

>  <r_i_glide_eff_state_penalty>  (368) 
0

>  <ligand_id>  (368) 
100

>  <original_smiles>  (368) 
Oc1ccc2c3c1OC1C=CCCC4(O)C(C2)C2NCCC2C314

>  <smiles>  (368) 
[H]Oc1c([H])c([H])c2c3c1OC1([H])C([H])=C([H])C([H])([H])C([H])([H])C4(O[H])C([H])(C2([H])[H])C2([H])C([H])(C([H])([H])C([H])([H])[N+]2([H])[H])C314

$$$$
100:0:2
     RDKit          3D

 45 50  0  0  1  0  0  0  0  0999 V2000
   -2.2514    3.5988    8.0826 O   0  0  0  0  0  0  0  0  0  0  0  0
   -1.7347    3.1750    6.8922 C   0  0  0  0  0  0  0  0  0  0  0  0
   -2.5852    2.9524    5.7784 C   0  0  0  0  0  0  0  0  0  0  0  0
   -2.0827    2.5104    4.5266 C   0  0  0  0  0  0  0  0  0  0  0  0
   -0.6969    2.3042    4.3731 C   0  0  0  0  0  0  0  0  0  0  0  0
    0.0826    2.5275    5.5193 C   0  0  0  0  0  0  0  0  0  0  0  0
   -0.3476    2.9469    6.7649 C   0  0  0  0  0  0  0  0  0  0  0  0
    0.6693    3.1146    7.6656 O   0  0  0  0  0  0  0  0  0  0  0  0
    1.7832    2.4394    7.0614 C   0  0  2  0  0  0  0  0  0  0  0  0
    3.1506    2.8742    7.5003 C   0  0  0  0  0  0  0  0  0  0  0  0
    4.2309    2.1523    7.1629 C   0  0  0  0  0  0  0  0  0  0  0  0
    4.1648    0.8708    6.3338 C   0  0  0  0  0  0  0  0  0  0  0  0
    3.6444    1.0530    4.8823 C   0  0  0  0  0  0  0  0  0  0  0  0
    2.1072    1.3355    4.6710 C   0  0  2  0  0  0  0  0  0  0  0  0
    1.4716    0.0979    4.9558 O   0  0  0  0  0  0  0  0  0  0  0  0
    1.6661    1.8696    3.2504 C   0  0  1  0  0  0  0  0  0  0  0  0
    0.1027    1.9112    3.1183 C   0  0  0  0  0  0  0  0  0  0  0  0
    2.3217    3.2597    3.3648 C   0  0  1  0  0  0  0  0  0  0  0  0
    2.2200    4.4252    2.4953 N   0  0  0  0  0  0  0  0  0  0  0  0
    2.8749    5.4622    3.3551 C   0  0  0  0  0  0  0  0  0  0  0  0
    2.9632    4.8846    4.8237 C   0  0  0  0  0  0  0  0  0  0  0  0
    1.9082    3.7969    4.7052 C   0  0  2  0  0  0  0  0  0  0  0  0
    1.5793    2.5099    5.5316 C   0  0  1  0  0  0  0  0  0  0  0  0
   -3.1875    3.7192    8.0851 H   0  0  0  0  0  0  0  0  0  0  0  0
   -3.6423    3.1158    5.8878 H   0  0  0  0  0  0  0  0  0  0  0  0
   -2.7605    2.3489    3.6984 H   0  0  0  0  0  0  0  0  0  0  0  0
    1.6711    1.4021    7.3832 H   0  0  0  0  0  0  0  0  0  0  0  0
    3.2200    3.7577    8.1144 H   0  0  0  0  0  0  0  0  0  0  0  0
    5.2096    2.4564    7.5097 H   0  0  0  0  0  0  0  0  0  0  0  0
    5.1851    0.4854    6.2881 H   0  0  0  0  0  0  0  0  0  0  0  0
    3.5898    0.1098    6.8627 H   0  0  0  0  0  0  0  0  0  0  0  0
    4.3076    1.7974    4.4540 H   0  0  0  0  0  0  0  0  0  0  0  0
    3.8829    0.1454    4.3325 H   0  0  0  0  0  0  0  0  0  0  0  0
    0.5530    0.1737    4.7486 H   0  0  0  0  0  0  0  0  0  0  0  0
    2.1056    1.2994    2.4311 H   0  0  0  0  0  0  0  0  0  0  0  0
   -0.2354    0.9158    2.8304 H   0  0  0  0  0  0  0  0  0  0  0  0
   -0.1833    2.5686    2.2993 H   0  0  0  0  0  0  0  0  0  0  0  0
    3.3899    3.0810    3.2869 H   0  0  0  0  0  0  0  0  0  0  0  0
    2.6985    4.2999    1.6247 H   0  0  0  0  0  0  0  0  0  0  0  0
    3.8800    5.6719    2.9842 H   0  0  0  0  0  0  0  0  0  0  0  0
    2.3262    6.4052    3.3248 H   0  0  0  0  0  0  0  0  0  0  0  0
    3.9561    4.4738    5.0338 H   0  0  0  0  0  0  0  0  0  0  0  0
    2.7249    5.6315    5.5848 H   0  0  0  0  0  0  0  0  0  0  0  0
    0.9931    4.3925    4.6088 H   0  0  0  0  0  0  0  0  0  0  0  0
    1.2383    4.6464    2.3080 H   0  0  0  0  0  0  0  0  0  0  0  0
  1  2  1  0
  1 24  1  0
  2  7  2  0
  2  3  1  0
  3  4  2  0
  3 25  1  0
  4  5  1  0
  4 26  1  0
  5 17  1  0
  5  6  2  0
 23  6  1  1
  6  7  1  0
  7  8  1  0
  8  9  1  0
  9 23  1  0
  9 10  1  0
  9 27  1  1
 10 11  2  0
 10 28  1  0
 11 12  1  0
 11 29  1  0
 12 13  1  0
 12 30  1  0
 12 31  1  0
 13 14  1  0
 13 32  1  0
 13 33  1  0
 14 23  1  0
 14 15  1  1
 14 16  1  0
 15 34  1  0
 16 17  1  0
 16 18  1  0
 16 35  1  6
 17 36  1  0
 17 37  1  0
 18 22  1  0
 18 19  1  0
 18 38  1  1
 19 20  1  0
 19 39  1  0
 19 45  1  0
 20 21  1  0
 20 40  1  0
 20 41  1  0
 21 22  1  0
 21 42  1  0
 21 43  1  0
 22 23  1  0
 22 44  1  6
M  CHG  1  19   1
M  END
>  <i_m_ct_stereo_status>  (369) 
1

>  <s_m_source_file>  (369) 
/var/tmp/pbs.5076255.sched01/tmp54n2b71h/144k2pf1zoq.sdf

>  <i_m_source_file_index>  (369) 
12

>  <i_lp_mmshare_version>  (369) 
48012

>  <i_f3d_flags>  (369) 
0

>  <s_epik_input>  (369) 
W0NAXTEyM2M0YzVbY0hdW2NIXWMoW09IXSljNE9bQ0BASF0xW0NIXT1bQ0hdW0NIMl1bQ0gyXVtDQF0yKFtPSF0pW0NAQEhdKFtDSDJdNSlbQ0BASF02W0NAQEhdM1tDSDJdW0NIMl1bTkhdNg==

>  <s_epik_cmdline>  (369) 
J2VwaWtfcHl0aG9uJywgJy1waHQnLCAnMi4wJywgJy1waCcsICc3LjAnLCAnLXRuJywgJzgnLCAnLW1hJywgJzIwMCcsICctaW1hZScsICc8aW5maWxlLm1hZT4nLCAnLW9tYWUnLCAnPG91dGZpbGUubWFlPic=

>  <r_lp_tautomer_probability>  (369) 
1

>  <r_epik_Ionization_Penalty>  (369) 
0.00315702

>  <r_epik_Ionization_Penalty_Charging>  (369) 
8.9968e-05

>  <r_epik_Ionization_Penalty_Neutral>  (369) 
0.00306705

>  <r_epik_State_Penalty>  (369) 
0.00215656

>  <r_epik_Charging_Adjusted_Penalty>  (369) 
0.00224653

>  <i_epik_Tot_Q>  (369) 
1

>  <i_epik_Tot_abs_Q>  (369) 
1

>  <s_lp_Force_Field>  (369) 
OPLS3e

>  <r_lp_Energy>  (369) 
96.6612

>  <b_lp_Chiralities_Consistent>  (369) 
1

>  <s_lp_Variant>  (369) 
100:0-1

>  <s_i_glide_gridfile>  (369) 
pfpi4k_grid

>  <i_i_glide_lignum>  (369) 
12

>  <i_i_glide_rotatable_bonds>  (369) 
2

>  <r_i_docking_score>  (369) 
-3.3959

>  <r_i_glide_ligand_efficiency>  (369) 
-0.147648

>  <r_i_glide_ligand_efficiency_sa>  (369) 
-0.419891

>  <r_i_glide_ligand_efficiency_ln>  (369) 
-0.821161

>  <r_i_glide_gscore>  (369) 
-3.3959

>  <r_i_glide_lipo>  (369) 
-0.168997

>  <r_i_glide_hbond>  (369) 
-0.128257

>  <r_i_glide_metal>  (369) 
-0

>  <r_i_glide_rewards>  (369) 
-1.27921

>  <r_i_glide_evdw>  (369) 
-18.4781

>  <r_i_glide_ecoul>  (369) 
-5.32172

>  <r_i_glide_erotb>  (369) 
0

>  <r_i_glide_esite>  (369) 
-0.0972801

>  <r_i_glide_emodel>  (369) 
-31.8701

>  <r_i_glide_energy>  (369) 
-23.7998

>  <r_i_glide_einternal>  (369) 
0.128608

>  <r_i_glide_intrahb_reward>  (369) 
-0

>  <i_i_glide_confnum>  (369) 
1

>  <i_i_glide_posenum>  (369) 
2

>  <r_i_glide_eff_state_penalty>  (369) 
0

>  <ligand_id>  (369) 
100

>  <original_smiles>  (369) 
Oc1ccc2c3c1OC1C=CCCC4(O)C(C2)C2NCCC2C314

>  <smiles>  (369) 
[H]Oc1c([H])c([H])c2c3c1OC1([H])C([H])=C([H])C([H])([H])C([H])([H])C4(O[H])C([H])(C2([H])[H])C2([H])C([H])(C([H])([H])C([H])([H])[N+]2([H])[H])C314

$$$$
102:0:0
     RDKit          3D

 24 27  0  0  1  0  0  0  0  0999 V2000
    4.1654   -1.4907   -2.0640 C   0  0  0  0  0  0  0  0  0  0  0  0
    4.5310   -2.6733   -1.1887 C   0  0  0  0  0  0  0  0  0  0  0  0
    3.5345   -3.5250   -0.7325 C   0  0  0  0  0  0  0  0  0  0  0  0
    3.9650   -4.5950    0.0789 C   0  0  0  0  0  0  0  0  0  0  0  0
    5.2589   -4.7711    0.3806 C   0  0  0  0  0  0  0  0  0  0  0  0
    6.2654   -3.9769   -0.0310 N   0  0  0  0  0  0  0  0  0  0  0  0
    7.5840   -4.0435    0.2003 N   0  0  0  0  0  0  0  0  0  0  0  0
    8.0440   -3.0167   -0.4580 N   0  0  0  0  0  0  0  0  0  0  0  0
    7.0264   -2.2877   -1.1029 N   0  0  0  0  0  0  0  0  0  0  0  0
    5.8979   -2.9403   -0.8091 C   0  0  0  0  0  0  0  0  0  0  0  0
    5.2270   -6.0128    1.2312 C   0  0  2  0  0  0  0  0  0  0  0  0
    4.2283   -6.9588    0.5087 C   0  0  0  0  0  0  0  0  0  0  0  0
    3.3061   -5.7467    0.7752 C   0  0  1  0  0  0  0  0  0  0  0  0
    3.9945   -5.8163    2.1573 C   0  0  0  0  0  0  0  0  0  0  0  0
    3.0866   -1.4534   -2.2358 H   0  0  0  0  0  0  0  0  0  0  0  0
    4.6561   -1.5576   -3.0375 H   0  0  0  0  0  0  0  0  0  0  0  0
    4.4535   -0.5504   -1.5900 H   0  0  0  0  0  0  0  0  0  0  0  0
    2.4874   -3.3817   -0.9895 H   0  0  0  0  0  0  0  0  0  0  0  0
    6.1417   -6.4361    1.6544 H   0  0  0  0  0  0  0  0  0  0  0  0
    4.4573   -7.1177   -0.5461 H   0  0  0  0  0  0  0  0  0  0  0  0
    3.9658   -7.8945    1.0109 H   0  0  0  0  0  0  0  0  0  0  0  0
    2.2300   -5.8775    0.7110 H   0  0  0  0  0  0  0  0  0  0  0  0
    3.7132   -6.6519    2.8042 H   0  0  0  0  0  0  0  0  0  0  0  0
    3.9975   -4.8697    2.7001 H   0  0  0  0  0  0  0  0  0  0  0  0
  1  2  1  0
  1 15  1  0
  1 16  1  0
  1 17  1  0
  2 10  1  0
  2  3  2  0
  3  4  1  0
  3 18  1  0
  4 13  1  0
  4  5  2  0
  5  6  1  0
  5 11  1  0
  6 10  1  0
  6  7  1  0
  7  8  2  0
  8  9  1  0
  9 10  2  0
 11 14  1  0
 11 12  1  0
 11 19  1  1
 12 13  1  0
 12 20  1  0
 12 21  1  0
 13 14  1  0
 13 22  1  1
 14 23  1  0
 14 24  1  0
M  END
>  <i_m_ct_stereo_status>  (370) 
1

>  <s_m_source_file>  (370) 
/var/tmp/pbs.5076255.sched01/tmp54n2b71h/144k2pf1zoq.sdf

>  <i_m_source_file_index>  (370) 
14

>  <i_lp_mmshare_version>  (370) 
48012

>  <i_f3d_flags>  (370) 
0

>  <s_epik_input>  (370) 
bjFubmMoYyhbQ0gzXSlbY0hdMiluMWMoYzIzKVtDQEBIXTRbQ0gyXVtDQEhdM1tDSDJdNA==

>  <s_epik_cmdline>  (370) 
J2VwaWtfcHl0aG9uJywgJy1waHQnLCAnMi4wJywgJy1waCcsICc3LjAnLCAnLXRuJywgJzgnLCAnLW1hJywgJzIwMCcsICctaW1hZScsICc8aW5maWxlLm1hZT4nLCAnLW9tYWUnLCAnPG91dGZpbGUubWFlPic=

>  <r_lp_tautomer_probability>  (370) 
1

>  <r_epik_Ionization_Penalty>  (370) 
3.72087e-06

>  <r_epik_Ionization_Penalty_Charging>  (370) 
0

>  <r_epik_Ionization_Penalty_Neutral>  (370) 
3.72087e-06

>  <r_epik_State_Penalty>  (370) 
-0

>  <r_epik_Charging_Adjusted_Penalty>  (370) 
0

>  <i_epik_Tot_Q>  (370) 
0

>  <i_epik_Tot_abs_Q>  (370) 
0

>  <s_lp_Force_Field>  (370) 
OPLS3e

>  <r_lp_Energy>  (370) 
48.04

>  <b_lp_Chiralities_Consistent>  (370) 
1

>  <s_lp_Variant>  (370) 
102:0-1

>  <s_i_glide_gridfile>  (370) 
pfpi4k_grid

>  <i_i_glide_lignum>  (370) 
14

>  <i_i_glide_rotatable_bonds>  (370) 
0

>  <r_i_docking_score>  (370) 
-4.00652

>  <r_i_glide_ligand_efficiency>  (370) 
-0.28618

>  <r_i_glide_ligand_efficiency_sa>  (370) 
-0.689734

>  <r_i_glide_ligand_efficiency_ln>  (370) 
-1.10098

>  <r_i_glide_gscore>  (370) 
-4.00652

>  <r_i_glide_lipo>  (370) 
-0.356867

>  <r_i_glide_hbond>  (370) 
0

>  <r_i_glide_metal>  (370) 
-0

>  <r_i_glide_rewards>  (370) 
-2.26892

>  <r_i_glide_evdw>  (370) 
-17.6184

>  <r_i_glide_ecoul>  (370) 
-2.86624

>  <r_i_glide_erotb>  (370) 
0

>  <r_i_glide_esite>  (370) 
-0.0698696

>  <r_i_glide_emodel>  (370) 
-26.2509

>  <r_i_glide_energy>  (370) 
-20.4847

>  <r_i_glide_einternal>  (370) 
0

>  <r_i_glide_intrahb_reward>  (370) 
-0

>  <i_i_glide_confnum>  (370) 
2

>  <i_i_glide_posenum>  (370) 
13

>  <r_i_glide_eff_state_penalty>  (370) 
0

>  <ligand_id>  (370) 
102

>  <original_smiles>  (370) 
Cc1cc2c(n3nnnc13)C1CC2C1

>  <smiles>  (370) 
[H]c1c2c(n3nnnc3c1C([H])([H])[H])C1([H])C([H])([H])C2([H])C1([H])[H]

$$$$
102:0:1
     RDKit          3D

 24 27  0  0  1  0  0  0  0  0999 V2000
    3.3671   -4.2815    1.9118 C   0  0  0  0  0  0  0  0  0  0  0  0
    3.6840   -3.6429    0.5712 C   0  0  0  0  0  0  0  0  0  0  0  0
    2.7522   -3.6961   -0.4513 C   0  0  0  0  0  0  0  0  0  0  0  0
    3.1048   -3.0670   -1.6567 C   0  0  0  0  0  0  0  0  0  0  0  0
    4.2959   -2.4810   -1.8089 C   0  0  0  0  0  0  0  0  0  0  0  0
    5.2521   -2.4138   -0.8653 N   0  0  0  0  0  0  0  0  0  0  0  0
    6.4706   -1.8650   -0.9001 N   0  0  0  0  0  0  0  0  0  0  0  0
    6.9228   -2.0969    0.2983 N   0  0  0  0  0  0  0  0  0  0  0  0
    6.0028   -2.7957    1.0983 N   0  0  0  0  0  0  0  0  0  0  0  0
    4.9386   -2.9835    0.3155 C   0  0  0  0  0  0  0  0  0  0  0  0
    4.2214   -1.9988   -3.2334 C   0  0  2  0  0  0  0  0  0  0  0  0
    2.7950   -1.4197   -3.3803 C   0  0  0  0  0  0  0  0  0  0  0  0
    2.4592   -2.8760   -2.9939 C   0  0  1  0  0  0  0  0  0  0  0  0
    3.5749   -3.1689   -4.0201 C   0  0  0  0  0  0  0  0  0  0  0  0
    2.3697   -4.7268    1.9089 H   0  0  0  0  0  0  0  0  0  0  0  0
    3.3943   -3.5375    2.7097 H   0  0  0  0  0  0  0  0  0  0  0  0
    4.0824   -5.0719    2.1443 H   0  0  0  0  0  0  0  0  0  0  0  0
    1.8130   -4.2099   -0.3454 H   0  0  0  0  0  0  0  0  0  0  0  0
    5.0197   -1.4321   -3.6966 H   0  0  0  0  0  0  0  0  0  0  0  0
    2.5487   -0.6820   -2.6151 H   0  0  0  0  0  0  0  0  0  0  0  0
    2.4937   -1.0888   -4.3775 H   0  0  0  0  0  0  0  0  0  0  0  0
    1.4561   -3.2455   -3.1776 H   0  0  0  0  0  0  0  0  0  0  0  0
    3.3249   -2.9882   -5.0649 H   0  0  0  0  0  0  0  0  0  0  0  0
    4.0751   -4.1290   -3.8821 H   0  0  0  0  0  0  0  0  0  0  0  0
  1  2  1  0
  1 15  1  0
  1 16  1  0
  1 17  1  0
  2 10  1  0
  2  3  2  0
  3  4  1  0
  3 18  1  0
  4 13  1  0
  4  5  2  0
  5  6  1  0
  5 11  1  0
  6 10  1  0
  6  7  1  0
  7  8  2  0
  8  9  1  0
  9 10  2  0
 11 14  1  0
 11 12  1  0
 11 19  1  6
 12 13  1  0
 12 20  1  0
 12 21  1  0
 13 14  1  0
 13 22  1  6
 14 23  1  0
 14 24  1  0
M  END
>  <i_m_ct_stereo_status>  (371) 
1

>  <s_m_source_file>  (371) 
/var/tmp/pbs.5076255.sched01/tmp54n2b71h/144k2pf1zoq.sdf

>  <i_m_source_file_index>  (371) 
14

>  <i_lp_mmshare_version>  (371) 
48012

>  <i_f3d_flags>  (371) 
0

>  <s_epik_input>  (371) 
bjFubmMoYyhbQ0gzXSlbY0hdMiluMWMoYzIzKVtDQEBIXTRbQ0gyXVtDQEhdM1tDSDJdNA==

>  <s_epik_cmdline>  (371) 
J2VwaWtfcHl0aG9uJywgJy1waHQnLCAnMi4wJywgJy1waCcsICc3LjAnLCAnLXRuJywgJzgnLCAnLW1hJywgJzIwMCcsICctaW1hZScsICc8aW5maWxlLm1hZT4nLCAnLW9tYWUnLCAnPG91dGZpbGUubWFlPic=

>  <r_lp_tautomer_probability>  (371) 
1

>  <r_epik_Ionization_Penalty>  (371) 
3.72087e-06

>  <r_epik_Ionization_Penalty_Charging>  (371) 
0

>  <r_epik_Ionization_Penalty_Neutral>  (371) 
3.72087e-06

>  <r_epik_State_Penalty>  (371) 
-0

>  <r_epik_Charging_Adjusted_Penalty>  (371) 
0

>  <i_epik_Tot_Q>  (371) 
0

>  <i_epik_Tot_abs_Q>  (371) 
0

>  <s_lp_Force_Field>  (371) 
OPLS3e

>  <r_lp_Energy>  (371) 
48.04

>  <b_lp_Chiralities_Consistent>  (371) 
1

>  <s_lp_Variant>  (371) 
102:0-1

>  <s_i_glide_gridfile>  (371) 
pfpi4k_grid

>  <i_i_glide_lignum>  (371) 
14

>  <i_i_glide_rotatable_bonds>  (371) 
0

>  <r_i_docking_score>  (371) 
-3.7427

>  <r_i_glide_ligand_efficiency>  (371) 
-0.267336

>  <r_i_glide_ligand_efficiency_sa>  (371) 
-0.644317

>  <r_i_glide_ligand_efficiency_ln>  (371) 
-1.02848

>  <r_i_glide_gscore>  (371) 
-3.7427

>  <r_i_glide_lipo>  (371) 
-0.344231

>  <r_i_glide_hbond>  (371) 
0

>  <r_i_glide_metal>  (371) 
-0

>  <r_i_glide_rewards>  (371) 
-2.1728

>  <r_i_glide_evdw>  (371) 
-17.9733

>  <r_i_glide_ecoul>  (371) 
-1.64361

>  <r_i_glide_erotb>  (371) 
0

>  <r_i_glide_esite>  (371) 
-0.080455

>  <r_i_glide_emodel>  (371) 
-24.9684

>  <r_i_glide_energy>  (371) 
-19.6169

>  <r_i_glide_einternal>  (371) 
0

>  <r_i_glide_intrahb_reward>  (371) 
-0

>  <i_i_glide_confnum>  (371) 
1

>  <i_i_glide_posenum>  (371) 
18

>  <r_i_glide_eff_state_penalty>  (371) 
0

>  <ligand_id>  (371) 
102

>  <original_smiles>  (371) 
Cc1cc2c(n3nnnc13)C1CC2C1

>  <smiles>  (371) 
[H]c1c2c(n3nnnc3c1C([H])([H])[H])C1([H])C([H])([H])C2([H])C1([H])[H]

$$$$
102:0:2
     RDKit          3D

 24 27  0  0  1  0  0  0  0  0999 V2000
    2.4721   -4.5676    1.0495 C   0  0  0  0  0  0  0  0  0  0  0  0
    3.0202   -3.5163    0.1024 C   0  0  0  0  0  0  0  0  0  0  0  0
    2.5753   -3.4704   -1.2132 C   0  0  0  0  0  0  0  0  0  0  0  0
    3.1575   -2.4891   -2.0319 C   0  0  0  0  0  0  0  0  0  0  0  0
    4.0690   -1.6310   -1.5532 C   0  0  0  0  0  0  0  0  0  0  0  0
    4.5263   -1.6121   -0.2884 N   0  0  0  0  0  0  0  0  0  0  0  0
    5.4373   -0.8256    0.2980 N   0  0  0  0  0  0  0  0  0  0  0  0
    5.4751   -1.2851    1.5151 N   0  0  0  0  0  0  0  0  0  0  0  0
    4.6013   -2.3703    1.7090 N   0  0  0  0  0  0  0  0  0  0  0  0
    4.0066   -2.5509    0.5276 C   0  0  0  0  0  0  0  0  0  0  0  0
    4.3638   -0.7764   -2.7532 C   0  0  2  0  0  0  0  0  0  0  0  0
    2.9846   -0.5111   -3.4084 C   0  0  0  0  0  0  0  0  0  0  0  0
    3.0108   -2.0549   -3.4569 C   0  0  1  0  0  0  0  0  0  0  0  0
    4.4537   -1.7822   -3.9311 C   0  0  0  0  0  0  0  0  0  0  0  0
    1.7512   -5.2096    0.5403 H   0  0  0  0  0  0  0  0  0  0  0  0
    1.9690   -4.0980    1.8966 H   0  0  0  0  0  0  0  0  0  0  0  0
    3.2665   -5.2123    1.4285 H   0  0  0  0  0  0  0  0  0  0  0  0
    1.8258   -4.1592   -1.5996 H   0  0  0  0  0  0  0  0  0  0  0  0
    5.0672    0.0526   -2.6913 H   0  0  0  0  0  0  0  0  0  0  0  0
    2.2367   -0.1101   -2.7234 H   0  0  0  0  0  0  0  0  0  0  0  0
    2.9750    0.0145   -4.3673 H   0  0  0  0  0  0  0  0  0  0  0  0
    2.3199   -2.5741   -4.1153 H   0  0  0  0  0  0  0  0  0  0  0  0
    4.5642   -1.3617   -4.9316 H   0  0  0  0  0  0  0  0  0  0  0  0
    5.1353   -2.6152   -3.7556 H   0  0  0  0  0  0  0  0  0  0  0  0
  1  2  1  0
  1 15  1  0
  1 16  1  0
  1 17  1  0
  2 10  1  0
  2  3  2  0
  3  4  1  0
  3 18  1  0
  4 13  1  0
  4  5  2  0
  5  6  1  0
  5 11  1  0
  6 10  1  0
  6  7  1  0
  7  8  2  0
  8  9  1  0
  9 10  2  0
 11 14  1  0
 11 12  1  0
 11 19  1  1
 12 13  1  0
 12 20  1  0
 12 21  1  0
 13 14  1  0
 13 22  1  6
 14 23  1  0
 14 24  1  0
M  END
>  <i_m_ct_stereo_status>  (372) 
1

>  <s_m_source_file>  (372) 
/var/tmp/pbs.5076255.sched01/tmp54n2b71h/144k2pf1zoq.sdf

>  <i_m_source_file_index>  (372) 
14

>  <i_lp_mmshare_version>  (372) 
48012

>  <i_f3d_flags>  (372) 
0

>  <s_epik_input>  (372) 
bjFubmMoYyhbQ0gzXSlbY0hdMiluMWMoYzIzKVtDQEBIXTRbQ0gyXVtDQEhdM1tDSDJdNA==

>  <s_epik_cmdline>  (372) 
J2VwaWtfcHl0aG9uJywgJy1waHQnLCAnMi4wJywgJy1waCcsICc3LjAnLCAnLXRuJywgJzgnLCAnLW1hJywgJzIwMCcsICctaW1hZScsICc8aW5maWxlLm1hZT4nLCAnLW9tYWUnLCAnPG91dGZpbGUubWFlPic=

>  <r_lp_tautomer_probability>  (372) 
1

>  <r_epik_Ionization_Penalty>  (372) 
3.72087e-06

>  <r_epik_Ionization_Penalty_Charging>  (372) 
0

>  <r_epik_Ionization_Penalty_Neutral>  (372) 
3.72087e-06

>  <r_epik_State_Penalty>  (372) 
-0

>  <r_epik_Charging_Adjusted_Penalty>  (372) 
0

>  <i_epik_Tot_Q>  (372) 
0

>  <i_epik_Tot_abs_Q>  (372) 
0

>  <s_lp_Force_Field>  (372) 
OPLS3e

>  <r_lp_Energy>  (372) 
48.04

>  <b_lp_Chiralities_Consistent>  (372) 
1

>  <s_lp_Variant>  (372) 
102:0-1

>  <s_i_glide_gridfile>  (372) 
pfpi4k_grid

>  <i_i_glide_lignum>  (372) 
14

>  <i_i_glide_rotatable_bonds>  (372) 
0

>  <r_i_docking_score>  (372) 
-3.57417

>  <r_i_glide_ligand_efficiency>  (372) 
-0.255298

>  <r_i_glide_ligand_efficiency_sa>  (372) 
-0.615304

>  <r_i_glide_ligand_efficiency_ln>  (372) 
-0.982169

>  <r_i_glide_gscore>  (372) 
-3.57417

>  <r_i_glide_lipo>  (372) 
-0.405703

>  <r_i_glide_hbond>  (372) 
0

>  <r_i_glide_metal>  (372) 
-0

>  <r_i_glide_rewards>  (372) 
-2.13946

>  <r_i_glide_evdw>  (372) 
-19.2569

>  <r_i_glide_ecoul>  (372) 
-0.217626

>  <r_i_glide_erotb>  (372) 
0

>  <r_i_glide_esite>  (372) 
-0.0335233

>  <r_i_glide_emodel>  (372) 
-24.6052

>  <r_i_glide_energy>  (372) 
-19.4745

>  <r_i_glide_einternal>  (372) 
0

>  <r_i_glide_intrahb_reward>  (372) 
-0

>  <i_i_glide_confnum>  (372) 
1

>  <i_i_glide_posenum>  (372) 
23

>  <r_i_glide_eff_state_penalty>  (372) 
0

>  <ligand_id>  (372) 
102

>  <original_smiles>  (372) 
Cc1cc2c(n3nnnc13)C1CC2C1

>  <smiles>  (372) 
[H]c1c2c(n3nnnc3c1C([H])([H])[H])C1([H])C([H])([H])C2([H])C1([H])[H]

$$$$
103:0:0
     RDKit          3D

 28 30  0  0  1  0  0  0  0  0999 V2000
    3.7986   -0.4376   -3.8920 C   0  0  0  0  0  0  0  0  0  0  0  0
    4.0592   -1.1216   -2.9140 C   0  0  0  0  0  0  0  0  0  0  0  0
    4.3489   -1.9471   -1.7230 C   0  0  1  0  0  0  0  0  0  0  0  0
    4.3186   -1.0760   -0.4389 C   0  0  0  0  0  0  0  0  0  0  0  0
    4.6317   -1.9326    0.8040 C   0  0  2  0  0  0  0  0  0  0  0  0
    6.0338   -2.5547    0.6523 C   0  0  0  0  0  0  0  0  0  0  0  0
    6.0558   -3.4550   -0.6007 C   0  0  1  0  0  0  0  0  0  0  0  0
    4.9984   -4.5706   -0.4615 C   0  0  0  0  0  0  0  0  0  0  0  0
    3.6021   -3.9288   -0.3219 C   0  0  1  0  0  0  0  0  0  0  0  0
    3.5649   -3.0390    0.9368 C   0  0  0  0  0  0  0  0  0  0  0  0
    3.2927   -3.0727   -1.5715 C   0  0  0  0  0  0  0  0  0  0  0  0
    5.7475   -2.6054   -1.8518 C   0  0  0  0  0  0  0  0  0  0  0  0
    3.5493    0.1664   -4.7373 H   0  0  0  0  0  0  0  0  0  0  0  0
    5.0307   -0.2567   -0.5051 H   0  0  0  0  0  0  0  0  0  0  0  0
    3.3308   -0.6312   -0.3121 H   0  0  0  0  0  0  0  0  0  0  0  0
    4.6109   -1.3038    1.6946 H   0  0  0  0  0  0  0  0  0  0  0  0
    6.7853   -1.7693    0.5641 H   0  0  0  0  0  0  0  0  0  0  0  0
    6.2980   -3.1291    1.5408 H   0  0  0  0  0  0  0  0  0  0  0  0
    7.0468   -3.8991   -0.7052 H   0  0  0  0  0  0  0  0  0  0  0  0
    5.0193   -5.2236   -1.3367 H   0  0  0  0  0  0  0  0  0  0  0  0
    5.2191   -5.2003    0.4028 H   0  0  0  0  0  0  0  0  0  0  0  0
    2.8557   -4.7181   -0.2305 H   0  0  0  0  0  0  0  0  0  0  0  0
    3.7366   -3.6359    1.8325 H   0  0  0  0  0  0  0  0  0  0  0  0
    2.5759   -2.5924    1.0461 H   0  0  0  0  0  0  0  0  0  0  0  0
    2.2858   -2.6534   -1.4912 H   0  0  0  0  0  0  0  0  0  0  0  0
    3.2863   -3.7153   -2.4563 H   0  0  0  0  0  0  0  0  0  0  0  0
    5.7965   -3.2360   -2.7432 H   0  0  0  0  0  0  0  0  0  0  0  0
    6.5240   -1.8488   -1.9682 H   0  0  0  0  0  0  0  0  0  0  0  0
  1  2  3  0
  1 13  1  0
  3  2  1  6
  3 11  1  0
  3 12  1  0
  3  4  1  0
  4  5  1  0
  4 14  1  0
  4 15  1  0
  5 10  1  0
  5  6  1  0
  5 16  1  1
  6  7  1  0
  6 17  1  0
  6 18  1  0
  7  8  1  0
  7 12  1  0
  7 19  1  6
  8  9  1  0
  8 20  1  0
  8 21  1  0
  9 10  1  0
  9 11  1  0
  9 22  1  1
 10 23  1  0
 10 24  1  0
 11 25  1  0
 11 26  1  0
 12 27  1  0
 12 28  1  0
M  END
>  <i_m_ct_stereo_status>  (373) 
1

>  <s_m_source_file>  (373) 
/var/tmp/pbs.5076255.sched01/tmp54n2b71h/144k2pf1zoq.sdf

>  <i_m_source_file_index>  (373) 
15

>  <i_lp_mmshare_version>  (373) 
48012

>  <i_f3d_flags>  (373) 
0

>  <s_epik_input>  (373) 
W0NIXSNDQzEyW0NIMl1bQ0BIXTNbQ0gyXVtDQEBIXShbQ0gyXTIpW0NIMl1bQ0BIXShbQ0gyXTMpW0NIMl0x

>  <s_epik_cmdline>  (373) 
J2VwaWtfcHl0aG9uJywgJy1waHQnLCAnMi4wJywgJy1waCcsICc3LjAnLCAnLXRuJywgJzgnLCAnLW1hJywgJzIwMCcsICctaW1hZScsICc8aW5maWxlLm1hZT4nLCAnLW9tYWUnLCAnPG91dGZpbGUubWFlPic=

>  <r_lp_tautomer_probability>  (373) 
1

>  <r_epik_Ionization_Penalty>  (373) 
0

>  <r_epik_Ionization_Penalty_Charging>  (373) 
0

>  <r_epik_Ionization_Penalty_Neutral>  (373) 
0

>  <r_epik_State_Penalty>  (373) 
-0

>  <r_epik_Charging_Adjusted_Penalty>  (373) 
0

>  <i_epik_Tot_Q>  (373) 
0

>  <i_epik_Tot_abs_Q>  (373) 
0

>  <s_lp_Force_Field>  (373) 
OPLS3e

>  <r_lp_Energy>  (373) 
3.87344

>  <b_lp_Chiralities_Consistent>  (373) 
1

>  <s_lp_Variant>  (373) 
103:0-1

>  <s_i_glide_gridfile>  (373) 
pfpi4k_grid

>  <i_i_glide_lignum>  (373) 
15

>  <i_i_glide_rotatable_bonds>  (373) 
1

>  <r_i_docking_score>  (373) 
-3.75438

>  <r_i_glide_ligand_efficiency>  (373) 
-0.312865

>  <r_i_glide_ligand_efficiency_sa>  (373) 
-0.716282

>  <r_i_glide_ligand_efficiency_ln>  (373) 
-1.07733

>  <r_i_glide_gscore>  (373) 
-3.75438

>  <r_i_glide_lipo>  (373) 
-0.494982

>  <r_i_glide_hbond>  (373) 
0

>  <r_i_glide_metal>  (373) 
-0

>  <r_i_glide_rewards>  (373) 
-2.25

>  <r_i_glide_evdw>  (373) 
-19.7661

>  <r_i_glide_ecoul>  (373) 
-0.140617

>  <r_i_glide_erotb>  (373) 
0

>  <r_i_glide_esite>  (373) 
0

>  <r_i_glide_emodel>  (373) 
-23.9291

>  <r_i_glide_energy>  (373) 
-19.9067

>  <r_i_glide_einternal>  (373) 
1.01648

>  <r_i_glide_intrahb_reward>  (373) 
-0

>  <i_i_glide_confnum>  (373) 
2

>  <i_i_glide_posenum>  (373) 
27

>  <r_i_glide_eff_state_penalty>  (373) 
0

>  <ligand_id>  (373) 
103

>  <original_smiles>  (373) 
C#CC12CC3CC(CC(C3)C1)C2

>  <smiles>  (373) 
[H]C#CC12C([H])([H])C3([H])C([H])([H])C([H])(C([H])([H])C([H])(C3([H])[H])C1([H])[H])C2([H])[H]

$$$$
103:0:1
     RDKit          3D

 28 30  0  0  1  0  0  0  0  0999 V2000
    7.2317   -4.2391   -0.1846 C   0  0  0  0  0  0  0  0  0  0  0  0
    6.3290   -3.7117   -0.8400 C   0  0  0  0  0  0  0  0  0  0  0  0
    5.2377   -3.0882   -1.6474 C   0  0  1  0  0  0  0  0  0  0  0  0
    5.1622   -3.6033   -3.1060 C   0  0  0  0  0  0  0  0  0  0  0  0
    4.0039   -2.9427   -3.9086 C   0  0  2  0  0  0  0  0  0  0  0  0
    4.1995   -1.4046   -3.9967 C   0  0  0  0  0  0  0  0  0  0  0  0
    4.3641   -0.8592   -2.5738 C   0  0  1  0  0  0  0  0  0  0  0  0
    3.0432   -1.1281   -1.8946 C   0  0  0  0  0  0  0  0  0  0  0  0
    2.7599   -2.6645   -1.8132 C   0  0  1  0  0  0  0  0  0  0  0  0
    2.6592   -3.1879   -3.2457 C   0  0  0  0  0  0  0  0  0  0  0  0
    3.8668   -3.3417   -0.9904 C   0  0  0  0  0  0  0  0  0  0  0  0
    5.4648   -1.5600   -1.7399 C   0  0  0  0  0  0  0  0  0  0  0  0
    8.0077   -4.7524    0.3354 H   0  0  0  0  0  0  0  0  0  0  0  0
    6.1081   -3.4378   -3.6195 H   0  0  0  0  0  0  0  0  0  0  0  0
    4.9936   -4.6816   -3.1117 H   0  0  0  0  0  0  0  0  0  0  0  0
    3.9576   -3.3949   -4.8915 H   0  0  0  0  0  0  0  0  0  0  0  0
    5.0507   -1.1605   -4.5989 H   0  0  0  0  0  0  0  0  0  0  0  0
    3.3568   -0.9141   -4.5117 H   0  0  0  0  0  0  0  0  0  0  0  0
    4.5573    0.2043   -2.6004 H   0  0  0  0  0  0  0  0  0  0  0  0
    3.0799   -0.7308   -0.8786 H   0  0  0  0  0  0  0  0  0  0  0  0
    2.2600   -0.6160   -2.4411 H   0  0  0  0  0  0  0  0  0  0  0  0
    1.7996   -2.8333   -1.3246 H   0  0  0  0  0  0  0  0  0  0  0  0
    1.8766   -2.6436   -3.7716 H   0  0  0  0  0  0  0  0  0  0  0  0
    2.3855   -4.2391   -3.2817 H   0  0  0  0  0  0  0  0  0  0  0  0
    3.6650   -4.4029   -0.9071 H   0  0  0  0  0  0  0  0  0  0  0  0
    3.8567   -2.9285    0.0197 H   0  0  0  0  0  0  0  0  0  0  0  0
    5.5168   -1.1065   -0.7379 H   0  0  0  0  0  0  0  0  0  0  0  0
    6.4448   -1.4246   -2.2051 H   0  0  0  0  0  0  0  0  0  0  0  0
  1  2  3  0
  1 13  1  0
  3  2  1  1
  3 11  1  0
  3 12  1  0
  3  4  1  0
  4  5  1  0
  4 14  1  0
  4 15  1  0
  5 10  1  0
  5  6  1  0
  5 16  1  6
  6  7  1  0
  6 17  1  0
  6 18  1  0
  7  8  1  0
  7 12  1  0
  7 19  1  6
  8  9  1  0
  8 20  1  0
  8 21  1  0
  9 10  1  0
  9 11  1  0
  9 22  1  1
 10 23  1  0
 10 24  1  0
 11 25  1  0
 11 26  1  0
 12 27  1  0
 12 28  1  0
M  END
>  <i_m_ct_stereo_status>  (374) 
1

>  <s_m_source_file>  (374) 
/var/tmp/pbs.5076255.sched01/tmp54n2b71h/144k2pf1zoq.sdf

>  <i_m_source_file_index>  (374) 
15

>  <i_lp_mmshare_version>  (374) 
48012

>  <i_f3d_flags>  (374) 
0

>  <s_epik_input>  (374) 
W0NIXSNDQzEyW0NIMl1bQ0BIXTNbQ0gyXVtDQEBIXShbQ0gyXTIpW0NIMl1bQ0BIXShbQ0gyXTMpW0NIMl0x

>  <s_epik_cmdline>  (374) 
J2VwaWtfcHl0aG9uJywgJy1waHQnLCAnMi4wJywgJy1waCcsICc3LjAnLCAnLXRuJywgJzgnLCAnLW1hJywgJzIwMCcsICctaW1hZScsICc8aW5maWxlLm1hZT4nLCAnLW9tYWUnLCAnPG91dGZpbGUubWFlPic=

>  <r_lp_tautomer_probability>  (374) 
1

>  <r_epik_Ionization_Penalty>  (374) 
0

>  <r_epik_Ionization_Penalty_Charging>  (374) 
0

>  <r_epik_Ionization_Penalty_Neutral>  (374) 
0

>  <r_epik_State_Penalty>  (374) 
-0

>  <r_epik_Charging_Adjusted_Penalty>  (374) 
0

>  <i_epik_Tot_Q>  (374) 
0

>  <i_epik_Tot_abs_Q>  (374) 
0

>  <s_lp_Force_Field>  (374) 
OPLS3e

>  <r_lp_Energy>  (374) 
3.87344

>  <b_lp_Chiralities_Consistent>  (374) 
1

>  <s_lp_Variant>  (374) 
103:0-1

>  <s_i_glide_gridfile>  (374) 
pfpi4k_grid

>  <i_i_glide_lignum>  (374) 
15

>  <i_i_glide_rotatable_bonds>  (374) 
1

>  <r_i_docking_score>  (374) 
-3.38665

>  <r_i_glide_ligand_efficiency>  (374) 
-0.282221

>  <r_i_glide_ligand_efficiency_sa>  (374) 
-0.646124

>  <r_i_glide_ligand_efficiency_ln>  (374) 
-0.971805

>  <r_i_glide_gscore>  (374) 
-3.38665

>  <r_i_glide_lipo>  (374) 
-0.651598

>  <r_i_glide_hbond>  (374) 
0

>  <r_i_glide_metal>  (374) 
-0

>  <r_i_glide_rewards>  (374) 
-2.25

>  <r_i_glide_evdw>  (374) 
-9.70455

>  <r_i_glide_ecoul>  (374) 
0.00116731

>  <r_i_glide_erotb>  (374) 
0

>  <r_i_glide_esite>  (374) 
0

>  <r_i_glide_emodel>  (374) 
-12.456

>  <r_i_glide_energy>  (374) 
-9.70338

>  <r_i_glide_einternal>  (374) 
1.03492

>  <r_i_glide_intrahb_reward>  (374) 
-0

>  <i_i_glide_confnum>  (374) 
1

>  <i_i_glide_posenum>  (374) 
1

>  <r_i_glide_eff_state_penalty>  (374) 
0

>  <ligand_id>  (374) 
103

>  <original_smiles>  (374) 
C#CC12CC3CC(CC(C3)C1)C2

>  <smiles>  (374) 
[H]C#CC12C([H])([H])C3([H])C([H])([H])C([H])(C([H])([H])C([H])(C3([H])[H])C1([H])[H])C2([H])[H]

$$$$
103:0:2
     RDKit          3D

 28 30  0  0  1  0  0  0  0  0999 V2000
    2.2385    0.1998   -4.7056 C   0  0  0  0  0  0  0  0  0  0  0  0
    2.8260   -0.5797   -3.9537 C   0  0  0  0  0  0  0  0  0  0  0  0
    3.5615   -1.4918   -3.0428 C   0  0  1  0  0  0  0  0  0  0  0  0
    4.2665   -0.7422   -1.8786 C   0  0  0  0  0  0  0  0  0  0  0  0
    5.1153   -1.6587   -0.9778 C   0  0  2  0  0  0  0  0  0  0  0  0
    6.2295   -2.2863   -1.8168 C   0  0  0  0  0  0  0  0  0  0  0  0
    5.5915   -3.0482   -2.9913 C   0  0  1  0  0  0  0  0  0  0  0  0
    4.7471   -4.1530   -2.4365 C   0  0  0  0  0  0  0  0  0  0  0  0
    3.6044   -3.5457   -1.5883 C   0  0  1  0  0  0  0  0  0  0  0  0
    4.2024   -2.7612   -0.4166 C   0  0  0  0  0  0  0  0  0  0  0  0
    2.7185   -2.6562   -2.4875 C   0  0  0  0  0  0  0  0  0  0  0  0
    4.6137   -2.1843   -3.8622 C   0  0  0  0  0  0  0  0  0  0  0  0
    1.6336    0.9054   -5.2025 H   0  0  0  0  0  0  0  0  0  0  0  0
    4.8847    0.0825   -2.2465 H   0  0  0  0  0  0  0  0  0  0  0  0
    3.5313   -0.3476   -1.2072 H   0  0  0  0  0  0  0  0  0  0  0  0
    5.5462   -1.0884   -0.1430 H   0  0  0  0  0  0  0  0  0  0  0  0
    6.8655   -1.5094   -2.2066 H   0  0  0  0  0  0  0  0  0  0  0  0
    6.8574   -2.9388   -1.2081 H   0  0  0  0  0  0  0  0  0  0  0  0
    6.4022   -3.4553   -3.5970 H   0  0  0  0  0  0  0  0  0  0  0  0
    4.3795   -4.6599   -3.3181 H   0  0  0  0  0  0  0  0  0  0  0  0
    5.3305   -4.8593   -1.8625 H   0  0  0  0  0  0  0  0  0  0  0  0
    2.9804   -4.3284   -1.1619 H   0  0  0  0  0  0  0  0  0  0  0  0
    4.7592   -3.4395    0.2232 H   0  0  0  0  0  0  0  0  0  0  0  0
    3.3947   -2.3289    0.1921 H   0  0  0  0  0  0  0  0  0  0  0  0
    1.8562   -2.3117   -1.9423 H   0  0  0  0  0  0  0  0  0  0  0  0
    2.3138   -3.2469   -3.3069 H   0  0  0  0  0  0  0  0  0  0  0  0
    4.1834   -2.8155   -4.6604 H   0  0  0  0  0  0  0  0  0  0  0  0
    5.1696   -1.3929   -4.3525 H   0  0  0  0  0  0  0  0  0  0  0  0
  1  2  3  0
  1 13  1  0
  3  2  1  6
  3 11  1  0
  3 12  1  0
  3  4  1  0
  4  5  1  0
  4 14  1  0
  4 15  1  0
  5 10  1  0
  5  6  1  0
  5 16  1  1
  6  7  1  0
  6 17  1  0
  6 18  1  0
  7  8  1  0
  7 12  1  0
  7 19  1  6
  8  9  1  0
  8 20  1  0
  8 21  1  0
  9 10  1  0
  9 11  1  0
  9 22  1  1
 10 23  1  0
 10 24  1  0
 11 25  1  0
 11 26  1  0
 12 27  1  0
 12 28  1  0
M  END
>  <i_m_ct_stereo_status>  (375) 
1

>  <s_m_source_file>  (375) 
/var/tmp/pbs.5076255.sched01/tmp54n2b71h/144k2pf1zoq.sdf

>  <i_m_source_file_index>  (375) 
15

>  <i_lp_mmshare_version>  (375) 
48012

>  <i_f3d_flags>  (375) 
0

>  <s_epik_input>  (375) 
W0NIXSNDQzEyW0NIMl1bQ0BIXTNbQ0gyXVtDQEBIXShbQ0gyXTIpW0NIMl1bQ0BIXShbQ0gyXTMpW0NIMl0x

>  <s_epik_cmdline>  (375) 
J2VwaWtfcHl0aG9uJywgJy1waHQnLCAnMi4wJywgJy1waCcsICc3LjAnLCAnLXRuJywgJzgnLCAnLW1hJywgJzIwMCcsICctaW1hZScsICc8aW5maWxlLm1hZT4nLCAnLW9tYWUnLCAnPG91dGZpbGUubWFlPic=

>  <r_lp_tautomer_probability>  (375) 
1

>  <r_epik_Ionization_Penalty>  (375) 
0

>  <r_epik_Ionization_Penalty_Charging>  (375) 
0

>  <r_epik_Ionization_Penalty_Neutral>  (375) 
0

>  <r_epik_State_Penalty>  (375) 
-0

>  <r_epik_Charging_Adjusted_Penalty>  (375) 
0

>  <i_epik_Tot_Q>  (375) 
0

>  <i_epik_Tot_abs_Q>  (375) 
0

>  <s_lp_Force_Field>  (375) 
OPLS3e

>  <r_lp_Energy>  (375) 
3.87344

>  <b_lp_Chiralities_Consistent>  (375) 
1

>  <s_lp_Variant>  (375) 
103:0-1

>  <s_i_glide_gridfile>  (375) 
pfpi4k_grid

>  <i_i_glide_lignum>  (375) 
15

>  <i_i_glide_rotatable_bonds>  (375) 
1

>  <r_i_docking_score>  (375) 
-2.71539

>  <r_i_glide_ligand_efficiency>  (375) 
-0.226282

>  <r_i_glide_ligand_efficiency_sa>  (375) 
-0.518057

>  <r_i_glide_ligand_efficiency_ln>  (375) 
-0.779185

>  <r_i_glide_gscore>  (375) 
-2.71539

>  <r_i_glide_lipo>  (375) 
-0.339416

>  <r_i_glide_hbond>  (375) 
0

>  <r_i_glide_metal>  (375) 
-0

>  <r_i_glide_rewards>  (375) 
-2.25

>  <r_i_glide_evdw>  (375) 
-4.79372

>  <r_i_glide_ecoul>  (375) 
0.758102

>  <r_i_glide_erotb>  (375) 
0

>  <r_i_glide_esite>  (375) 
0

>  <r_i_glide_emodel>  (375) 
-6.22514

>  <r_i_glide_energy>  (375) 
-4.03561

>  <r_i_glide_einternal>  (375) 
1.03478

>  <r_i_glide_intrahb_reward>  (375) 
-0

>  <i_i_glide_confnum>  (375) 
1

>  <i_i_glide_posenum>  (375) 
2

>  <r_i_glide_eff_state_penalty>  (375) 
0

>  <ligand_id>  (375) 
103

>  <original_smiles>  (375) 
C#CC12CC3CC(CC(C3)C1)C2

>  <smiles>  (375) 
[H]C#CC12C([H])([H])C3([H])C([H])([H])C([H])(C([H])([H])C([H])(C3([H])[H])C1([H])[H])C2([H])[H]

$$$$
105:0:0
     RDKit          3D

 27 28  0  0  1  0  0  0  0  0999 V2000
    6.7590   -0.9490    0.4835 C   0  0  0  0  0  0  0  0  0  0  0  0
    5.6709   -1.7230   -0.2050 C   0  0  0  0  0  0  0  0  0  0  0  0
    4.8295   -2.5330    0.4968 C   0  0  0  0  0  0  0  0  0  0  0  0
    3.7564   -3.2595   -0.1687 C   0  0  0  0  0  0  0  0  0  0  0  0
    2.8314   -4.0092    0.3796 N   0  0  0  0  0  0  0  0  0  0  0  0
    2.6614   -4.0663    1.8295 C   0  0  0  0  0  0  0  0  0  0  0  0
    2.2870   -2.6661    2.3810 C   0  0  0  0  0  0  0  0  0  0  0  0
    3.8245   -4.7837    2.5644 C   0  0  0  0  0  0  0  0  0  0  0  0
    3.7930   -3.0331   -1.5518 N   0  0  0  0  0  0  0  0  0  0  0  0
    2.8435   -3.4535   -2.4715 N   0  0  0  0  0  0  0  0  0  0  0  0
    3.2156   -2.8248   -3.6530 C   0  0  0  0  0  0  0  0  0  0  0  0
    4.2249   -2.0275   -3.5657 N   0  0  0  0  0  0  0  0  0  0  0  0
    4.6017   -2.1174   -2.2220 C   0  0  0  0  0  0  0  0  0  0  0  0
    5.5364   -1.4983   -1.5854 N   0  0  0  0  0  0  0  0  0  0  0  0
    6.8153   -1.1435    1.5539 H   0  0  0  0  0  0  0  0  0  0  0  0
    6.5948    0.1203    0.3419 H   0  0  0  0  0  0  0  0  0  0  0  0
    7.7174   -1.2243    0.0530 H   0  0  0  0  0  0  0  0  0  0  0  0
    5.0335   -2.5640    1.5602 H   0  0  0  0  0  0  0  0  0  0  0  0
    1.7789   -4.6876    2.0145 H   0  0  0  0  0  0  0  0  0  0  0  0
    2.1042   -2.6863    3.4523 H   0  0  0  0  0  0  0  0  0  0  0  0
    1.3988   -2.2673    1.8832 H   0  0  0  0  0  0  0  0  0  0  0  0
    3.0636   -1.9238    2.2219 H   0  0  0  0  0  0  0  0  0  0  0  0
    3.6312   -4.8192    3.6365 H   0  0  0  0  0  0  0  0  0  0  0  0
    4.7949   -4.2992    2.4552 H   0  0  0  0  0  0  0  0  0  0  0  0
    3.9459   -5.8036    2.1963 H   0  0  0  0  0  0  0  0  0  0  0  0
    2.6239   -3.0457   -4.5401 H   0  0  0  0  0  0  0  0  0  0  0  0
    2.5610   -4.4316   -2.4363 H   0  0  0  0  0  0  0  0  0  0  0  0
  1  2  1  0
  1 15  1  0
  1 16  1  0
  1 17  1  0
  2 14  1  0
  2  3  2  0
  3  4  1  0
  3 18  1  0
  4  5  2  3
  4  9  1  0
  5  6  1  0
  6  7  1  0
  6  8  1  0
  6 19  1  0
  7 20  1  0
  7 21  1  0
  7 22  1  0
  8 23  1  0
  8 24  1  0
  8 25  1  0
  9 13  1  0
  9 10  1  0
 10 11  1  0
 10 27  1  0
 11 12  2  0
 11 26  1  0
 12 13  1  0
 13 14  2  0
M  END
>  <i_m_ct_stereo_status>  (376) 
1

>  <s_m_source_file>  (376) 
/var/tmp/pbs.5076255.sched01/tmp54n2b71h/144k2pf1zoq.sdf

>  <i_m_source_file_index>  (376) 
18

>  <i_lp_mmshare_version>  (376) 
48012

>  <i_f3d_flags>  (376) 
0

>  <s_epik_input>  (376) 
W25IXTFbY0hdbmMobjEyKW5jKFtDSDNdKVtjSF0vYzI9TlxbQ0hdKFtDSDNdKVtDSDNd

>  <s_epik_cmdline>  (376) 
J2VwaWtfcHl0aG9uJywgJy1waHQnLCAnMi4wJywgJy1waCcsICc3LjAnLCAnLXRuJywgJzgnLCAnLW1hJywgJzIwMCcsICctaW1hZScsICc8aW5maWxlLm1hZT4nLCAnLW9tYWUnLCAnPG91dGZpbGUubWFlPic=

>  <r_lp_tautomer_probability>  (376) 
1

>  <r_epik_Ionization_Penalty>  (376) 
22.2753

>  <r_epik_Ionization_Penalty_Charging>  (376) 
22.2753

>  <r_epik_Ionization_Penalty_Neutral>  (376) 
3.16827e-08

>  <r_epik_State_Penalty>  (376) 
-0

>  <r_epik_Charging_Adjusted_Penalty>  (376) 
22.2753

>  <i_epik_Tot_Q>  (376) 
0

>  <i_epik_Tot_abs_Q>  (376) 
0

>  <s_lp_Force_Field>  (376) 
OPLS3e

>  <r_lp_Energy>  (376) 
15.4333

>  <b_lp_Chiralities_Consistent>  (376) 
1

>  <s_lp_Variant>  (376) 
105:0-1

>  <s_i_glide_gridfile>  (376) 
pfpi4k_grid

>  <i_i_glide_lignum>  (376) 
18

>  <i_i_glide_rotatable_bonds>  (376) 
1

>  <r_i_docking_score>  (376) 
-4.69908

>  <r_i_glide_ligand_efficiency>  (376) 
-0.335648

>  <r_i_glide_ligand_efficiency_sa>  (376) 
-0.808961

>  <r_i_glide_ligand_efficiency_ln>  (376) 
-1.29129

>  <r_i_glide_gscore>  (376) 
-4.69908

>  <r_i_glide_lipo>  (376) 
-0.0334963

>  <r_i_glide_hbond>  (376) 
-0.331314

>  <r_i_glide_metal>  (376) 
-0

>  <r_i_glide_rewards>  (376) 
-2.42563

>  <r_i_glide_evdw>  (376) 
-20.6026

>  <r_i_glide_ecoul>  (376) 
-8.705

>  <r_i_glide_erotb>  (376) 
0.439909

>  <r_i_glide_esite>  (376) 
-0.0126622

>  <r_i_glide_emodel>  (376) 
-36.4324

>  <r_i_glide_energy>  (376) 
-29.3076

>  <r_i_glide_einternal>  (376) 
1.37739

>  <r_i_glide_intrahb_reward>  (376) 
-0

>  <i_i_glide_confnum>  (376) 
2

>  <i_i_glide_posenum>  (376) 
17

>  <r_i_glide_eff_state_penalty>  (376) 
0

>  <ligand_id>  (376) 
105

>  <original_smiles>  (376) 
Cc1cc(=NC(C)C)n2[nH]cnc2n1

>  <smiles>  (376) 
[H]c1c(C([H])([H])[H])nc2nc([H])n([H])n2c1=NC([H])(C([H])([H])[H])C([H])([H])[H]

$$$$
105:0:1
     RDKit          3D

 27 28  0  0  1  0  0  0  0  0999 V2000
    8.0352   -3.1579   -0.8774 C   0  0  0  0  0  0  0  0  0  0  0  0
    6.5398   -3.2194   -1.1018 C   0  0  0  0  0  0  0  0  0  0  0  0
    5.6571   -3.7581   -0.2012 C   0  0  0  0  0  0  0  0  0  0  0  0
    4.2265   -3.7753   -0.4898 C   0  0  0  0  0  0  0  0  0  0  0  0
    3.2433   -4.1442    0.2904 N   0  0  0  0  0  0  0  0  0  0  0  0
    3.4967   -4.4607    1.6961 C   0  0  0  0  0  0  0  0  0  0  0  0
    4.0712   -5.8806    1.8975 C   0  0  0  0  0  0  0  0  0  0  0  0
    2.1705   -4.2989    2.4642 C   0  0  0  0  0  0  0  0  0  0  0  0
    3.9670   -3.2950   -1.7769 N   0  0  0  0  0  0  0  0  0  0  0  0
    2.7338   -3.1183   -2.3561 N   0  0  0  0  0  0  0  0  0  0  0  0
    2.9595   -2.4456   -3.5284 C   0  0  0  0  0  0  0  0  0  0  0  0
    4.2042   -2.1857   -3.7639 N   0  0  0  0  0  0  0  0  0  0  0  0
    4.8617   -2.7084   -2.6454 C   0  0  0  0  0  0  0  0  0  0  0  0
    6.1115   -2.6560   -2.3228 N   0  0  0  0  0  0  0  0  0  0  0  0
    8.3259   -3.5915    0.0759 H   0  0  0  0  0  0  0  0  0  0  0  0
    8.3666   -2.1236   -0.9058 H   0  0  0  0  0  0  0  0  0  0  0  0
    8.5445   -3.6819   -1.6828 H   0  0  0  0  0  0  0  0  0  0  0  0
    6.0767   -4.1639    0.7077 H   0  0  0  0  0  0  0  0  0  0  0  0
    4.1974   -3.7333    2.1165 H   0  0  0  0  0  0  0  0  0  0  0  0
    4.2303   -6.0810    2.9559 H   0  0  0  0  0  0  0  0  0  0  0  0
    5.0325   -6.0104    1.4102 H   0  0  0  0  0  0  0  0  0  0  0  0
    3.3978   -6.6428    1.5150 H   0  0  0  0  0  0  0  0  0  0  0  0
    2.2995   -4.4709    3.5323 H   0  0  0  0  0  0  0  0  0  0  0  0
    1.4182   -5.0025    2.1061 H   0  0  0  0  0  0  0  0  0  0  0  0
    1.7732   -3.2903    2.3437 H   0  0  0  0  0  0  0  0  0  0  0  0
    2.1043   -2.1857   -4.1601 H   0  0  0  0  0  0  0  0  0  0  0  0
    1.9966   -3.7971   -2.2190 H   0  0  0  0  0  0  0  0  0  0  0  0
  1  2  1  0
  1 15  1  0
  1 16  1  0
  1 17  1  0
  2 14  1  0
  2  3  2  0
  3  4  1  0
  3 18  1  0
  4  5  2  3
  4  9  1  0
  5  6  1  0
  6  7  1  0
  6  8  1  0
  6 19  1  0
  7 20  1  0
  7 21  1  0
  7 22  1  0
  8 23  1  0
  8 24  1  0
  8 25  1  0
  9 13  1  0
  9 10  1  0
 10 11  1  0
 10 27  1  0
 11 12  2  0
 11 26  1  0
 12 13  1  0
 13 14  2  0
M  END
>  <i_m_ct_stereo_status>  (377) 
1

>  <s_m_source_file>  (377) 
/var/tmp/pbs.5076255.sched01/tmp54n2b71h/144k2pf1zoq.sdf

>  <i_m_source_file_index>  (377) 
18

>  <i_lp_mmshare_version>  (377) 
48012

>  <i_f3d_flags>  (377) 
0

>  <s_epik_input>  (377) 
W25IXTFbY0hdbmMobjEyKW5jKFtDSDNdKVtjSF0vYzI9TlxbQ0hdKFtDSDNdKVtDSDNd

>  <s_epik_cmdline>  (377) 
J2VwaWtfcHl0aG9uJywgJy1waHQnLCAnMi4wJywgJy1waCcsICc3LjAnLCAnLXRuJywgJzgnLCAnLW1hJywgJzIwMCcsICctaW1hZScsICc8aW5maWxlLm1hZT4nLCAnLW9tYWUnLCAnPG91dGZpbGUubWFlPic=

>  <r_lp_tautomer_probability>  (377) 
1

>  <r_epik_Ionization_Penalty>  (377) 
22.2753

>  <r_epik_Ionization_Penalty_Charging>  (377) 
22.2753

>  <r_epik_Ionization_Penalty_Neutral>  (377) 
3.16827e-08

>  <r_epik_State_Penalty>  (377) 
-0

>  <r_epik_Charging_Adjusted_Penalty>  (377) 
22.2753

>  <i_epik_Tot_Q>  (377) 
0

>  <i_epik_Tot_abs_Q>  (377) 
0

>  <s_lp_Force_Field>  (377) 
OPLS3e

>  <r_lp_Energy>  (377) 
15.4333

>  <b_lp_Chiralities_Consistent>  (377) 
1

>  <s_lp_Variant>  (377) 
105:0-1

>  <s_i_glide_gridfile>  (377) 
pfpi4k_grid

>  <i_i_glide_lignum>  (377) 
18

>  <i_i_glide_rotatable_bonds>  (377) 
1

>  <r_i_docking_score>  (377) 
-4.38966

>  <r_i_glide_ligand_efficiency>  (377) 
-0.313547

>  <r_i_glide_ligand_efficiency_sa>  (377) 
-0.755693

>  <r_i_glide_ligand_efficiency_ln>  (377) 
-1.20626

>  <r_i_glide_gscore>  (377) 
-4.38966

>  <r_i_glide_lipo>  (377) 
-0.226147

>  <r_i_glide_hbond>  (377) 
-0.0378403

>  <r_i_glide_metal>  (377) 
-0

>  <r_i_glide_rewards>  (377) 
-2.61551

>  <r_i_glide_evdw>  (377) 
-23.1568

>  <r_i_glide_ecoul>  (377) 
-5.16398

>  <r_i_glide_erotb>  (377) 
0.439909

>  <r_i_glide_esite>  (377) 
-0.0176316

>  <r_i_glide_emodel>  (377) 
-36.1505

>  <r_i_glide_energy>  (377) 
-28.3208

>  <r_i_glide_einternal>  (377) 
0.001814

>  <r_i_glide_intrahb_reward>  (377) 
-0

>  <i_i_glide_confnum>  (377) 
1

>  <i_i_glide_posenum>  (377) 
27

>  <r_i_glide_eff_state_penalty>  (377) 
0

>  <ligand_id>  (377) 
105

>  <original_smiles>  (377) 
Cc1cc(=NC(C)C)n2[nH]cnc2n1

>  <smiles>  (377) 
[H]c1c(C([H])([H])[H])nc2nc([H])n([H])n2c1=NC([H])(C([H])([H])[H])C([H])([H])[H]

$$$$
105:0:2
     RDKit          3D

 27 28  0  0  1  0  0  0  0  0999 V2000
    7.6249   -2.3841   -0.0515 C   0  0  0  0  0  0  0  0  0  0  0  0
    6.2414   -2.6993   -0.5710 C   0  0  0  0  0  0  0  0  0  0  0  0
    5.3553   -3.5144    0.0824 C   0  0  0  0  0  0  0  0  0  0  0  0
    4.0209   -3.7528   -0.4655 C   0  0  0  0  0  0  0  0  0  0  0  0
    3.0220   -4.4043    0.0718 N   0  0  0  0  0  0  0  0  0  0  0  0
    3.0839   -4.8399    1.4626 C   0  0  0  0  0  0  0  0  0  0  0  0
    2.1541   -6.0530    1.6741 C   0  0  0  0  0  0  0  0  0  0  0  0
    2.6556   -3.6589    2.3567 C   0  0  0  0  0  0  0  0  0  0  0  0
    3.8829   -3.1387   -1.7140 N   0  0  0  0  0  0  0  0  0  0  0  0
    2.7564   -3.1197   -2.5038 N   0  0  0  0  0  0  0  0  0  0  0  0
    3.0205   -2.2403   -3.5217 C   0  0  0  0  0  0  0  0  0  0  0  0
    4.2127   -1.7193   -3.4802 N   0  0  0  0  0  0  0  0  0  0  0  0
    4.7657   -2.2730   -2.3277 C   0  0  0  0  0  0  0  0  0  0  0  0
    5.9158   -2.0559   -1.7760 N   0  0  0  0  0  0  0  0  0  0  0  0
    7.8359   -2.8950    0.8891 H   0  0  0  0  0  0  0  0  0  0  0  0
    7.7223   -1.3127    0.1087 H   0  0  0  0  0  0  0  0  0  0  0  0
    8.3641   -2.6856   -0.7888 H   0  0  0  0  0  0  0  0  0  0  0  0
    5.6959   -3.9633    1.0113 H   0  0  0  0  0  0  0  0  0  0  0  0
    4.0871   -5.1676    1.7531 H   0  0  0  0  0  0  0  0  0  0  0  0
    2.1497   -6.3675    2.7186 H   0  0  0  0  0  0  0  0  0  0  0  0
    2.4799   -6.9090    1.0825 H   0  0  0  0  0  0  0  0  0  0  0  0
    1.1251   -5.8300    1.3990 H   0  0  0  0  0  0  0  0  0  0  0  0
    2.6620   -3.9271    3.4098 H   0  0  0  0  0  0  0  0  0  0  0  0
    1.6522   -3.3225    2.1049 H   0  0  0  0  0  0  0  0  0  0  0  0
    3.3204   -2.8082    2.2286 H   0  0  0  0  0  0  0  0  0  0  0  0
    2.2462   -2.0426   -4.2687 H   0  0  0  0  0  0  0  0  0  0  0  0
    2.1573   -3.9330   -2.5687 H   0  0  0  0  0  0  0  0  0  0  0  0
  1  2  1  0
  1 15  1  0
  1 16  1  0
  1 17  1  0
  2 14  1  0
  2  3  2  0
  3  4  1  0
  3 18  1  0
  4  5  2  3
  4  9  1  0
  5  6  1  0
  6  7  1  0
  6  8  1  0
  6 19  1  0
  7 20  1  0
  7 21  1  0
  7 22  1  0
  8 23  1  0
  8 24  1  0
  8 25  1  0
  9 13  1  0
  9 10  1  0
 10 11  1  0
 10 27  1  0
 11 12  2  0
 11 26  1  0
 12 13  1  0
 13 14  2  0
M  END
>  <i_m_ct_stereo_status>  (378) 
1

>  <s_m_source_file>  (378) 
/var/tmp/pbs.5076255.sched01/tmp54n2b71h/144k2pf1zoq.sdf

>  <i_m_source_file_index>  (378) 
18

>  <i_lp_mmshare_version>  (378) 
48012

>  <i_f3d_flags>  (378) 
0

>  <s_epik_input>  (378) 
W25IXTFbY0hdbmMobjEyKW5jKFtDSDNdKVtjSF0vYzI9TlxbQ0hdKFtDSDNdKVtDSDNd

>  <s_epik_cmdline>  (378) 
J2VwaWtfcHl0aG9uJywgJy1waHQnLCAnMi4wJywgJy1waCcsICc3LjAnLCAnLXRuJywgJzgnLCAnLW1hJywgJzIwMCcsICctaW1hZScsICc8aW5maWxlLm1hZT4nLCAnLW9tYWUnLCAnPG91dGZpbGUubWFlPic=

>  <r_lp_tautomer_probability>  (378) 
1

>  <r_epik_Ionization_Penalty>  (378) 
22.2753

>  <r_epik_Ionization_Penalty_Charging>  (378) 
22.2753

>  <r_epik_Ionization_Penalty_Neutral>  (378) 
3.16827e-08

>  <r_epik_State_Penalty>  (378) 
-0

>  <r_epik_Charging_Adjusted_Penalty>  (378) 
22.2753

>  <i_epik_Tot_Q>  (378) 
0

>  <i_epik_Tot_abs_Q>  (378) 
0

>  <s_lp_Force_Field>  (378) 
OPLS3e

>  <r_lp_Energy>  (378) 
15.4333

>  <b_lp_Chiralities_Consistent>  (378) 
1

>  <s_lp_Variant>  (378) 
105:0-1

>  <s_i_glide_gridfile>  (378) 
pfpi4k_grid

>  <i_i_glide_lignum>  (378) 
18

>  <i_i_glide_rotatable_bonds>  (378) 
1

>  <r_i_docking_score>  (378) 
-4.20868

>  <r_i_glide_ligand_efficiency>  (378) 
-0.30062

>  <r_i_glide_ligand_efficiency_sa>  (378) 
-0.724537

>  <r_i_glide_ligand_efficiency_ln>  (378) 
-1.15653

>  <r_i_glide_gscore>  (378) 
-4.20868

>  <r_i_glide_lipo>  (378) 
-0.0821736

>  <r_i_glide_hbond>  (378) 
-0.0838061

>  <r_i_glide_metal>  (378) 
-0

>  <r_i_glide_rewards>  (378) 
-2.4963

>  <r_i_glide_evdw>  (378) 
-22.8676

>  <r_i_glide_ecoul>  (378) 
-5.48817

>  <r_i_glide_erotb>  (378) 
0.439909

>  <r_i_glide_esite>  (378) 
-0.0197032

>  <r_i_glide_emodel>  (378) 
-35.8129

>  <r_i_glide_energy>  (378) 
-28.3557

>  <r_i_glide_einternal>  (378) 
0.0361868

>  <r_i_glide_intrahb_reward>  (378) 
-0

>  <i_i_glide_confnum>  (378) 
3

>  <i_i_glide_posenum>  (378) 
1

>  <r_i_glide_eff_state_penalty>  (378) 
0

>  <ligand_id>  (378) 
105

>  <original_smiles>  (378) 
Cc1cc(=NC(C)C)n2[nH]cnc2n1

>  <smiles>  (378) 
[H]c1c(C([H])([H])[H])nc2nc([H])n([H])n2c1=NC([H])(C([H])([H])[H])C([H])([H])[H]

$$$$
105:1:0
     RDKit          3D

 27 28  0  0  1  0  0  0  0  0999 V2000
    8.6650   -3.7644   -0.5335 C   0  0  0  0  0  0  0  0  0  0  0  0
    7.3420   -3.0436   -0.6615 C   0  0  0  0  0  0  0  0  0  0  0  0
    6.6619   -2.9230   -1.8347 C   0  0  0  0  0  0  0  0  0  0  0  0
    5.3609   -2.2642   -1.9094 C   0  0  0  0  0  0  0  0  0  0  0  0
    4.7120   -2.2495   -3.0287 N   0  0  0  0  0  0  0  0  0  0  0  0
    3.3318   -1.8141   -3.2268 C   0  0  0  0  0  0  0  0  0  0  0  0
    2.5427   -3.0103   -3.7624 C   0  0  0  0  0  0  0  0  0  0  0  0
    3.2691   -0.6147   -4.1883 C   0  0  0  0  0  0  0  0  0  0  0  0
    5.0028   -1.7774   -0.6307 N   0  0  0  0  0  0  0  0  0  0  0  0
    3.9211   -1.0026   -0.2881 N   0  0  0  0  0  0  0  0  0  0  0  0
    3.9922   -0.8012    1.0700 C   0  0  0  0  0  0  0  0  0  0  0  0
    5.0315   -1.3274    1.6242 N   0  0  0  0  0  0  0  0  0  0  0  0
    5.7047   -1.9174    0.5501 C   0  0  0  0  0  0  0  0  0  0  0  0
    6.8409   -2.5244    0.5435 N   0  0  0  0  0  0  0  0  0  0  0  0
    9.0177   -4.1637   -1.4894 H   0  0  0  0  0  0  0  0  0  0  0  0
    8.5699   -4.5800    0.1818 H   0  0  0  0  0  0  0  0  0  0  0  0
    9.4027   -3.0637   -0.1533 H   0  0  0  0  0  0  0  0  0  0  0  0
    7.1048   -3.3747   -2.7163 H   0  0  0  0  0  0  0  0  0  0  0  0
    2.8164   -1.5304   -2.3196 H   0  0  0  0  0  0  0  0  0  0  0  0
    1.4888   -2.7596   -3.8900 H   0  0  0  0  0  0  0  0  0  0  0  0
    2.5952   -3.8522   -3.0662 H   0  0  0  0  0  0  0  0  0  0  0  0
    2.9284   -3.3570   -4.7212 H   0  0  0  0  0  0  0  0  0  0  0  0
    2.2363   -0.2928   -4.3225 H   0  0  0  0  0  0  0  0  0  0  0  0
    3.6564   -0.8559   -5.1755 H   0  0  0  0  0  0  0  0  0  0  0  0
    3.8201    0.2433   -3.8035 H   0  0  0  0  0  0  0  0  0  0  0  0
    3.1805   -0.2460    1.5511 H   0  0  0  0  0  0  0  0  0  0  0  0
    3.4818   -0.3636   -0.9395 H   0  0  0  0  0  0  0  0  0  0  0  0
  1  2  1  0
  1 15  1  0
  1 16  1  0
  1 17  1  0
  2 14  1  0
  2  3  2  0
  3  4  1  0
  3 18  1  0
  4  5  2  3
  4  9  1  0
  5  6  1  0
  6  7  1  0
  6  8  1  0
  6 19  1  0
  7 20  1  0
  7 21  1  0
  7 22  1  0
  8 23  1  0
  8 24  1  0
  8 25  1  0
  9 13  1  0
  9 10  1  0
 10 11  1  0
 10 27  1  0
 11 12  2  0
 11 26  1  0
 12 13  1  0
 13 14  2  0
M  END
>  <i_m_ct_stereo_status>  (379) 
1

>  <s_m_source_file>  (379) 
/var/tmp/pbs.5076255.sched01/tmp54n2b71h/144k2pf1zoq.sdf

>  <i_m_source_file_index>  (379) 
19

>  <i_lp_mmshare_version>  (379) 
48012

>  <i_f3d_flags>  (379) 
0

>  <s_epik_input>  (379) 
W25IXTFbY0hdbmMobjEyKW5jKFtDSDNdKVtjSF0vYzI9TlxbQ0hdKFtDSDNdKVtDSDNd

>  <s_epik_cmdline>  (379) 
J2VwaWtfcHl0aG9uJywgJy1waHQnLCAnMi4wJywgJy1waCcsICc3LjAnLCAnLXRuJywgJzgnLCAnLW1hJywgJzIwMCcsICctaW1hZScsICc8aW5maWxlLm1hZT4nLCAnLW9tYWUnLCAnPG91dGZpbGUubWFlPic=

>  <r_lp_tautomer_probability>  (379) 
1

>  <r_epik_Ionization_Penalty>  (379) 
22.2753

>  <r_epik_Ionization_Penalty_Charging>  (379) 
22.2753

>  <r_epik_Ionization_Penalty_Neutral>  (379) 
3.16827e-08

>  <r_epik_State_Penalty>  (379) 
-0

>  <r_epik_Charging_Adjusted_Penalty>  (379) 
22.2753

>  <i_epik_Tot_Q>  (379) 
0

>  <i_epik_Tot_abs_Q>  (379) 
0

>  <s_lp_Force_Field>  (379) 
OPLS3e

>  <r_lp_Energy>  (379) 
20.3859

>  <b_lp_Chiralities_Consistent>  (379) 
1

>  <s_lp_Variant>  (379) 
105:0-2

>  <s_i_glide_gridfile>  (379) 
pfpi4k_grid

>  <i_i_glide_lignum>  (379) 
19

>  <i_i_glide_rotatable_bonds>  (379) 
1

>  <r_i_docking_score>  (379) 
-4.10002

>  <r_i_glide_ligand_efficiency>  (379) 
-0.292859

>  <r_i_glide_ligand_efficiency_sa>  (379) 
-0.705831

>  <r_i_glide_ligand_efficiency_ln>  (379) 
-1.12667

>  <r_i_glide_gscore>  (379) 
-4.10002

>  <r_i_glide_lipo>  (379) 
-0.586249

>  <r_i_glide_hbond>  (379) 
0

>  <r_i_glide_metal>  (379) 
-0

>  <r_i_glide_rewards>  (379) 
-2.23421

>  <r_i_glide_evdw>  (379) 
-26.8774

>  <r_i_glide_ecoul>  (379) 
-2.066

>  <r_i_glide_erotb>  (379) 
0.439909

>  <r_i_glide_esite>  (379) 
-0.0657005

>  <r_i_glide_emodel>  (379) 
-36.0685

>  <r_i_glide_energy>  (379) 
-28.9434

>  <r_i_glide_einternal>  (379) 
0.318049

>  <r_i_glide_intrahb_reward>  (379) 
-0

>  <i_i_glide_confnum>  (379) 
3

>  <i_i_glide_posenum>  (379) 
2

>  <r_i_glide_eff_state_penalty>  (379) 
0

>  <ligand_id>  (379) 
105

>  <original_smiles>  (379) 
Cc1cc(=NC(C)C)n2[nH]cnc2n1

>  <smiles>  (379) 
[H]c1c(C([H])([H])[H])nc2nc([H])n([H])n2c1=NC([H])(C([H])([H])[H])C([H])([H])[H]

$$$$
105:1:1
     RDKit          3D

 27 28  0  0  1  0  0  0  0  0999 V2000
    2.8918   -1.6009   -3.9470 C   0  0  0  0  0  0  0  0  0  0  0  0
    3.4601   -2.1552   -2.6676 C   0  0  0  0  0  0  0  0  0  0  0  0
    2.7840   -3.0195   -1.8598 C   0  0  0  0  0  0  0  0  0  0  0  0
    3.3861   -3.5484   -0.6392 C   0  0  0  0  0  0  0  0  0  0  0  0
    2.7502   -4.4322    0.0669 N   0  0  0  0  0  0  0  0  0  0  0  0
    3.3517   -5.2214    1.1314 C   0  0  0  0  0  0  0  0  0  0  0  0
    4.3900   -6.1986    0.5335 C   0  0  0  0  0  0  0  0  0  0  0  0
    2.2389   -6.0197    1.8457 C   0  0  0  0  0  0  0  0  0  0  0  0
    4.6822   -3.0081   -0.4633 N   0  0  0  0  0  0  0  0  0  0  0  0
    5.5516   -3.1745    0.6029 N   0  0  0  0  0  0  0  0  0  0  0  0
    6.6949   -2.4818    0.2737 C   0  0  0  0  0  0  0  0  0  0  0  0
    6.6355   -1.8543   -0.8539 N   0  0  0  0  0  0  0  0  0  0  0  0
    5.3538   -2.1587   -1.3202 C   0  0  0  0  0  0  0  0  0  0  0  0
    4.7715   -1.7295   -2.3879 N   0  0  0  0  0  0  0  0  0  0  0  0
    1.8906   -1.9839   -4.1512 H   0  0  0  0  0  0  0  0  0  0  0  0
    3.5416   -1.8573   -4.7807 H   0  0  0  0  0  0  0  0  0  0  0  0
    2.8555   -0.5157   -3.8738 H   0  0  0  0  0  0  0  0  0  0  0  0
    1.7886   -3.3265   -2.1645 H   0  0  0  0  0  0  0  0  0  0  0  0
    3.8034   -4.5757    1.8843 H   0  0  0  0  0  0  0  0  0  0  0  0
    4.8538   -6.8142    1.3065 H   0  0  0  0  0  0  0  0  0  0  0  0
    5.1961   -5.6852    0.0139 H   0  0  0  0  0  0  0  0  0  0  0  0
    3.9334   -6.8554   -0.2084 H   0  0  0  0  0  0  0  0  0  0  0  0
    2.6434   -6.6317    2.6530 H   0  0  0  0  0  0  0  0  0  0  0  0
    1.7194   -6.7000    1.1702 H   0  0  0  0  0  0  0  0  0  0  0  0
    1.4896   -5.3674    2.2928 H   0  0  0  0  0  0  0  0  0  0  0  0
    7.5437   -2.5281    0.9622 H   0  0  0  0  0  0  0  0  0  0  0  0
    5.2165   -3.3321    1.5455 H   0  0  0  0  0  0  0  0  0  0  0  0
  1  2  1  0
  1 15  1  0
  1 16  1  0
  1 17  1  0
  2 14  1  0
  2  3  2  0
  3  4  1  0
  3 18  1  0
  4  5  2  3
  4  9  1  0
  5  6  1  0
  6  7  1  0
  6  8  1  0
  6 19  1  0
  7 20  1  0
  7 21  1  0
  7 22  1  0
  8 23  1  0
  8 24  1  0
  8 25  1  0
  9 13  1  0
  9 10  1  0
 10 11  1  0
 10 27  1  0
 11 12  2  0
 11 26  1  0
 12 13  1  0
 13 14  2  0
M  END
>  <i_m_ct_stereo_status>  (380) 
1

>  <s_m_source_file>  (380) 
/var/tmp/pbs.5076255.sched01/tmp54n2b71h/144k2pf1zoq.sdf

>  <i_m_source_file_index>  (380) 
19

>  <i_lp_mmshare_version>  (380) 
48012

>  <i_f3d_flags>  (380) 
0

>  <s_epik_input>  (380) 
W25IXTFbY0hdbmMobjEyKW5jKFtDSDNdKVtjSF0vYzI9TlxbQ0hdKFtDSDNdKVtDSDNd

>  <s_epik_cmdline>  (380) 
J2VwaWtfcHl0aG9uJywgJy1waHQnLCAnMi4wJywgJy1waCcsICc3LjAnLCAnLXRuJywgJzgnLCAnLW1hJywgJzIwMCcsICctaW1hZScsICc8aW5maWxlLm1hZT4nLCAnLW9tYWUnLCAnPG91dGZpbGUubWFlPic=

>  <r_lp_tautomer_probability>  (380) 
1

>  <r_epik_Ionization_Penalty>  (380) 
22.2753

>  <r_epik_Ionization_Penalty_Charging>  (380) 
22.2753

>  <r_epik_Ionization_Penalty_Neutral>  (380) 
3.16827e-08

>  <r_epik_State_Penalty>  (380) 
-0

>  <r_epik_Charging_Adjusted_Penalty>  (380) 
22.2753

>  <i_epik_Tot_Q>  (380) 
0

>  <i_epik_Tot_abs_Q>  (380) 
0

>  <s_lp_Force_Field>  (380) 
OPLS3e

>  <r_lp_Energy>  (380) 
20.3859

>  <b_lp_Chiralities_Consistent>  (380) 
1

>  <s_lp_Variant>  (380) 
105:0-2

>  <s_i_glide_gridfile>  (380) 
pfpi4k_grid

>  <i_i_glide_lignum>  (380) 
19

>  <i_i_glide_rotatable_bonds>  (380) 
1

>  <r_i_docking_score>  (380) 
-3.8292

>  <r_i_glide_ligand_efficiency>  (380) 
-0.273514

>  <r_i_glide_ligand_efficiency_sa>  (380) 
-0.659208

>  <r_i_glide_ligand_efficiency_ln>  (380) 
-1.05225

>  <r_i_glide_gscore>  (380) 
-3.8292

>  <r_i_glide_lipo>  (380) 
-0.242166

>  <r_i_glide_hbond>  (380) 
-0.16

>  <r_i_glide_metal>  (380) 
-0

>  <r_i_glide_rewards>  (380) 
-2.23622

>  <r_i_glide_evdw>  (380) 
-20.3883

>  <r_i_glide_ecoul>  (380) 
-3.8732

>  <r_i_glide_erotb>  (380) 
0.439909

>  <r_i_glide_esite>  (380) 
-0.0303224

>  <r_i_glide_emodel>  (380) 
-30.8362

>  <r_i_glide_energy>  (380) 
-24.2615

>  <r_i_glide_einternal>  (380) 
0.418315

>  <r_i_glide_intrahb_reward>  (380) 
-0

>  <i_i_glide_confnum>  (380) 
3

>  <i_i_glide_posenum>  (380) 
39

>  <r_i_glide_eff_state_penalty>  (380) 
0

>  <ligand_id>  (380) 
105

>  <original_smiles>  (380) 
Cc1cc(=NC(C)C)n2[nH]cnc2n1

>  <smiles>  (380) 
[H]c1c(C([H])([H])[H])nc2nc([H])n([H])n2c1=NC([H])(C([H])([H])[H])C([H])([H])[H]

$$$$
105:1:2
     RDKit          3D

 27 28  0  0  1  0  0  0  0  0999 V2000
    3.3471   -1.8710   -4.0910 C   0  0  0  0  0  0  0  0  0  0  0  0
    3.6622   -2.1505   -2.6455 C   0  0  0  0  0  0  0  0  0  0  0  0
    2.9513   -3.0341   -1.8827 C   0  0  0  0  0  0  0  0  0  0  0  0
    3.3132   -3.3017   -0.4963 C   0  0  0  0  0  0  0  0  0  0  0  0
    2.6656   -4.2125    0.1704 N   0  0  0  0  0  0  0  0  0  0  0  0
    3.0495   -4.7116    1.4809 C   0  0  0  0  0  0  0  0  0  0  0  0
    2.5020   -6.1464    1.6098 C   0  0  0  0  0  0  0  0  0  0  0  0
    2.5009   -3.8218    2.6145 C   0  0  0  0  0  0  0  0  0  0  0  0
    4.4119   -2.5020   -0.1146 N   0  0  0  0  0  0  0  0  0  0  0  0
    5.0321   -2.4184    1.1218 N   0  0  0  0  0  0  0  0  0  0  0  0
    6.0802   -1.5385    0.9589 C   0  0  0  0  0  0  0  0  0  0  0  0
    6.2010   -1.0628   -0.2375 N   0  0  0  0  0  0  0  0  0  0  0  0
    5.1298   -1.6355   -0.9214 C   0  0  0  0  0  0  0  0  0  0  0  0
    4.7809   -1.4589   -2.1525 N   0  0  0  0  0  0  0  0  0  0  0  0
    2.4909   -2.4548   -4.4267 H   0  0  0  0  0  0  0  0  0  0  0  0
    4.2090   -2.1073   -4.7134 H   0  0  0  0  0  0  0  0  0  0  0  0
    3.1269   -0.8124   -4.2087 H   0  0  0  0  0  0  0  0  0  0  0  0
    2.1128   -3.5462   -2.3424 H   0  0  0  0  0  0  0  0  0  0  0  0
    4.1340   -4.7866    1.5613 H   0  0  0  0  0  0  0  0  0  0  0  0
    2.7891   -6.6019    2.5574 H   0  0  0  0  0  0  0  0  0  0  0  0
    2.8931   -6.7851    0.8186 H   0  0  0  0  0  0  0  0  0  0  0  0
    1.4134   -6.1830    1.5464 H   0  0  0  0  0  0  0  0  0  0  0  0
    2.8010   -4.2115    3.5878 H   0  0  0  0  0  0  0  0  0  0  0  0
    1.4133   -3.7775    2.6049 H   0  0  0  0  0  0  0  0  0  0  0  0
    2.8599   -2.7980    2.5529 H   0  0  0  0  0  0  0  0  0  0  0  0
    6.7166   -1.3112    1.8175 H   0  0  0  0  0  0  0  0  0  0  0  0
    4.4755   -2.4705    1.9651 H   0  0  0  0  0  0  0  0  0  0  0  0
  1  2  1  0
  1 15  1  0
  1 16  1  0
  1 17  1  0
  2 14  1  0
  2  3  2  0
  3  4  1  0
  3 18  1  0
  4  5  2  3
  4  9  1  0
  5  6  1  0
  6  7  1  0
  6  8  1  0
  6 19  1  0
  7 20  1  0
  7 21  1  0
  7 22  1  0
  8 23  1  0
  8 24  1  0
  8 25  1  0
  9 13  1  0
  9 10  1  0
 10 11  1  0
 10 27  1  0
 11 12  2  0
 11 26  1  0
 12 13  1  0
 13 14  2  0
M  END
>  <i_m_ct_stereo_status>  (381) 
1

>  <s_m_source_file>  (381) 
/var/tmp/pbs.5076255.sched01/tmp54n2b71h/144k2pf1zoq.sdf

>  <i_m_source_file_index>  (381) 
19

>  <i_lp_mmshare_version>  (381) 
48012

>  <i_f3d_flags>  (381) 
0

>  <s_epik_input>  (381) 
W25IXTFbY0hdbmMobjEyKW5jKFtDSDNdKVtjSF0vYzI9TlxbQ0hdKFtDSDNdKVtDSDNd

>  <s_epik_cmdline>  (381) 
J2VwaWtfcHl0aG9uJywgJy1waHQnLCAnMi4wJywgJy1waCcsICc3LjAnLCAnLXRuJywgJzgnLCAnLW1hJywgJzIwMCcsICctaW1hZScsICc8aW5maWxlLm1hZT4nLCAnLW9tYWUnLCAnPG91dGZpbGUubWFlPic=

>  <r_lp_tautomer_probability>  (381) 
1

>  <r_epik_Ionization_Penalty>  (381) 
22.2753

>  <r_epik_Ionization_Penalty_Charging>  (381) 
22.2753

>  <r_epik_Ionization_Penalty_Neutral>  (381) 
3.16827e-08

>  <r_epik_State_Penalty>  (381) 
-0

>  <r_epik_Charging_Adjusted_Penalty>  (381) 
22.2753

>  <i_epik_Tot_Q>  (381) 
0

>  <i_epik_Tot_abs_Q>  (381) 
0

>  <s_lp_Force_Field>  (381) 
OPLS3e

>  <r_lp_Energy>  (381) 
20.3859

>  <b_lp_Chiralities_Consistent>  (381) 
1

>  <s_lp_Variant>  (381) 
105:0-2

>  <s_i_glide_gridfile>  (381) 
pfpi4k_grid

>  <i_i_glide_lignum>  (381) 
19

>  <i_i_glide_rotatable_bonds>  (381) 
1

>  <r_i_docking_score>  (381) 
-3.387

>  <r_i_glide_ligand_efficiency>  (381) 
-0.241929

>  <r_i_glide_ligand_efficiency_sa>  (381) 
-0.583083

>  <r_i_glide_ligand_efficiency_ln>  (381) 
-0.930736

>  <r_i_glide_gscore>  (381) 
-3.387

>  <r_i_glide_lipo>  (381) 
-0.0585876

>  <r_i_glide_hbond>  (381) 
-0.0499854

>  <r_i_glide_metal>  (381) 
-0

>  <r_i_glide_rewards>  (381) 
-2.31763

>  <r_i_glide_evdw>  (381) 
-20.1295

>  <r_i_glide_ecoul>  (381) 
-2.36638

>  <r_i_glide_erotb>  (381) 
0.439909

>  <r_i_glide_esite>  (381) 
-0.0392744

>  <r_i_glide_emodel>  (381) 
-28.4781

>  <r_i_glide_energy>  (381) 
-22.4959

>  <r_i_glide_einternal>  (381) 
0.0519663

>  <r_i_glide_intrahb_reward>  (381) 
-0

>  <i_i_glide_confnum>  (381) 
3

>  <i_i_glide_posenum>  (381) 
1

>  <r_i_glide_eff_state_penalty>  (381) 
0

>  <ligand_id>  (381) 
105

>  <original_smiles>  (381) 
Cc1cc(=NC(C)C)n2[nH]cnc2n1

>  <smiles>  (381) 
[H]c1c(C([H])([H])[H])nc2nc([H])n([H])n2c1=NC([H])(C([H])([H])[H])C([H])([H])[H]

$$$$
108:0:0
     RDKit          3D

 72 76  0  0  1  0  0  0  0  0999 V2000
    1.6817   -3.4605   -1.5589 C   0  0  0  0  0  0  0  0  0  0  0  0
    2.8161   -2.8563   -1.9432 C   0  0  0  0  0  0  0  0  0  0  0  0
    2.9046   -2.1672   -3.2923 C   0  0  0  0  0  0  0  0  0  0  0  0
    4.0824   -2.7860   -1.0888 C   0  0  2  0  0  0  0  0  0  0  0  0
    5.1600   -3.8163   -1.4951 C   0  0  0  0  0  0  0  0  0  0  0  0
    5.8027   -4.3205   -0.1799 C   0  0  0  0  0  0  0  0  0  0  0  0
    5.3157   -3.3525    0.9076 C   0  0  2  0  0  0  0  0  0  0  0  0
    6.1893   -2.1685    0.8630 C   0  0  0  0  0  0  0  0  0  0  0  0
    6.8820   -1.2425    0.8145 N   0  0  0  0  0  0  0  0  0  0  0  0
    5.2059   -3.9322    2.3284 C   0  0  0  0  0  0  0  0  0  0  0  0
    4.5194   -2.9135    3.2681 C   0  0  0  0  0  0  0  0  0  0  0  0
    3.0883   -2.4231    2.8345 C   0  0  2  0  0  0  0  0  0  0  0  0
    2.1514   -3.6628    2.9565 C   0  0  0  0  0  0  0  0  0  0  0  0
    3.0944   -2.0516    1.3045 C   0  0  1  0  0  0  0  0  0  0  0  0
    3.4216   -0.5721    1.0965 C   0  0  0  0  0  0  0  0  0  0  0  0
    2.2820    0.2890    1.6509 C   0  0  0  0  0  0  0  0  0  0  0  0
    1.7107   -0.1581    2.9997 C   0  0  0  0  0  0  0  0  0  0  0  0
    0.5597    0.3983    3.4881 C   0  0  0  0  0  0  0  0  0  0  0  0
   -0.2809    1.3997    2.6786 C   0  0  0  0  0  0  0  0  0  0  0  0
   -0.5138    2.7233    3.4161 C   0  0  0  0  0  0  0  0  0  0  0  0
   -1.1274    2.4644    4.7826 C   0  0  0  0  0  0  0  0  0  0  0  0
   -2.1526    3.0396    5.1536 O   0  0  0  0  0  0  0  0  0  0  0  0
   -0.3492    1.4704    5.6546 C   0  0  1  0  0  0  0  0  0  0  0  0
   -1.0217    1.3064    7.0396 C   0  0  0  0  0  0  0  0  0  0  0  0
   -0.0167    0.1261    4.9075 C   0  0  1  0  0  0  0  0  0  0  0  0
   -1.2901   -0.7423    4.7513 C   0  0  0  0  0  0  0  0  0  0  0  0
    1.0229   -0.6319    5.7723 C   0  0  0  0  0  0  0  0  0  0  0  0
    1.7621   -1.7206    4.9968 C   0  0  0  0  0  0  0  0  0  0  0  0
    2.5717   -1.1944    3.7691 C   0  0  1  0  0  0  0  0  0  0  0  0
    3.7448   -0.3600    4.3691 C   0  0  0  0  0  0  0  0  0  0  0  0
    3.9032   -3.0547    0.4218 C   0  0  1  0  0  0  0  0  0  0  0  0
    0.8094   -3.4469   -2.1952 H   0  0  0  0  0  0  0  0  0  0  0  0
    1.6002   -3.9753   -0.6162 H   0  0  0  0  0  0  0  0  0  0  0  0
    3.0841   -1.1017   -3.1553 H   0  0  0  0  0  0  0  0  0  0  0  0
    1.9683   -2.2763   -3.8406 H   0  0  0  0  0  0  0  0  0  0  0  0
    3.7040   -2.5878   -3.9027 H   0  0  0  0  0  0  0  0  0  0  0  0
    4.5124   -1.7943   -1.2296 H   0  0  0  0  0  0  0  0  0  0  0  0
    4.7170   -4.6525   -2.0347 H   0  0  0  0  0  0  0  0  0  0  0  0
    5.9041   -3.3674   -2.1552 H   0  0  0  0  0  0  0  0  0  0  0  0
    5.4621   -5.3375    0.0299 H   0  0  0  0  0  0  0  0  0  0  0  0
    6.8928   -4.3506   -0.2375 H   0  0  0  0  0  0  0  0  0  0  0  0
    4.6596   -4.8778    2.3218 H   0  0  0  0  0  0  0  0  0  0  0  0
    6.2018   -4.1651    2.7033 H   0  0  0  0  0  0  0  0  0  0  0  0
    4.4726   -3.3283    4.2780 H   0  0  0  0  0  0  0  0  0  0  0  0
    5.2135   -2.0771    3.3233 H   0  0  0  0  0  0  0  0  0  0  0  0
    1.1166   -3.4046    2.7333 H   0  0  0  0  0  0  0  0  0  0  0  0
    2.1821   -4.1070    3.9516 H   0  0  0  0  0  0  0  0  0  0  0  0
    2.4136   -4.4743    2.2859 H   0  0  0  0  0  0  0  0  0  0  0  0
    2.0699   -2.1434    0.9493 H   0  0  0  0  0  0  0  0  0  0  0  0
    4.3772   -0.3059    1.5416 H   0  0  0  0  0  0  0  0  0  0  0  0
    3.5193   -0.3384    0.0392 H   0  0  0  0  0  0  0  0  0  0  0  0
    2.6062    1.3278    1.7240 H   0  0  0  0  0  0  0  0  0  0  0  0
    1.4824    0.2471    0.9108 H   0  0  0  0  0  0  0  0  0  0  0  0
    0.1435    1.6486    1.7097 H   0  0  0  0  0  0  0  0  0  0  0  0
   -1.2433    0.9426    2.4554 H   0  0  0  0  0  0  0  0  0  0  0  0
    0.4347    3.2454    3.5568 H   0  0  0  0  0  0  0  0  0  0  0  0
   -1.1559    3.3868    2.8352 H   0  0  0  0  0  0  0  0  0  0  0  0
    0.6024    1.9668    5.8355 H   0  0  0  0  0  0  0  0  0  0  0  0
   -1.0962    2.2695    7.5454 H   0  0  0  0  0  0  0  0  0  0  0  0
   -0.4524    0.6591    7.7051 H   0  0  0  0  0  0  0  0  0  0  0  0
   -2.0353    0.9130    6.9612 H   0  0  0  0  0  0  0  0  0  0  0  0
   -1.6526   -1.1141    5.7094 H   0  0  0  0  0  0  0  0  0  0  0  0
   -1.0943   -1.6102    4.1200 H   0  0  0  0  0  0  0  0  0  0  0  0
   -2.1105   -0.1901    4.2914 H   0  0  0  0  0  0  0  0  0  0  0  0
    1.7410    0.0669    6.2009 H   0  0  0  0  0  0  0  0  0  0  0  0
    0.5319   -1.0930    6.6303 H   0  0  0  0  0  0  0  0  0  0  0  0
    2.4211   -2.2701    5.6690 H   0  0  0  0  0  0  0  0  0  0  0  0
    0.9773   -2.4147    4.7085 H   0  0  0  0  0  0  0  0  0  0  0  0
    4.3034   -0.9223    5.1161 H   0  0  0  0  0  0  0  0  0  0  0  0
    3.3889    0.5467    4.8559 H   0  0  0  0  0  0  0  0  0  0  0  0
    4.4542   -0.0139    3.6235 H   0  0  0  0  0  0  0  0  0  0  0  0
    3.3965   -4.0150    0.4892 H   0  0  0  0  0  0  0  0  0  0  0  0
  1  2  2  0
  1 32  1  0
  1 33  1  0
  2  3  1  0
  2  4  1  0
  3 34  1  0
  3 35  1  0
  3 36  1  0
  4 31  1  0
  4  5  1  0
  4 37  1  1
  5  6  1  0
  5 38  1  0
  5 39  1  0
  6  7  1  0
  6 40  1  0
  6 41  1  0
  7 31  1  0
  7  8  1  1
  7 10  1  0
  8  9  3  0
 10 11  1  0
 10 42  1  0
 10 43  1  0
 11 12  1  0
 11 44  1  0
 11 45  1  0
 12 29  1  0
 12 13  1  6
 12 14  1  0
 13 46  1  0
 13 47  1  0
 13 48  1  0
 14 15  1  0
 14 31  1  0
 14 49  1  6
 15 16  1  0
 15 50  1  0
 15 51  1  0
 16 17  1  0
 16 52  1  0
 16 53  1  0
 17 29  1  0
 17 18  2  0
 18 25  1  0
 18 19  1  0
 19 20  1  0
 19 54  1  0
 19 55  1  0
 20 21  1  0
 20 56  1  0
 20 57  1  0
 21 22  2  0
 21 23  1  0
 23 24  1  0
 23 25  1  0
 23 58  1  1
 24 59  1  0
 24 60  1  0
 24 61  1  0
 25 26  1  6
 25 27  1  0
 26 62  1  0
 26 63  1  0
 26 64  1  0
 27 28  1  0
 27 65  1  0
 27 66  1  0
 28 29  1  0
 28 67  1  0
 28 68  1  0
 29 30  1  1
 30 69  1  0
 30 70  1  0
 30 71  1  0
 31 72  1  6
M  END
>  <i_m_ct_stereo_status>  (382) 
1

>  <s_m_source_file>  (382) 
/var/tmp/pbs.5076255.sched01/tmp54n2b71h/144k2pf1zoq.sdf

>  <i_m_source_file_index>  (382) 
22

>  <i_lp_mmshare_version>  (382) 
48012

>  <i_f3d_flags>  (382) 
0

>  <s_epik_input>  (382) 
W0NIMl09QyhbQ0gzXSlbQ0BIXShbQ0gyXVtDSDJdMSlbQ0BASF0oW0NAXTEyQyNOKVtDQEhdM1tDQEBdKFtDSDNdKShbQ0gyXVtDSDJdMilbQ0BAXTQoW0NIM10pQyhbQ0gyXVtDSDJdMyk9QzVbQ0BAXShbQ0gzXSkoW0NIMl1bQ0gyXTQpW0NASF0oW0NIM10pQyg9TylbQ0gyXVtDSDJdNQ==

>  <s_epik_cmdline>  (382) 
J2VwaWtfcHl0aG9uJywgJy1waHQnLCAnMi4wJywgJy1waCcsICc3LjAnLCAnLXRuJywgJzgnLCAnLW1hJywgJzIwMCcsICctaW1hZScsICc8aW5maWxlLm1hZT4nLCAnLW9tYWUnLCAnPG91dGZpbGUubWFlPic=

>  <r_lp_tautomer_probability>  (382) 
1

>  <r_epik_Ionization_Penalty>  (382) 
1.34584e-13

>  <r_epik_Ionization_Penalty_Charging>  (382) 
0

>  <r_epik_Ionization_Penalty_Neutral>  (382) 
1.34584e-13

>  <r_epik_State_Penalty>  (382) 
-0

>  <r_epik_Charging_Adjusted_Penalty>  (382) 
0

>  <i_epik_Tot_Q>  (382) 
0

>  <i_epik_Tot_abs_Q>  (382) 
0

>  <s_lp_Force_Field>  (382) 
OPLS3e

>  <r_lp_Energy>  (382) 
62.4829

>  <b_lp_Chiralities_Consistent>  (382) 
1

>  <s_lp_Variant>  (382) 
108:0-1

>  <s_i_glide_gridfile>  (382) 
pfpi4k_grid

>  <i_i_glide_lignum>  (382) 
22

>  <i_i_glide_rotatable_bonds>  (382) 
2

>  <r_i_docking_score>  (382) 
-2.69027

>  <r_i_glide_ligand_efficiency>  (382) 
-0.0867828

>  <r_i_glide_ligand_efficiency_sa>  (382) 
-0.272618

>  <r_i_glide_ligand_efficiency_ln>  (382) 
-0.606737

>  <r_i_glide_gscore>  (382) 
-2.69027

>  <r_i_glide_lipo>  (382) 
-0.271611

>  <r_i_glide_hbond>  (382) 
0

>  <r_i_glide_metal>  (382) 
-0

>  <r_i_glide_rewards>  (382) 
-0.682809

>  <r_i_glide_evdw>  (382) 
-34.5904

>  <r_i_glide_ecoul>  (382) 
-0.700644

>  <r_i_glide_erotb>  (382) 
0.112353

>  <r_i_glide_esite>  (382) 
-0.0135805

>  <r_i_glide_emodel>  (382) 
-40.4667

>  <r_i_glide_energy>  (382) 
-35.2911

>  <r_i_glide_einternal>  (382) 
1.29316

>  <r_i_glide_intrahb_reward>  (382) 
-0

>  <i_i_glide_confnum>  (382) 
2

>  <i_i_glide_posenum>  (382) 
17

>  <r_i_glide_eff_state_penalty>  (382) 
0

>  <ligand_id>  (382) 
108

>  <original_smiles>  (382) 
C=C(C)C1CCC2(C#N)CCC3(C)C(CCC4=C5CCC(=O)C(C)C5(C)CCC43C)C12

>  <smiles>  (382) 
[H]C([H])=C(C([H])([H])[H])C1([H])C([H])([H])C([H])([H])C2(C#N)C([H])([H])C([H])([H])C3(C([H])([H])[H])C([H])(C([H])([H])C([H])([H])C4=C5C([H])([H])C([H])([H])C(=O)C([H])(C([H])([H])[H])C5(C([H])([H])[H])C([H])([H])C([H])([H])C43C([H])([H])[H])C12[H]

$$$$
108:0:1
     RDKit          3D

 72 76  0  0  1  0  0  0  0  0999 V2000
    1.6199    5.1767    4.4064 C   0  0  0  0  0  0  0  0  0  0  0  0
    1.5880    3.8597    4.1223 C   0  0  0  0  0  0  0  0  0  0  0  0
    2.2312    3.3726    2.8340 C   0  0  0  0  0  0  0  0  0  0  0  0
    0.9146    2.7975    5.0236 C   0  0  2  0  0  0  0  0  0  0  0  0
    0.4418    3.3070    6.4187 C   0  0  0  0  0  0  0  0  0  0  0  0
    0.7190    2.1905    7.4450 C   0  0  0  0  0  0  0  0  0  0  0  0
    1.0437    0.9505    6.6018 C   0  0  2  0  0  0  0  0  0  0  0  0
   -0.2430    0.3210    6.2325 C   0  0  0  0  0  0  0  0  0  0  0  0
   -1.2567   -0.1713    5.9649 N   0  0  0  0  0  0  0  0  0  0  0  0
    1.9790   -0.0732    7.2620 C   0  0  0  0  0  0  0  0  0  0  0  0
    2.3544   -1.1941    6.2599 C   0  0  0  0  0  0  0  0  0  0  0  0
    3.0329   -0.7037    4.9248 C   0  0  2  0  0  0  0  0  0  0  0  0
    4.4279   -0.1298    5.3272 C   0  0  0  0  0  0  0  0  0  0  0  0
    2.2364    0.5170    4.3351 C   0  0  1  0  0  0  0  0  0  0  0  0
    1.1435    0.0739    3.3573 C   0  0  0  0  0  0  0  0  0  0  0  0
    1.8131   -0.5034    2.1115 C   0  0  0  0  0  0  0  0  0  0  0  0
    3.0049   -1.4346    2.3714 C   0  0  0  0  0  0  0  0  0  0  0  0
    3.7978   -1.8589    1.3347 C   0  0  0  0  0  0  0  0  0  0  0  0
    3.6355   -1.3524   -0.1041 C   0  0  0  0  0  0  0  0  0  0  0  0
    3.4155   -2.4791   -1.1267 C   0  0  0  0  0  0  0  0  0  0  0  0
    4.5527   -3.4749   -1.0266 C   0  0  0  0  0  0  0  0  0  0  0  0
    5.2179   -3.7976   -2.0139 O   0  0  0  0  0  0  0  0  0  0  0  0
    4.8013   -4.0326    0.3793 C   0  0  1  0  0  0  0  0  0  0  0  0
    5.9460   -5.0727    0.3760 C   0  0  0  0  0  0  0  0  0  0  0  0
    4.9295   -2.9042    1.4687 C   0  0  1  0  0  0  0  0  0  0  0  0
    6.2775   -2.1602    1.3148 C   0  0  0  0  0  0  0  0  0  0  0  0
    4.8649   -3.5999    2.8484 C   0  0  0  0  0  0  0  0  0  0  0  0
    4.5441   -2.6317    3.9864 C   0  0  0  0  0  0  0  0  0  0  0  0
    3.1745   -1.9057    3.8382 C   0  0  1  0  0  0  0  0  0  0  0  0
    2.0862   -3.0033    4.0228 C   0  0  0  0  0  0  0  0  0  0  0  0
    1.7861    1.5702    5.4038 C   0  0  1  0  0  0  0  0  0  0  0  0
    2.1106    5.8511    3.7213 H   0  0  0  0  0  0  0  0  0  0  0  0
    1.1743    5.6216    5.2818 H   0  0  0  0  0  0  0  0  0  0  0  0
    3.1120    2.7892    3.0337 H   0  0  0  0  0  0  0  0  0  0  0  0
    2.5228    4.2173    2.1977 H   0  0  0  0  0  0  0  0  0  0  0  0
    1.5210    2.7958    2.2432 H   0  0  0  0  0  0  0  0  0  0  0  0
    0.0234    2.4505    4.5037 H   0  0  0  0  0  0  0  0  0  0  0  0
    0.9910    4.1726    6.7883 H   0  0  0  0  0  0  0  0  0  0  0  0
   -0.6150    3.5895    6.3979 H   0  0  0  0  0  0  0  0  0  0  0  0
    1.5802    2.4772    8.0528 H   0  0  0  0  0  0  0  0  0  0  0  0
   -0.1225    2.0443    8.1276 H   0  0  0  0  0  0  0  0  0  0  0  0
    2.8701    0.4198    7.6577 H   0  0  0  0  0  0  0  0  0  0  0  0
    1.4711   -0.5140    8.1252 H   0  0  0  0  0  0  0  0  0  0  0  0
    2.9981   -1.9218    6.7579 H   0  0  0  0  0  0  0  0  0  0  0  0
    1.4167   -1.7026    6.0475 H   0  0  0  0  0  0  0  0  0  0  0  0
    4.9956    0.1994    4.4539 H   0  0  0  0  0  0  0  0  0  0  0  0
    5.0403   -0.8423    5.8773 H   0  0  0  0  0  0  0  0  0  0  0  0
    4.3694    0.7419    5.9739 H   0  0  0  0  0  0  0  0  0  0  0  0
    2.9735    0.9960    3.7192 H   0  0  0  0  0  0  0  0  0  0  0  0
    0.4409   -0.6323    3.7981 H   0  0  0  0  0  0  0  0  0  0  0  0
    0.5280    0.9155    3.0465 H   0  0  0  0  0  0  0  0  0  0  0  0
    1.0695   -1.0316    1.5209 H   0  0  0  0  0  0  0  0  0  0  0  0
    2.1590    0.3450    1.5154 H   0  0  0  0  0  0  0  0  0  0  0  0
    2.8157   -0.6543   -0.2129 H   0  0  0  0  0  0  0  0  0  0  0  0
    4.5210   -0.7805   -0.3859 H   0  0  0  0  0  0  0  0  0  0  0  0
    2.4809   -3.0012   -0.9171 H   0  0  0  0  0  0  0  0  0  0  0  0
    3.3401   -2.0896   -2.1437 H   0  0  0  0  0  0  0  0  0  0  0  0
    3.8914   -4.5871    0.6057 H   0  0  0  0  0  0  0  0  0  0  0  0
    5.7145   -5.8826   -0.3149 H   0  0  0  0  0  0  0  0  0  0  0  0
    6.0990   -5.5365    1.3498 H   0  0  0  0  0  0  0  0  0  0  0  0
    6.8964   -4.6432    0.0547 H   0  0  0  0  0  0  0  0  0  0  0  0
    7.1120   -2.8156    1.5622 H   0  0  0  0  0  0  0  0  0  0  0  0
    6.3343   -1.2979    1.9817 H   0  0  0  0  0  0  0  0  0  0  0  0
    6.4509   -1.7926    0.3024 H   0  0  0  0  0  0  0  0  0  0  0  0
    4.1306   -4.4046    2.8356 H   0  0  0  0  0  0  0  0  0  0  0  0
    5.8149   -4.0868    3.0704 H   0  0  0  0  0  0  0  0  0  0  0  0
    4.5865   -3.1558    4.9422 H   0  0  0  0  0  0  0  0  0  0  0  0
    5.3821   -1.9396    3.9848 H   0  0  0  0  0  0  0  0  0  0  0  0
    2.2351   -3.5722    4.9434 H   0  0  0  0  0  0  0  0  0  0  0  0
    2.0898   -3.7215    3.2008 H   0  0  0  0  0  0  0  0  0  0  0  0
    1.0715   -2.6110    4.0424 H   0  0  0  0  0  0  0  0  0  0  0  0
    2.6956    2.0181    5.7962 H   0  0  0  0  0  0  0  0  0  0  0  0
  1  2  2  0
  1 32  1  0
  1 33  1  0
  2  3  1  0
  2  4  1  0
  3 34  1  0
  3 35  1  0
  3 36  1  0
  4 31  1  0
  4  5  1  0
  4 37  1  6
  5  6  1  0
  5 38  1  0
  5 39  1  0
  6  7  1  0
  6 40  1  0
  6 41  1  0
  7 31  1  0
  7  8  1  6
  7 10  1  0
  8  9  3  0
 10 11  1  0
 10 42  1  0
 10 43  1  0
 11 12  1  0
 11 44  1  0
 11 45  1  0
 12 29  1  0
 12 13  1  1
 12 14  1  0
 13 46  1  0
 13 47  1  0
 13 48  1  0
 14 15  1  0
 14 31  1  0
 14 49  1  6
 15 16  1  0
 15 50  1  0
 15 51  1  0
 16 17  1  0
 16 52  1  0
 16 53  1  0
 17 29  1  0
 17 18  2  0
 18 25  1  0
 18 19  1  0
 19 20  1  0
 19 54  1  0
 19 55  1  0
 20 21  1  0
 20 56  1  0
 20 57  1  0
 21 22  2  0
 21 23  1  0
 23 24  1  0
 23 25  1  0
 23 58  1  1
 24 59  1  0
 24 60  1  0
 24 61  1  0
 25 26  1  6
 25 27  1  0
 26 62  1  0
 26 63  1  0
 26 64  1  0
 27 28  1  0
 27 65  1  0
 27 66  1  0
 28 29  1  0
 28 67  1  0
 28 68  1  0
 29 30  1  1
 30 69  1  0
 30 70  1  0
 30 71  1  0
 31 72  1  1
M  END
>  <i_m_ct_stereo_status>  (383) 
1

>  <s_m_source_file>  (383) 
/var/tmp/pbs.5076255.sched01/tmp54n2b71h/144k2pf1zoq.sdf

>  <i_m_source_file_index>  (383) 
22

>  <i_lp_mmshare_version>  (383) 
48012

>  <i_f3d_flags>  (383) 
0

>  <s_epik_input>  (383) 
W0NIMl09QyhbQ0gzXSlbQ0BIXShbQ0gyXVtDSDJdMSlbQ0BASF0oW0NAXTEyQyNOKVtDQEhdM1tDQEBdKFtDSDNdKShbQ0gyXVtDSDJdMilbQ0BAXTQoW0NIM10pQyhbQ0gyXVtDSDJdMyk9QzVbQ0BAXShbQ0gzXSkoW0NIMl1bQ0gyXTQpW0NASF0oW0NIM10pQyg9TylbQ0gyXVtDSDJdNQ==

>  <s_epik_cmdline>  (383) 
J2VwaWtfcHl0aG9uJywgJy1waHQnLCAnMi4wJywgJy1waCcsICc3LjAnLCAnLXRuJywgJzgnLCAnLW1hJywgJzIwMCcsICctaW1hZScsICc8aW5maWxlLm1hZT4nLCAnLW9tYWUnLCAnPG91dGZpbGUubWFlPic=

>  <r_lp_tautomer_probability>  (383) 
1

>  <r_epik_Ionization_Penalty>  (383) 
1.34584e-13

>  <r_epik_Ionization_Penalty_Charging>  (383) 
0

>  <r_epik_Ionization_Penalty_Neutral>  (383) 
1.34584e-13

>  <r_epik_State_Penalty>  (383) 
-0

>  <r_epik_Charging_Adjusted_Penalty>  (383) 
0

>  <i_epik_Tot_Q>  (383) 
0

>  <i_epik_Tot_abs_Q>  (383) 
0

>  <s_lp_Force_Field>  (383) 
OPLS3e

>  <r_lp_Energy>  (383) 
62.4829

>  <b_lp_Chiralities_Consistent>  (383) 
1

>  <s_lp_Variant>  (383) 
108:0-1

>  <s_i_glide_gridfile>  (383) 
pfpi4k_grid

>  <i_i_glide_lignum>  (383) 
22

>  <i_i_glide_rotatable_bonds>  (383) 
2

>  <r_i_docking_score>  (383) 
-2.45113

>  <r_i_glide_ligand_efficiency>  (383) 
-0.0790686

>  <r_i_glide_ligand_efficiency_sa>  (383) 
-0.248385

>  <r_i_glide_ligand_efficiency_ln>  (383) 
-0.552804

>  <r_i_glide_gscore>  (383) 
-2.45113

>  <r_i_glide_lipo>  (383) 
-0.377474

>  <r_i_glide_hbond>  (383) 
-0.0379549

>  <r_i_glide_metal>  (383) 
-0

>  <r_i_glide_rewards>  (383) 
-0.570128

>  <r_i_glide_evdw>  (383) 
-24.6651

>  <r_i_glide_ecoul>  (383) 
-2.12117

>  <r_i_glide_erotb>  (383) 
0.112353

>  <r_i_glide_esite>  (383) 
-0.0264953

>  <r_i_glide_emodel>  (383) 
-30.3285

>  <r_i_glide_energy>  (383) 
-26.7862

>  <r_i_glide_einternal>  (383) 
3.07572

>  <r_i_glide_intrahb_reward>  (383) 
-0

>  <i_i_glide_confnum>  (383) 
2

>  <i_i_glide_posenum>  (383) 
9

>  <r_i_glide_eff_state_penalty>  (383) 
0

>  <ligand_id>  (383) 
108

>  <original_smiles>  (383) 
C=C(C)C1CCC2(C#N)CCC3(C)C(CCC4=C5CCC(=O)C(C)C5(C)CCC43C)C12

>  <smiles>  (383) 
[H]C([H])=C(C([H])([H])[H])C1([H])C([H])([H])C([H])([H])C2(C#N)C([H])([H])C([H])([H])C3(C([H])([H])[H])C([H])(C([H])([H])C([H])([H])C4=C5C([H])([H])C([H])([H])C(=O)C([H])(C([H])([H])[H])C5(C([H])([H])[H])C([H])([H])C([H])([H])C43C([H])([H])[H])C12[H]

$$$$
108:0:2
     RDKit          3D

 72 76  0  0  1  0  0  0  0  0999 V2000
    2.4741    3.7350    3.9912 C   0  0  0  0  0  0  0  0  0  0  0  0
    1.1674    3.7380    4.3153 C   0  0  0  0  0  0  0  0  0  0  0  0
    0.2874    4.9045    3.9034 C   0  0  0  0  0  0  0  0  0  0  0  0
    0.4510    2.6279    5.0914 C   0  0  2  0  0  0  0  0  0  0  0  0
   -0.1291    3.0873    6.4528 C   0  0  0  0  0  0  0  0  0  0  0  0
    0.0795    1.9210    7.4442 C   0  0  0  0  0  0  0  0  0  0  0  0
    0.4718    0.7159    6.5722 C   0  0  2  0  0  0  0  0  0  0  0  0
   -0.7647    0.0851    6.0697 C   0  0  0  0  0  0  0  0  0  0  0  0
   -1.7425   -0.4151    5.6914 N   0  0  0  0  0  0  0  0  0  0  0  0
    1.3790   -0.3257    7.2541 C   0  0  0  0  0  0  0  0  0  0  0  0
    1.8558   -1.3772    6.2233 C   0  0  0  0  0  0  0  0  0  0  0  0
    2.6195   -0.8119    4.9687 C   0  0  2  0  0  0  0  0  0  0  0  0
    3.9676   -0.2369    5.5029 C   0  0  0  0  0  0  0  0  0  0  0  0
    1.8394    0.4192    4.3851 C   0  0  1  0  0  0  0  0  0  0  0  0
    0.8390    0.0162    3.3034 C   0  0  0  0  0  0  0  0  0  0  0  0
    1.6163   -0.4985    2.0916 C   0  0  0  0  0  0  0  0  0  0  0  0
    2.8028   -1.4261    2.3929 C   0  0  0  0  0  0  0  0  0  0  0  0
    3.6831   -1.7840    1.4096 C   0  0  0  0  0  0  0  0  0  0  0  0
    3.6160   -1.2152   -0.0091 C   0  0  0  0  0  0  0  0  0  0  0  0
    3.5003   -2.2870   -1.0996 C   0  0  0  0  0  0  0  0  0  0  0  0
    4.6446   -3.2733   -0.9624 C   0  0  0  0  0  0  0  0  0  0  0  0
    5.3938   -3.5262   -1.9105 O   0  0  0  0  0  0  0  0  0  0  0  0
    4.7959   -3.8983    0.4272 C   0  0  1  0  0  0  0  0  0  0  0  0
    5.9577   -4.9154    0.4593 C   0  0  0  0  0  0  0  0  0  0  0  0
    4.8214   -2.8221    1.5764 C   0  0  1  0  0  0  0  0  0  0  0  0
    6.1625   -2.0494    1.5627 C   0  0  0  0  0  0  0  0  0  0  0  0
    4.6632   -3.5829    2.9158 C   0  0  0  0  0  0  0  0  0  0  0  0
    4.2379   -2.6759    4.0693 C   0  0  0  0  0  0  0  0  0  0  0  0
    2.8670   -1.9595    3.8455 C   0  0  1  0  0  0  0  0  0  0  0  0
    1.7921   -3.0878    3.8989 C   0  0  0  0  0  0  0  0  0  0  0  0
    1.2909    1.3920    5.4754 C   0  0  1  0  0  0  0  0  0  0  0  0
    2.8854    4.5359    3.3963 H   0  0  0  0  0  0  0  0  0  0  0  0
    3.1543    2.9574    4.2930 H   0  0  0  0  0  0  0  0  0  0  0  0
   -0.5193    4.5765    3.2496 H   0  0  0  0  0  0  0  0  0  0  0  0
    0.8676    5.6516    3.3618 H   0  0  0  0  0  0  0  0  0  0  0  0
   -0.1473    5.3964    4.7736 H   0  0  0  0  0  0  0  0  0  0  0  0
   -0.3957    2.3102    4.4852 H   0  0  0  0  0  0  0  0  0  0  0  0
    0.3775    3.9818    6.8186 H   0  0  0  0  0  0  0  0  0  0  0  0
   -1.1890    3.3389    6.3610 H   0  0  0  0  0  0  0  0  0  0  0  0
    0.8846    2.1759    8.1383 H   0  0  0  0  0  0  0  0  0  0  0  0
   -0.8091    1.7277    8.0514 H   0  0  0  0  0  0  0  0  0  0  0  0
    2.2304    0.1579    7.7377 H   0  0  0  0  0  0  0  0  0  0  0  0
    0.8270   -0.8243    8.0541 H   0  0  0  0  0  0  0  0  0  0  0  0
    2.4768   -2.1222    6.7298 H   0  0  0  0  0  0  0  0  0  0  0  0
    0.9504   -1.8995    5.9213 H   0  0  0  0  0  0  0  0  0  0  0  0
    4.5949    0.1401    4.6954 H   0  0  0  0  0  0  0  0  0  0  0  0
    4.5423   -0.9744    6.0624 H   0  0  0  0  0  0  0  0  0  0  0  0
    3.8449    0.5906    6.1927 H   0  0  0  0  0  0  0  0  0  0  0  0
    2.5853    0.9739    3.8222 H   0  0  0  0  0  0  0  0  0  0  0  0
    0.1214   -0.7235    3.6600 H   0  0  0  0  0  0  0  0  0  0  0  0
    0.2473    0.8661    2.9802 H   0  0  0  0  0  0  0  0  0  0  0  0
    0.9313   -1.0175    1.4258 H   0  0  0  0  0  0  0  0  0  0  0  0
    1.9912    0.3799    1.5629 H   0  0  0  0  0  0  0  0  0  0  0  0
    2.7768   -0.5475   -0.1353 H   0  0  0  0  0  0  0  0  0  0  0  0
    4.4999   -0.6063   -0.1921 H   0  0  0  0  0  0  0  0  0  0  0  0
    2.5571   -2.8303   -0.9934 H   0  0  0  0  0  0  0  0  0  0  0  0
    3.4969   -1.8444   -2.0947 H   0  0  0  0  0  0  0  0  0  0  0  0
    3.8802   -4.4722    0.5632 H   0  0  0  0  0  0  0  0  0  0  0  0
    5.7968   -5.6937   -0.2880 H   0  0  0  0  0  0  0  0  0  0  0  0
    6.0470   -5.4244    1.4172 H   0  0  0  0  0  0  0  0  0  0  0  0
    6.9206   -4.4542    0.2324 H   0  0  0  0  0  0  0  0  0  0  0  0
    6.9921   -2.7054    1.8152 H   0  0  0  0  0  0  0  0  0  0  0  0
    6.1577   -1.2247    2.2784 H   0  0  0  0  0  0  0  0  0  0  0  0
    6.3932   -1.6216    0.5879 H   0  0  0  0  0  0  0  0  0  0  0  0
    3.9474   -4.3967    2.8042 H   0  0  0  0  0  0  0  0  0  0  0  0
    5.6039   -4.0650    3.1835 H   0  0  0  0  0  0  0  0  0  0  0  0
    4.2161   -3.2464    4.9981 H   0  0  0  0  0  0  0  0  0  0  0  0
    5.0617   -1.9727    4.1637 H   0  0  0  0  0  0  0  0  0  0  0  0
    1.8860   -3.6947    4.7976 H   0  0  0  0  0  0  0  0  0  0  0  0
    1.8754   -3.7619    3.0474 H   0  0  0  0  0  0  0  0  0  0  0  0
    0.7741   -2.7132    3.8593 H   0  0  0  0  0  0  0  0  0  0  0  0
    2.1554    1.8103    5.9843 H   0  0  0  0  0  0  0  0  0  0  0  0
  1  2  2  0
  1 32  1  0
  1 33  1  0
  2  3  1  0
  2  4  1  0
  3 34  1  0
  3 35  1  0
  3 36  1  0
  4 31  1  0
  4  5  1  0
  4 37  1  6
  5  6  1  0
  5 38  1  0
  5 39  1  0
  6  7  1  0
  6 40  1  0
  6 41  1  0
  7 31  1  0
  7  8  1  6
  7 10  1  0
  8  9  3  0
 10 11  1  0
 10 42  1  0
 10 43  1  0
 11 12  1  0
 11 44  1  0
 11 45  1  0
 12 29  1  0
 12 13  1  1
 12 14  1  0
 13 46  1  0
 13 47  1  0
 13 48  1  0
 14 15  1  0
 14 31  1  0
 14 49  1  6
 15 16  1  0
 15 50  1  0
 15 51  1  0
 16 17  1  0
 16 52  1  0
 16 53  1  0
 17 29  1  0
 17 18  2  0
 18 25  1  0
 18 19  1  0
 19 20  1  0
 19 54  1  0
 19 55  1  0
 20 21  1  0
 20 56  1  0
 20 57  1  0
 21 22  2  0
 21 23  1  0
 23 24  1  0
 23 25  1  0
 23 58  1  1
 24 59  1  0
 24 60  1  0
 24 61  1  0
 25 26  1  1
 25 27  1  0
 26 62  1  0
 26 63  1  0
 26 64  1  0
 27 28  1  0
 27 65  1  0
 27 66  1  0
 28 29  1  0
 28 67  1  0
 28 68  1  0
 29 30  1  6
 30 69  1  0
 30 70  1  0
 30 71  1  0
 31 72  1  1
M  END
>  <i_m_ct_stereo_status>  (384) 
1

>  <s_m_source_file>  (384) 
/var/tmp/pbs.5076255.sched01/tmp54n2b71h/144k2pf1zoq.sdf

>  <i_m_source_file_index>  (384) 
22

>  <i_lp_mmshare_version>  (384) 
48012

>  <i_f3d_flags>  (384) 
0

>  <s_epik_input>  (384) 
W0NIMl09QyhbQ0gzXSlbQ0BIXShbQ0gyXVtDSDJdMSlbQ0BASF0oW0NAXTEyQyNOKVtDQEhdM1tDQEBdKFtDSDNdKShbQ0gyXVtDSDJdMilbQ0BAXTQoW0NIM10pQyhbQ0gyXVtDSDJdMyk9QzVbQ0BAXShbQ0gzXSkoW0NIMl1bQ0gyXTQpW0NASF0oW0NIM10pQyg9TylbQ0gyXVtDSDJdNQ==

>  <s_epik_cmdline>  (384) 
J2VwaWtfcHl0aG9uJywgJy1waHQnLCAnMi4wJywgJy1waCcsICc3LjAnLCAnLXRuJywgJzgnLCAnLW1hJywgJzIwMCcsICctaW1hZScsICc8aW5maWxlLm1hZT4nLCAnLW9tYWUnLCAnPG91dGZpbGUubWFlPic=

>  <r_lp_tautomer_probability>  (384) 
1

>  <r_epik_Ionization_Penalty>  (384) 
1.34584e-13

>  <r_epik_Ionization_Penalty_Charging>  (384) 
0

>  <r_epik_Ionization_Penalty_Neutral>  (384) 
1.34584e-13

>  <r_epik_State_Penalty>  (384) 
-0

>  <r_epik_Charging_Adjusted_Penalty>  (384) 
0

>  <i_epik_Tot_Q>  (384) 
0

>  <i_epik_Tot_abs_Q>  (384) 
0

>  <s_lp_Force_Field>  (384) 
OPLS3e

>  <r_lp_Energy>  (384) 
62.4829

>  <b_lp_Chiralities_Consistent>  (384) 
1

>  <s_lp_Variant>  (384) 
108:0-1

>  <s_i_glide_gridfile>  (384) 
pfpi4k_grid

>  <i_i_glide_lignum>  (384) 
22

>  <i_i_glide_rotatable_bonds>  (384) 
2

>  <r_i_docking_score>  (384) 
-2.41848

>  <r_i_glide_ligand_efficiency>  (384) 
-0.0780154

>  <r_i_glide_ligand_efficiency_sa>  (384) 
-0.245076

>  <r_i_glide_ligand_efficiency_ln>  (384) 
-0.545441

>  <r_i_glide_gscore>  (384) 
-2.41848

>  <r_i_glide_lipo>  (384) 
-0.351133

>  <r_i_glide_hbond>  (384) 
-0.0457916

>  <r_i_glide_metal>  (384) 
-0

>  <r_i_glide_rewards>  (384) 
-0.589754

>  <r_i_glide_evdw>  (384) 
-24.6203

>  <r_i_glide_ecoul>  (384) 
-1.78561

>  <r_i_glide_erotb>  (384) 
0.112353

>  <r_i_glide_esite>  (384) 
-0.0452933

>  <r_i_glide_emodel>  (384) 
-31.0726

>  <r_i_glide_energy>  (384) 
-26.4059

>  <r_i_glide_einternal>  (384) 
0.839608

>  <r_i_glide_intrahb_reward>  (384) 
-0

>  <i_i_glide_confnum>  (384) 
2

>  <i_i_glide_posenum>  (384) 
29

>  <r_i_glide_eff_state_penalty>  (384) 
0

>  <ligand_id>  (384) 
108

>  <original_smiles>  (384) 
C=C(C)C1CCC2(C#N)CCC3(C)C(CCC4=C5CCC(=O)C(C)C5(C)CCC43C)C12

>  <smiles>  (384) 
[H]C([H])=C(C([H])([H])[H])C1([H])C([H])([H])C([H])([H])C2(C#N)C([H])([H])C([H])([H])C3(C([H])([H])[H])C([H])(C([H])([H])C([H])([H])C4=C5C([H])([H])C([H])([H])C(=O)C([H])(C([H])([H])[H])C5(C([H])([H])[H])C([H])([H])C([H])([H])C43C([H])([H])[H])C12[H]

$$$$
109:0:0
     RDKit          3D

 31 33  0  0  1  0  0  0  0  0999 V2000
    2.1148   -8.0786    2.1279 C   0  0  0  0  0  0  0  0  0  0  0  0
    3.5011   -7.8109    2.3193 O   0  0  0  0  0  0  0  0  0  0  0  0
    4.0729   -6.7783    1.6065 C   0  0  0  0  0  0  0  0  0  0  0  0
    5.4666   -6.5819    1.7311 C   0  0  0  0  0  0  0  0  0  0  0  0
    6.1429   -5.5408    1.0303 C   0  0  0  0  0  0  0  0  0  0  0  0
    7.4989   -5.3134    1.1110 O   0  0  0  0  0  0  0  0  0  0  0  0
    8.2825   -6.2051    1.8930 C   0  0  0  0  0  0  0  0  0  0  0  0
    5.4087   -4.6622    0.1992 C   0  0  0  0  0  0  0  0  0  0  0  0
    5.6955   -3.5350   -0.6484 C   0  0  0  0  0  0  0  0  0  0  0  0
    4.4798   -3.1458   -1.1743 C   0  0  0  0  0  0  0  0  0  0  0  0
    4.1301   -2.0938   -2.1162 C   0  0  0  0  0  0  0  0  0  0  0  0
    4.8816   -1.0208   -2.3191 N   0  0  0  0  0  0  0  0  0  0  0  0
    4.1843   -0.2921   -3.2656 N   0  0  0  0  0  0  0  0  0  0  0  0
    3.1211   -0.9239   -3.6557 N   0  0  0  0  0  0  0  0  0  0  0  0
    3.0600   -2.0627   -2.9255 N   0  0  0  0  0  0  0  0  0  0  0  0
    1.9681   -2.9988   -3.1098 C   0  0  0  0  0  0  0  0  0  0  0  0
    3.4561   -3.9175   -0.7049 O   0  0  0  0  0  0  0  0  0  0  0  0
    4.0132   -4.8716    0.1151 C   0  0  0  0  0  0  0  0  0  0  0  0
    3.3414   -5.9026    0.7753 C   0  0  0  0  0  0  0  0  0  0  0  0
    1.8220   -8.9134    2.7654 H   0  0  0  0  0  0  0  0  0  0  0  0
    1.9000   -8.3631    1.0961 H   0  0  0  0  0  0  0  0  0  0  0  0
    1.4860   -7.2294    2.4014 H   0  0  0  0  0  0  0  0  0  0  0  0
    6.0046   -7.2552    2.3816 H   0  0  0  0  0  0  0  0  0  0  0  0
    9.3200   -5.8834    1.8629 H   0  0  0  0  0  0  0  0  0  0  0  0
    8.2449   -7.2200    1.4967 H   0  0  0  0  0  0  0  0  0  0  0  0
    7.9842   -6.2154    2.9416 H   0  0  0  0  0  0  0  0  0  0  0  0
    6.6653   -3.0968   -0.8310 H   0  0  0  0  0  0  0  0  0  0  0  0
    2.3438   -4.0189   -3.1186 H   0  0  0  0  0  0  0  0  0  0  0  0
    1.4691   -2.8161   -4.0661 H   0  0  0  0  0  0  0  0  0  0  0  0
    1.2558   -2.9110   -2.2857 H   0  0  0  0  0  0  0  0  0  0  0  0
    2.2799   -5.9899    0.6266 H   0  0  0  0  0  0  0  0  0  0  0  0
  1  2  1  0
  1 20  1  0
  1 21  1  0
  1 22  1  0
  2  3  1  0
  3 19  2  0
  3  4  1  0
  4  5  2  0
  4 23  1  0
  5  6  1  0
  5  8  1  0
  6  7  1  0
  7 24  1  0
  7 25  1  0
  7 26  1  0
  8 18  2  0
  8  9  1  0
  9 10  2  0
  9 27  1  0
 10 11  1  0
 10 17  1  0
 11 15  1  0
 11 12  2  0
 12 13  1  0
 13 14  2  0
 14 15  1  0
 15 16  1  0
 16 28  1  0
 16 29  1  0
 16 30  1  0
 17 18  1  0
 18 19  1  0
 19 31  1  0
M  END
>  <i_m_ct_stereo_status>  (385) 
1

>  <s_m_source_file>  (385) 
/var/tmp/pbs.5076255.sched01/tmp54n2b71h/144k2pf1zoq.sdf

>  <i_m_source_file_index>  (385) 
23

>  <i_lp_mmshare_version>  (385) 
48012

>  <i_f3d_flags>  (385) 
0

>  <s_epik_input>  (385) 
W0NIM11PYzFbY0hdYyhPW0NIM10pW2NIXWMoYzEyKW9jKFtjSF0yKS1jM25ubm4zW0NIM10=

>  <s_epik_cmdline>  (385) 
J2VwaWtfcHl0aG9uJywgJy1waHQnLCAnMi4wJywgJy1waCcsICc3LjAnLCAnLXRuJywgJzgnLCAnLW1hJywgJzIwMCcsICctaW1hZScsICc8aW5maWxlLm1hZT4nLCAnLW9tYWUnLCAnPG91dGZpbGUubWFlPic=

>  <r_lp_tautomer_probability>  (385) 
1

>  <r_epik_Ionization_Penalty>  (385) 
1.0151e-09

>  <r_epik_Ionization_Penalty_Charging>  (385) 
0

>  <r_epik_Ionization_Penalty_Neutral>  (385) 
1.0151e-09

>  <r_epik_State_Penalty>  (385) 
-0

>  <r_epik_Charging_Adjusted_Penalty>  (385) 
0

>  <i_epik_Tot_Q>  (385) 
0

>  <i_epik_Tot_abs_Q>  (385) 
0

>  <s_lp_Force_Field>  (385) 
OPLS3e

>  <r_lp_Energy>  (385) 
21.729

>  <b_lp_Chiralities_Consistent>  (385) 
1

>  <s_lp_Variant>  (385) 
109:0-1

>  <s_i_glide_gridfile>  (385) 
pfpi4k_grid

>  <i_i_glide_lignum>  (385) 
23

>  <i_i_glide_rotatable_bonds>  (385) 
3

>  <r_i_docking_score>  (385) 
-3.61744

>  <r_i_glide_ligand_efficiency>  (385) 
-0.190391

>  <r_i_glide_ligand_efficiency_sa>  (385) 
-0.508041

>  <r_i_glide_ligand_efficiency_ln>  (385) 
-0.917098

>  <r_i_glide_gscore>  (385) 
-3.61744

>  <r_i_glide_lipo>  (385) 
-0.502401

>  <r_i_glide_hbond>  (385) 
0

>  <r_i_glide_metal>  (385) 
-0

>  <r_i_glide_rewards>  (385) 
-1.63467

>  <r_i_glide_evdw>  (385) 
-26.778

>  <r_i_glide_ecoul>  (385) 
-2.28504

>  <r_i_glide_erotb>  (385) 
0.261322

>  <r_i_glide_esite>  (385) 
-0.0600358

>  <r_i_glide_emodel>  (385) 
-35.3847

>  <r_i_glide_energy>  (385) 
-29.063

>  <r_i_glide_einternal>  (385) 
0.580735

>  <r_i_glide_intrahb_reward>  (385) 
-0

>  <i_i_glide_confnum>  (385) 
3

>  <i_i_glide_posenum>  (385) 
27

>  <r_i_glide_eff_state_penalty>  (385) 
0

>  <ligand_id>  (385) 
109

>  <original_smiles>  (385) 
COc1cc(OC)c2cc(-c3nnnn3C)oc2c1

>  <smiles>  (385) 
[H]c1c(OC([H])([H])[H])c([H])c2oc(-c3nnnn3C([H])([H])[H])c([H])c2c1OC([H])([H])[H]

$$$$
109:0:1
     RDKit          3D

 31 33  0  0  1  0  0  0  0  0999 V2000
    4.0788   -8.7182    3.0336 C   0  0  0  0  0  0  0  0  0  0  0  0
    3.3156   -7.7530    2.3090 O   0  0  0  0  0  0  0  0  0  0  0  0
    4.0022   -6.7918    1.5980 C   0  0  0  0  0  0  0  0  0  0  0  0
    5.4115   -6.6838    1.6175 C   0  0  0  0  0  0  0  0  0  0  0  0
    6.0937   -5.6950    0.8780 C   0  0  0  0  0  0  0  0  0  0  0  0
    7.4636   -5.5738    0.8762 O   0  0  0  0  0  0  0  0  0  0  0  0
    8.2186   -6.4850    1.6654 C   0  0  0  0  0  0  0  0  0  0  0  0
    5.3570   -4.7773    0.1013 C   0  0  0  0  0  0  0  0  0  0  0  0
    5.6628   -3.6769   -0.7591 C   0  0  0  0  0  0  0  0  0  0  0  0
    4.4523   -3.2021   -1.2148 C   0  0  0  0  0  0  0  0  0  0  0  0
    4.1250   -2.1206   -2.1341 C   0  0  0  0  0  0  0  0  0  0  0  0
    4.8999   -1.0604   -2.3153 N   0  0  0  0  0  0  0  0  0  0  0  0
    4.2123   -0.2959   -3.2383 N   0  0  0  0  0  0  0  0  0  0  0  0
    3.1294   -0.8844   -3.6311 N   0  0  0  0  0  0  0  0  0  0  0  0
    3.0568   -2.0497   -2.9428 N   0  0  0  0  0  0  0  0  0  0  0  0
    1.9536   -2.9705   -3.1386 C   0  0  0  0  0  0  0  0  0  0  0  0
    3.4061   -3.9147   -0.7051 O   0  0  0  0  0  0  0  0  0  0  0  0
    3.9454   -4.8897    0.1062 C   0  0  0  0  0  0  0  0  0  0  0  0
    3.2594   -5.8752    0.8268 C   0  0  0  0  0  0  0  0  0  0  0  0
    3.4511   -9.4438    3.5625 H   0  0  0  0  0  0  0  0  0  0  0  0
    4.7041   -8.2234    3.7808 H   0  0  0  0  0  0  0  0  0  0  0  0
    4.7174   -9.2751    2.3442 H   0  0  0  0  0  0  0  0  0  0  0  0
    5.9889   -7.3704    2.2020 H   0  0  0  0  0  0  0  0  0  0  0  0
    9.2746   -6.2508    1.5745 H   0  0  0  0  0  0  0  0  0  0  0  0
    8.0786   -7.5173    1.3423 H   0  0  0  0  0  0  0  0  0  0  0  0
    7.9652   -6.4168    2.7232 H   0  0  0  0  0  0  0  0  0  0  0  0
    6.6453   -3.3102   -0.9972 H   0  0  0  0  0  0  0  0  0  0  0  0
    2.3232   -3.9957   -3.1537 H   0  0  0  0  0  0  0  0  0  0  0  0
    1.4552   -2.7671   -4.0914 H   0  0  0  0  0  0  0  0  0  0  0  0
    1.2375   -2.8711   -2.3176 H   0  0  0  0  0  0  0  0  0  0  0  0
    2.1806   -5.9353    0.7875 H   0  0  0  0  0  0  0  0  0  0  0  0
  1  2  1  0
  1 20  1  0
  1 21  1  0
  1 22  1  0
  2  3  1  0
  3 19  2  0
  3  4  1  0
  4  5  2  0
  4 23  1  0
  5  6  1  0
  5  8  1  0
  6  7  1  0
  7 24  1  0
  7 25  1  0
  7 26  1  0
  8 18  2  0
  8  9  1  0
  9 10  2  0
  9 27  1  0
 10 11  1  0
 10 17  1  0
 11 15  1  0
 11 12  2  0
 12 13  1  0
 13 14  2  0
 14 15  1  0
 15 16  1  0
 16 28  1  0
 16 29  1  0
 16 30  1  0
 17 18  1  0
 18 19  1  0
 19 31  1  0
M  END
>  <i_m_ct_stereo_status>  (386) 
1

>  <s_m_source_file>  (386) 
/var/tmp/pbs.5076255.sched01/tmp54n2b71h/144k2pf1zoq.sdf

>  <i_m_source_file_index>  (386) 
23

>  <i_lp_mmshare_version>  (386) 
48012

>  <i_f3d_flags>  (386) 
0

>  <s_epik_input>  (386) 
W0NIM11PYzFbY0hdYyhPW0NIM10pW2NIXWMoYzEyKW9jKFtjSF0yKS1jM25ubm4zW0NIM10=

>  <s_epik_cmdline>  (386) 
J2VwaWtfcHl0aG9uJywgJy1waHQnLCAnMi4wJywgJy1waCcsICc3LjAnLCAnLXRuJywgJzgnLCAnLW1hJywgJzIwMCcsICctaW1hZScsICc8aW5maWxlLm1hZT4nLCAnLW9tYWUnLCAnPG91dGZpbGUubWFlPic=

>  <r_lp_tautomer_probability>  (386) 
1

>  <r_epik_Ionization_Penalty>  (386) 
1.0151e-09

>  <r_epik_Ionization_Penalty_Charging>  (386) 
0

>  <r_epik_Ionization_Penalty_Neutral>  (386) 
1.0151e-09

>  <r_epik_State_Penalty>  (386) 
-0

>  <r_epik_Charging_Adjusted_Penalty>  (386) 
0

>  <i_epik_Tot_Q>  (386) 
0

>  <i_epik_Tot_abs_Q>  (386) 
0

>  <s_lp_Force_Field>  (386) 
OPLS3e

>  <r_lp_Energy>  (386) 
21.729

>  <b_lp_Chiralities_Consistent>  (386) 
1

>  <s_lp_Variant>  (386) 
109:0-1

>  <s_i_glide_gridfile>  (386) 
pfpi4k_grid

>  <i_i_glide_lignum>  (386) 
23

>  <i_i_glide_rotatable_bonds>  (386) 
3

>  <r_i_docking_score>  (386) 
-3.57846

>  <r_i_glide_ligand_efficiency>  (386) 
-0.18834

>  <r_i_glide_ligand_efficiency_sa>  (386) 
-0.502567

>  <r_i_glide_ligand_efficiency_ln>  (386) 
-0.907217

>  <r_i_glide_gscore>  (386) 
-3.57846

>  <r_i_glide_lipo>  (386) 
-0.490231

>  <r_i_glide_hbond>  (386) 
0

>  <r_i_glide_metal>  (386) 
-0

>  <r_i_glide_rewards>  (386) 
-1.63467

>  <r_i_glide_evdw>  (386) 
-26.2414

>  <r_i_glide_ecoul>  (386) 
-2.30486

>  <r_i_glide_erotb>  (386) 
0.261322

>  <r_i_glide_esite>  (386) 
-0.0570853

>  <r_i_glide_emodel>  (386) 
-33.3668

>  <r_i_glide_energy>  (386) 
-28.5463

>  <r_i_glide_einternal>  (386) 
3.30039

>  <r_i_glide_intrahb_reward>  (386) 
-0

>  <i_i_glide_confnum>  (386) 
3

>  <i_i_glide_posenum>  (386) 
7

>  <r_i_glide_eff_state_penalty>  (386) 
0

>  <ligand_id>  (386) 
109

>  <original_smiles>  (386) 
COc1cc(OC)c2cc(-c3nnnn3C)oc2c1

>  <smiles>  (386) 
[H]c1c(OC([H])([H])[H])c([H])c2oc(-c3nnnn3C([H])([H])[H])c([H])c2c1OC([H])([H])[H]

$$$$
109:0:2
     RDKit          3D

 31 33  0  0  1  0  0  0  0  0999 V2000
    7.7455   -2.9151   -1.4187 C   0  0  0  0  0  0  0  0  0  0  0  0
    7.0137   -1.8584   -0.7870 O   0  0  0  0  0  0  0  0  0  0  0  0
    5.8750   -2.1955   -0.0908 C   0  0  0  0  0  0  0  0  0  0  0  0
    5.4536   -3.5288    0.0938 C   0  0  0  0  0  0  0  0  0  0  0  0
    4.2841   -3.8533    0.8236 C   0  0  0  0  0  0  0  0  0  0  0  0
    3.8547   -5.1472    1.0212 O   0  0  0  0  0  0  0  0  0  0  0  0
    4.6011   -6.1821    0.3911 C   0  0  0  0  0  0  0  0  0  0  0  0
    3.5139   -2.8142    1.3893 C   0  0  0  0  0  0  0  0  0  0  0  0
    2.3278   -2.7249    2.1785 C   0  0  0  0  0  0  0  0  0  0  0  0
    2.0976   -1.3819    2.3853 C   0  0  0  0  0  0  0  0  0  0  0  0
    1.0214   -0.6824    3.0814 C   0  0  0  0  0  0  0  0  0  0  0  0
    0.3034   -1.2258    4.0612 N   0  0  0  0  0  0  0  0  0  0  0  0
   -0.5895   -0.2305    4.4237 N   0  0  0  0  0  0  0  0  0  0  0  0
   -0.4305    0.8295    3.6969 N   0  0  0  0  0  0  0  0  0  0  0  0
    0.5849    0.5642    2.8358 N   0  0  0  0  0  0  0  0  0  0  0  0
    0.9897    1.5433    1.8417 C   0  0  0  0  0  0  0  0  0  0  0  0
    3.0688   -0.6170    1.8043 O   0  0  0  0  0  0  0  0  0  0  0  0
    3.9466   -1.4826    1.1862 C   0  0  0  0  0  0  0  0  0  0  0  0
    5.1025   -1.1561    0.4674 C   0  0  0  0  0  0  0  0  0  0  0  0
    8.6219   -2.5224   -1.9507 H   0  0  0  0  0  0  0  0  0  0  0  0
    7.1211   -3.4300   -2.1619 H   0  0  0  0  0  0  0  0  0  0  0  0
    8.1151   -3.6365   -0.6785 H   0  0  0  0  0  0  0  0  0  0  0  0
    6.0353   -4.3363   -0.3192 H   0  0  0  0  0  0  0  0  0  0  0  0
    4.1528   -7.1408    0.6237 H   0  0  0  0  0  0  0  0  0  0  0  0
    5.6339   -6.2179    0.7369 H   0  0  0  0  0  0  0  0  0  0  0  0
    4.6078   -6.0739   -0.6933 H   0  0  0  0  0  0  0  0  0  0  0  0
    1.7325   -3.5470    2.5202 H   0  0  0  0  0  0  0  0  0  0  0  0
    2.0763    1.5800    1.7232 H   0  0  0  0  0  0  0  0  0  0  0  0
    0.6624    2.5442    2.1461 H   0  0  0  0  0  0  0  0  0  0  0  0
    0.5339    1.2953    0.8794 H   0  0  0  0  0  0  0  0  0  0  0  0
    5.3986   -0.1307    0.3508 H   0  0  0  0  0  0  0  0  0  0  0  0
  1  2  1  0
  1 20  1  0
  1 21  1  0
  1 22  1  0
  2  3  1  0
  3 19  2  0
  3  4  1  0
  4  5  2  0
  4 23  1  0
  5  6  1  0
  5  8  1  0
  6  7  1  0
  7 24  1  0
  7 25  1  0
  7 26  1  0
  8 18  2  0
  8  9  1  0
  9 10  2  0
  9 27  1  0
 10 11  1  0
 10 17  1  0
 11 15  1  0
 11 12  2  0
 12 13  1  0
 13 14  2  0
 14 15  1  0
 15 16  1  0
 16 28  1  0
 16 29  1  0
 16 30  1  0
 17 18  1  0
 18 19  1  0
 19 31  1  0
M  END
>  <i_m_ct_stereo_status>  (387) 
1

>  <s_m_source_file>  (387) 
/var/tmp/pbs.5076255.sched01/tmp54n2b71h/144k2pf1zoq.sdf

>  <i_m_source_file_index>  (387) 
23

>  <i_lp_mmshare_version>  (387) 
48012

>  <i_f3d_flags>  (387) 
0

>  <s_epik_input>  (387) 
W0NIM11PYzFbY0hdYyhPW0NIM10pW2NIXWMoYzEyKW9jKFtjSF0yKS1jM25ubm4zW0NIM10=

>  <s_epik_cmdline>  (387) 
J2VwaWtfcHl0aG9uJywgJy1waHQnLCAnMi4wJywgJy1waCcsICc3LjAnLCAnLXRuJywgJzgnLCAnLW1hJywgJzIwMCcsICctaW1hZScsICc8aW5maWxlLm1hZT4nLCAnLW9tYWUnLCAnPG91dGZpbGUubWFlPic=

>  <r_lp_tautomer_probability>  (387) 
1

>  <r_epik_Ionization_Penalty>  (387) 
1.0151e-09

>  <r_epik_Ionization_Penalty_Charging>  (387) 
0

>  <r_epik_Ionization_Penalty_Neutral>  (387) 
1.0151e-09

>  <r_epik_State_Penalty>  (387) 
-0

>  <r_epik_Charging_Adjusted_Penalty>  (387) 
0

>  <i_epik_Tot_Q>  (387) 
0

>  <i_epik_Tot_abs_Q>  (387) 
0

>  <s_lp_Force_Field>  (387) 
OPLS3e

>  <r_lp_Energy>  (387) 
21.729

>  <b_lp_Chiralities_Consistent>  (387) 
1

>  <s_lp_Variant>  (387) 
109:0-1

>  <s_i_glide_gridfile>  (387) 
pfpi4k_grid

>  <i_i_glide_lignum>  (387) 
23

>  <i_i_glide_rotatable_bonds>  (387) 
3

>  <r_i_docking_score>  (387) 
-3.56155

>  <r_i_glide_ligand_efficiency>  (387) 
-0.18745

>  <r_i_glide_ligand_efficiency_sa>  (387) 
-0.500192

>  <r_i_glide_ligand_efficiency_ln>  (387) 
-0.902929

>  <r_i_glide_gscore>  (387) 
-3.56155

>  <r_i_glide_lipo>  (387) 
-0.307926

>  <r_i_glide_hbond>  (387) 
-0.16

>  <r_i_glide_metal>  (387) 
-0

>  <r_i_glide_rewards>  (387) 
-1.63467

>  <r_i_glide_evdw>  (387) 
-22.3449

>  <r_i_glide_ecoul>  (387) 
-3.2945

>  <r_i_glide_erotb>  (387) 
0.261322

>  <r_i_glide_esite>  (387) 
-0.108855

>  <r_i_glide_emodel>  (387) 
-29.6347

>  <r_i_glide_energy>  (387) 
-25.6394

>  <r_i_glide_einternal>  (387) 
4.75138

>  <r_i_glide_intrahb_reward>  (387) 
-0

>  <i_i_glide_confnum>  (387) 
1

>  <i_i_glide_posenum>  (387) 
36

>  <r_i_glide_eff_state_penalty>  (387) 
0

>  <ligand_id>  (387) 
109

>  <original_smiles>  (387) 
COc1cc(OC)c2cc(-c3nnnn3C)oc2c1

>  <smiles>  (387) 
[H]c1c(OC([H])([H])[H])c([H])c2oc(-c3nnnn3C([H])([H])[H])c([H])c2c1OC([H])([H])[H]

$$$$
110:0:0
     RDKit          3D

 85 93  0  0  1  0  0  0  0  0999 V2000
    2.9765  -11.6756    3.3377 C   0  0  0  0  0  0  0  0  0  0  0  0
    3.2380  -10.1736    3.0717 C   0  0  1  0  0  0  0  0  0  0  0  0
    4.7865  -10.0308    3.0763 C   0  0  0  0  0  0  0  0  0  0  0  0
    5.3591  -10.3269    1.8084 O   0  0  0  0  0  0  0  0  0  0  0  0
    2.4328   -9.5111    1.9107 C   0  0  2  0  0  0  0  0  0  0  0  0
    2.8990   -8.1475    1.3727 C   0  0  0  0  0  0  0  0  0  0  0  0
    3.4765   -7.2590    2.4960 C   0  0  0  0  0  0  0  0  0  0  0  0
    2.9549   -7.6703    3.8980 C   0  0  1  0  0  0  0  0  0  0  0  0
    1.9537   -6.6320    4.4209 C   0  0  2  0  0  0  0  0  0  0  0  0
    2.3649   -5.2111    4.6880 C   0  0  1  0  0  0  0  0  0  0  0  0
    3.7438   -4.9753    5.2710 C   0  0  0  0  0  0  0  0  0  0  0  0
    3.2501   -5.5678    6.5843 C   0  0  1  0  0  0  0  0  0  0  0  0
    4.0792   -6.6435    7.2851 C   0  0  0  0  0  0  0  0  0  0  0  0
    2.8888   -4.4649    7.6175 C   0  0  0  0  0  0  0  0  0  0  0  0
    2.0157   -3.2951    7.1048 C   0  0  1  0  0  0  0  0  0  0  0  0
    2.8225   -2.2023    6.7021 O   0  0  0  0  0  0  0  0  0  0  0  0
    0.9404   -3.6085    6.0148 C   0  0  2  0  0  0  0  0  0  0  0  0
   -0.0097   -4.7022    6.5228 C   0  0  0  0  0  0  0  0  0  0  0  0
    0.6879   -6.0691    6.6114 C   0  0  0  0  0  0  0  0  0  0  0  0
    2.0044   -6.1228    5.8547 C   0  0  2  0  0  0  0  0  0  0  0  0
    1.4264   -4.0009    4.5752 C   0  0  1  0  0  0  0  0  0  0  0  0
    1.9944   -2.8248    3.7495 C   0  0  0  0  0  0  0  0  0  0  0  0
    0.9847   -1.7310    3.6629 N   0  0  0  0  0  0  0  0  0  0  0  0
    1.3893   -0.4296    3.0376 C   0  0  2  0  0  0  0  0  0  0  0  0
    2.5332    0.2656    3.8216 C   0  0  1  0  0  0  0  0  0  0  0  0
    2.9674    1.5282    3.0452 C   0  0  0  0  0  0  0  0  0  0  0  0
    1.7777    2.5056    2.9311 C   0  0  2  0  0  0  0  0  0  0  0  0
    1.3070    2.9200    4.3427 C   0  0  0  0  0  0  0  0  0  0  0  0
    0.8649    1.6627    5.1196 C   0  0  2  0  0  0  0  0  0  0  0  0
    2.0578    0.6976    5.2331 C   0  0  0  0  0  0  0  0  0  0  0  0
   -0.2910    0.9626    4.3758 C   0  0  0  0  0  0  0  0  0  0  0  0
    0.1876    0.5431    2.9628 C   0  0  1  0  0  0  0  0  0  0  0  0
    0.6185    1.8076    2.1904 C   0  0  0  0  0  0  0  0  0  0  0  0
    2.4294   -9.1282    3.9033 C   0  0  1  0  0  0  0  0  0  0  0  0
    1.2774   -9.3995    2.9173 C   0  0  0  0  0  0  0  0  0  0  0  0
    3.4046  -12.3113    2.5543 H   0  0  0  0  0  0  0  0  0  0  0  0
    1.9118  -11.9199    3.4119 H   0  0  0  0  0  0  0  0  0  0  0  0
    3.4639  -12.0315    4.2538 H   0  0  0  0  0  0  0  0  0  0  0  0
    5.1118   -9.0367    3.3341 H   0  0  0  0  0  0  0  0  0  0  0  0
    5.2494  -10.7449    3.7860 H   0  0  0  0  0  0  0  0  0  0  0  0
    4.8360  -10.9907    1.3548 H   0  0  0  0  0  0  0  0  0  0  0  0
    2.2000  -10.2055    1.1113 H   0  0  0  0  0  0  0  0  0  0  0  0
    3.6644   -8.2830    0.6162 H   0  0  0  0  0  0  0  0  0  0  0  0
    2.0652   -7.6317    0.8880 H   0  0  0  0  0  0  0  0  0  0  0  0
    4.5491   -7.4191    2.5246 H   0  0  0  0  0  0  0  0  0  0  0  0
    3.2571   -6.1994    2.2902 H   0  0  0  0  0  0  0  0  0  0  0  0
    3.8062   -7.6588    4.5636 H   0  0  0  0  0  0  0  0  0  0  0  0
    0.9702   -6.7868    3.9833 H   0  0  0  0  0  0  0  0  0  0  0  0
    4.5349   -5.5955    4.8405 H   0  0  0  0  0  0  0  0  0  0  0  0
    4.0782   -3.9482    5.3003 H   0  0  0  0  0  0  0  0  0  0  0  0
    3.5561   -7.0539    8.1501 H   0  0  0  0  0  0  0  0  0  0  0  0
    5.0194   -6.2402    7.6567 H   0  0  0  0  0  0  0  0  0  0  0  0
    4.3296   -7.4892    6.6472 H   0  0  0  0  0  0  0  0  0  0  0  0
    2.4016   -4.9220    8.4861 H   0  0  0  0  0  0  0  0  0  0  0  0
    3.8122   -4.0513    8.0156 H   0  0  0  0  0  0  0  0  0  0  0  0
    1.4808   -2.9257    7.9744 H   0  0  0  0  0  0  0  0  0  0  0  0
    3.3751   -2.4849    5.9953 H   0  0  0  0  0  0  0  0  0  0  0  0
    0.3205   -2.7236    5.9429 H   0  0  0  0  0  0  0  0  0  0  0  0
   -0.4415   -4.4256    7.4825 H   0  0  0  0  0  0  0  0  0  0  0  0
   -0.8482   -4.7844    5.8319 H   0  0  0  0  0  0  0  0  0  0  0  0
    0.8707   -6.3338    7.6498 H   0  0  0  0  0  0  0  0  0  0  0  0
    0.0277   -6.8135    6.1911 H   0  0  0  0  0  0  0  0  0  0  0  0
    0.5552   -4.3639    4.0241 H   0  0  0  0  0  0  0  0  0  0  0  0
    2.9211   -2.4503    4.1901 H   0  0  0  0  0  0  0  0  0  0  0  0
    2.2320   -3.1515    2.7373 H   0  0  0  0  0  0  0  0  0  0  0  0
    0.1784   -2.0746    3.1541 H   0  0  0  0  0  0  0  0  0  0  0  0
    1.7197   -0.6639    2.0263 H   0  0  0  0  0  0  0  0  0  0  0  0
    3.4192   -0.3653    3.9073 H   0  0  0  0  0  0  0  0  0  0  0  0
    3.7978    2.0058    3.5649 H   0  0  0  0  0  0  0  0  0  0  0  0
    3.3311    1.2566    2.0533 H   0  0  0  0  0  0  0  0  0  0  0  0
    2.0859    3.3912    2.3730 H   0  0  0  0  0  0  0  0  0  0  0  0
    2.1130    3.4263    4.8757 H   0  0  0  0  0  0  0  0  0  0  0  0
    0.4810    3.6300    4.2721 H   0  0  0  0  0  0  0  0  0  0  0  0
    0.5371    1.9398    6.1228 H   0  0  0  0  0  0  0  0  0  0  0  0
    1.7350   -0.1559    5.8244 H   0  0  0  0  0  0  0  0  0  0  0  0
    2.8785    1.1699    5.7732 H   0  0  0  0  0  0  0  0  0  0  0  0
   -0.6426    0.1009    4.9443 H   0  0  0  0  0  0  0  0  0  0  0  0
   -1.1448    1.6369    4.2979 H   0  0  0  0  0  0  0  0  0  0  0  0
   -0.6486    0.1075    2.4187 H   0  0  0  0  0  0  0  0  0  0  0  0
   -0.2230    2.4947    2.0873 H   0  0  0  0  0  0  0  0  0  0  0  0
    0.9164    1.5363    1.1783 H   0  0  0  0  0  0  0  0  0  0  0  0
    2.1918   -9.4888    4.8995 H   0  0  0  0  0  0  0  0  0  0  0  0
    0.5878   -8.5534    2.7370 H   0  0  0  0  0  0  0  0  0  0  0  0
    0.7222  -10.3245    3.0999 H   0  0  0  0  0  0  0  0  0  0  0  0
    0.6753   -1.5014    4.6049 H   0  0  0  0  0  0  0  0  0  0  0  0
  2  1  1  1
  1 36  1  0
  1 37  1  0
  1 38  1  0
  2 34  1  0
  2  3  1  0
  2  5  1  0
  3  4  1  0
  3 39  1  0
  3 40  1  0
  4 41  1  0
  5 35  1  0
  5  6  1  0
  5 42  1  6
  6  7  1  0
  6 43  1  0
  6 44  1  0
  7  8  1  0
  7 45  1  0
  7 46  1  0
  8  9  1  0
  8 34  1  0
  8 47  1  1
  9 20  1  0
  9 10  1  0
  9 48  1  6
 10 20  1  0
 10 21  1  0
 10 11  1  1
 11 12  1  0
 11 49  1  0
 11 50  1  0
 12 20  1  0
 12 13  1  1
 12 14  1  0
 13 51  1  0
 13 52  1  0
 13 53  1  0
 14 15  1  0
 14 54  1  0
 14 55  1  0
 15 16  1  0
 15 17  1  0
 15 56  1  1
 16 57  1  0
 17 18  1  0
 17 21  1  0
 17 58  1  6
 18 19  1  0
 18 59  1  0
 18 60  1  0
 20 19  1  1
 19 61  1  0
 19 62  1  0
 21 22  1  0
 21 63  1  6
 22 23  1  0
 22 64  1  0
 22 65  1  0
 23 24  1  0
 23 66  1  0
 23 85  1  0
 24 32  1  0
 24 25  1  0
 24 67  1  6
 25 30  1  0
 25 26  1  0
 25 68  1  1
 26 27  1  0
 26 69  1  0
 26 70  1  0
 27 33  1  0
 27 28  1  0
 27 71  1  6
 28 29  1  0
 28 72  1  0
 28 73  1  0
 29 30  1  0
 29 31  1  0
 29 74  1  1
 30 75  1  0
 30 76  1  0
 31 32  1  0
 31 77  1  0
 31 78  1  0
 32 33  1  0
 32 79  1  6
 33 80  1  0
 33 81  1  0
 34 35  1  0
 34 82  1  1
 35 83  1  0
 35 84  1  0
M  CHG  1  23   1
M  END
>  <i_m_ct_stereo_status>  (388) 
1

>  <s_m_source_file>  (388) 
/var/tmp/pbs.5076255.sched01/tmp54n2b71h/144k2pf1zoq.sdf

>  <i_m_source_file_index>  (388) 
24

>  <i_lp_mmshare_version>  (388) 
48012

>  <i_f3d_flags>  (388) 
0

>  <s_epik_input>  (388) 
W09IXVtDSDJdW0NAXShbQ0gzXSkoW0NASF0xMilbQ0BIXShbQ0gyXTIpW0NAQEhdKFtDSDJdW0NIMl0xKVtDQEhdM1tDQF00KFtDQF0zNTYpW0NAXShbQ0gyXTUpKFtDSDNdKVtDSDJdW0NAQEhdKFtPSF0pW0NASF0oW0NIMl1bQ0gyXTQpW0NASF02W0NIMl1bTkhdW0NASF0oW0NASF03OClbQ0BASF05W0NIMl1bQ0BIXShbQ0gyXTgpW0NIMl1bQ0BIXShbQ0gyXTcpW0NIMl05

>  <s_epik_cmdline>  (388) 
J2VwaWtfcHl0aG9uJywgJy1waHQnLCAnMi4wJywgJy1waCcsICc3LjAnLCAnLXRuJywgJzgnLCAnLW1hJywgJzIwMCcsICctaW1hZScsICc8aW5maWxlLm1hZT4nLCAnLW9tYWUnLCAnPG91dGZpbGUubWFlPic=

>  <r_lp_tautomer_probability>  (388) 
1

>  <r_epik_Ionization_Penalty>  (388) 
5.33355e-05

>  <r_epik_Ionization_Penalty_Charging>  (388) 
5.06284e-05

>  <r_epik_Ionization_Penalty_Neutral>  (388) 
2.70718e-06

>  <r_epik_State_Penalty>  (388) 
-0

>  <r_epik_Charging_Adjusted_Penalty>  (388) 
5.06284e-05

>  <i_epik_Tot_Q>  (388) 
1

>  <i_epik_Tot_abs_Q>  (388) 
1

>  <s_lp_Force_Field>  (388) 
OPLS3e

>  <r_lp_Energy>  (388) 
77.7136

>  <b_lp_Chiralities_Consistent>  (388) 
1

>  <s_lp_Variant>  (388) 
110:0-1

>  <s_i_glide_gridfile>  (388) 
pfpi4k_grid

>  <i_i_glide_lignum>  (388) 
24

>  <i_i_glide_rotatable_bonds>  (388) 
7

>  <r_i_docking_score>  (388) 
-2.07486

>  <r_i_glide_ligand_efficiency>  (388) 
-0.0592816

>  <r_i_glide_ligand_efficiency_sa>  (388) 
-0.193914

>  <r_i_glide_ligand_efficiency_ln>  (388) 
-0.455477

>  <r_i_glide_gscore>  (388) 
-2.07486

>  <r_i_glide_lipo>  (388) 
-0.0500523

>  <r_i_glide_hbond>  (388) 
-0.16

>  <r_i_glide_metal>  (388) 
-0

>  <r_i_glide_rewards>  (388) 
-0.131285

>  <r_i_glide_evdw>  (388) 
-17.2856

>  <r_i_glide_ecoul>  (388) 
-8.72008

>  <r_i_glide_erotb>  (388) 
0.438769

>  <r_i_glide_esite>  (388) 
0

>  <r_i_glide_emodel>  (388) 
-29.2915

>  <r_i_glide_energy>  (388) 
-26.0056

>  <r_i_glide_einternal>  (388) 
1.80918

>  <r_i_glide_intrahb_reward>  (388) 
-0

>  <i_i_glide_confnum>  (388) 
6

>  <i_i_glide_posenum>  (388) 
7

>  <r_i_glide_eff_state_penalty>  (388) 
0

>  <ligand_id>  (388) 
110

>  <original_smiles>  (388) 
CC1(CO)C2CCC(C3C45CC6(C)CC(O)C(CCC364)C5CNC3C4CC5CC(C4)CC3C5)C1C2

>  <smiles>  (388) 
[H]OC([H])([H])C1(C([H])([H])[H])C2([H])C([H])([H])C([H])([H])C([H])(C3([H])C45C([H])([H])C6(C([H])([H])[H])C([H])([H])C([H])(O[H])C([H])(C([H])([H])C([H])([H])C364)C5([H])C([H])([H])[N+]([H])([H])C3([H])C4([H])C([H])([H])C5([H])C([H])([H])C([H])(C4([H])[H])C([H])([H])C3([H])C5([H])[H])C1([H])C2([H])[H]

$$$$
110:0:1
     RDKit          3D

 85 93  0  0  1  0  0  0  0  0999 V2000
    5.5357   -3.9027   -1.1247 C   0  0  0  0  0  0  0  0  0  0  0  0
    5.0361   -3.0607    0.0572 C   0  0  1  0  0  0  0  0  0  0  0  0
    6.3157   -2.4554    0.6950 C   0  0  0  0  0  0  0  0  0  0  0  0
    6.6460   -1.2340    0.0738 O   0  0  0  0  0  0  0  0  0  0  0  0
    3.8229   -2.1300   -0.2380 C   0  0  2  0  0  0  0  0  0  0  0  0
    3.5094   -1.0074    0.7600 C   0  0  0  0  0  0  0  0  0  0  0  0
    3.8045   -1.4444    2.2095 C   0  0  0  0  0  0  0  0  0  0  0  0
    3.7941   -2.9934    2.3857 C   0  0  1  0  0  0  0  0  0  0  0  0
    2.5538   -3.4617    3.1462 C   0  0  2  0  0  0  0  0  0  0  0  0
    2.1957   -2.8446    4.4630 C   0  0  1  0  0  0  0  0  0  0  0  0
    3.3146   -2.4847    5.4115 C   0  0  0  0  0  0  0  0  0  0  0  0
    3.5278   -3.9705    5.6597 C   0  0  1  0  0  0  0  0  0  0  0  0
    4.9495   -4.5367    5.5727 C   0  0  0  0  0  0  0  0  0  0  0  0
    2.8717   -4.4247    6.9883 C   0  0  0  0  0  0  0  0  0  0  0  0
    1.3990   -3.9712    7.2460 C   0  0  1  0  0  0  0  0  0  0  0  0
    1.3238   -2.7936    8.0258 O   0  0  0  0  0  0  0  0  0  0  0  0
    0.4574   -3.8284    6.0105 C   0  0  2  0  0  0  0  0  0  0  0  0
    0.4010   -5.1709    5.2534 C   0  0  0  0  0  0  0  0  0  0  0  0
    1.7207   -5.4936    4.5330 C   0  0  0  0  0  0  0  0  0  0  0  0
    2.6523   -4.2886    4.4235 C   0  0  2  0  0  0  0  0  0  0  0  0
    0.7642   -2.6924    4.9913 C   0  0  1  0  0  0  0  0  0  0  0  0
    0.4316   -1.2724    5.4764 C   0  0  0  0  0  0  0  0  0  0  0  0
    0.4104   -0.3139    4.3529 N   0  0  0  0  0  0  0  0  0  0  0  0
    0.6185    1.1202    4.6863 C   0  0  2  0  0  0  0  0  0  0  0  0
   -0.4421    1.6743    5.6817 C   0  0  1  0  0  0  0  0  0  0  0  0
   -0.0632    3.1254    6.0535 C   0  0  0  0  0  0  0  0  0  0  0  0
   -0.0499    3.9984    4.7798 C   0  0  2  0  0  0  0  0  0  0  0  0
   -1.4481    3.9855    4.1256 C   0  0  0  0  0  0  0  0  0  0  0  0
   -1.8295    2.5355    3.7575 C   0  0  2  0  0  0  0  0  0  0  0  0
   -1.8490    1.6764    5.0381 C   0  0  0  0  0  0  0  0  0  0  0  0
   -0.7973    1.9611    2.7628 C   0  0  0  0  0  0  0  0  0  0  0  0
    0.6089    1.9851    3.4087 C   0  0  1  0  0  0  0  0  0  0  0  0
    0.9840    3.4356    3.7813 C   0  0  0  0  0  0  0  0  0  0  0  0
    4.0146   -3.7120    1.0356 C   0  0  1  0  0  0  0  0  0  0  0  0
    2.9651   -3.3882   -0.0402 C   0  0  0  0  0  0  0  0  0  0  0  0
    6.0525   -3.2933   -1.8775 H   0  0  0  0  0  0  0  0  0  0  0  0
    4.7529   -4.4636   -1.6448 H   0  0  0  0  0  0  0  0  0  0  0  0
    6.2483   -4.6443   -0.7670 H   0  0  0  0  0  0  0  0  0  0  0  0
    6.2143   -2.2381    1.7427 H   0  0  0  0  0  0  0  0  0  0  0  0
    7.1877   -3.1147    0.5799 H   0  0  0  0  0  0  0  0  0  0  0  0
    5.9279   -0.6384    0.2178 H   0  0  0  0  0  0  0  0  0  0  0  0
    3.7946   -1.7906   -1.2756 H   0  0  0  0  0  0  0  0  0  0  0  0
    4.0762   -0.1083    0.5270 H   0  0  0  0  0  0  0  0  0  0  0  0
    2.4618   -0.7237    0.6822 H   0  0  0  0  0  0  0  0  0  0  0  0
    4.8019   -1.1028    2.4736 H   0  0  0  0  0  0  0  0  0  0  0  0
    3.1031   -0.9487    2.8910 H   0  0  0  0  0  0  0  0  0  0  0  0
    4.6456   -3.2416    3.0080 H   0  0  0  0  0  0  0  0  0  0  0  0
    1.7162   -3.6624    2.4783 H   0  0  0  0  0  0  0  0  0  0  0  0
    4.1911   -2.0447    4.9266 H   0  0  0  0  0  0  0  0  0  0  0  0
    3.0598   -1.8974    6.2766 H   0  0  0  0  0  0  0  0  0  0  0  0
    4.9527   -5.6260    5.6461 H   0  0  0  0  0  0  0  0  0  0  0  0
    5.5756   -4.1605    6.3832 H   0  0  0  0  0  0  0  0  0  0  0  0
    5.4658   -4.2875    4.6471 H   0  0  0  0  0  0  0  0  0  0  0  0
    2.9185   -5.5153    7.0533 H   0  0  0  0  0  0  0  0  0  0  0  0
    3.4868   -4.0846    7.8223 H   0  0  0  0  0  0  0  0  0  0  0  0
    0.9693   -4.7412    7.8879 H   0  0  0  0  0  0  0  0  0  0  0  0
    1.8648   -2.1337    7.6269 H   0  0  0  0  0  0  0  0  0  0  0  0
   -0.5476   -3.6530    6.4025 H   0  0  0  0  0  0  0  0  0  0  0  0
    0.1266   -5.9887    5.9240 H   0  0  0  0  0  0  0  0  0  0  0  0
   -0.3994   -5.1229    4.5140 H   0  0  0  0  0  0  0  0  0  0  0  0
    2.2470   -6.3013    5.0311 H   0  0  0  0  0  0  0  0  0  0  0  0
    1.4909   -5.8354    3.5291 H   0  0  0  0  0  0  0  0  0  0  0  0
    0.1007   -2.8764    4.1370 H   0  0  0  0  0  0  0  0  0  0  0  0
   -0.5666   -1.2733    5.9185 H   0  0  0  0  0  0  0  0  0  0  0  0
    1.1185   -0.9120    6.2444 H   0  0  0  0  0  0  0  0  0  0  0  0
    1.1401   -0.5783    3.6920 H   0  0  0  0  0  0  0  0  0  0  0  0
    1.6052    1.1820    5.1493 H   0  0  0  0  0  0  0  0  0  0  0  0
   -0.4599    1.0894    6.6022 H   0  0  0  0  0  0  0  0  0  0  0  0
   -0.7710    3.5295    6.7782 H   0  0  0  0  0  0  0  0  0  0  0  0
    0.9151    3.1527    6.5363 H   0  0  0  0  0  0  0  0  0  0  0  0
    0.2207    5.0232    5.0415 H   0  0  0  0  0  0  0  0  0  0  0  0
   -2.1850    4.4083    4.8090 H   0  0  0  0  0  0  0  0  0  0  0  0
   -1.4510    4.6115    3.2311 H   0  0  0  0  0  0  0  0  0  0  0  0
   -2.8193    2.5271    3.2989 H   0  0  0  0  0  0  0  0  0  0  0  0
   -2.1742    0.6638    4.8016 H   0  0  0  0  0  0  0  0  0  0  0  0
   -2.5782    2.0772    5.7449 H   0  0  0  0  0  0  0  0  0  0  0  0
   -1.0848    0.9526    2.4629 H   0  0  0  0  0  0  0  0  0  0  0  0
   -0.7855    2.5437    1.8447 H   0  0  0  0  0  0  0  0  0  0  0  0
    1.3409    1.6062    2.6951 H   0  0  0  0  0  0  0  0  0  0  0  0
    1.0126    4.0632    2.8935 H   0  0  0  0  0  0  0  0  0  0  0  0
    1.9869    3.4769    4.2106 H   0  0  0  0  0  0  0  0  0  0  0  0
    4.1709   -4.7867    1.1409 H   0  0  0  0  0  0  0  0  0  0  0  0
    1.9568   -3.1841    0.3275 H   0  0  0  0  0  0  0  0  0  0  0  0
    2.9353   -4.0799   -0.8837 H   0  0  0  0  0  0  0  0  0  0  0  0
   -0.4762   -0.3919    3.8580 H   0  0  0  0  0  0  0  0  0  0  0  0
  2  1  1  6
  1 36  1  0
  1 37  1  0
  1 38  1  0
  2 34  1  0
  2  3  1  0
  2  5  1  0
  3  4  1  0
  3 39  1  0
  3 40  1  0
  4 41  1  0
  5 35  1  0
  5  6  1  0
  5 42  1  6
  6  7  1  0
  6 43  1  0
  6 44  1  0
  7  8  1  0
  7 45  1  0
  7 46  1  0
  8  9  1  0
  8 34  1  0
  8 47  1  1
  9 20  1  0
  9 10  1  0
  9 48  1  6
 10 20  1  0
 10 21  1  0
 10 11  1  1
 11 12  1  0
 11 49  1  0
 11 50  1  0
 12 20  1  0
 12 13  1  6
 12 14  1  0
 13 51  1  0
 13 52  1  0
 13 53  1  0
 14 15  1  0
 14 54  1  0
 14 55  1  0
 15 16  1  0
 15 17  1  0
 15 56  1  1
 16 57  1  0
 17 18  1  0
 17 21  1  0
 17 58  1  1
 18 19  1  0
 18 59  1  0
 18 60  1  0
 20 19  1  6
 19 61  1  0
 19 62  1  0
 21 22  1  0
 21 63  1  6
 22 23  1  0
 22 64  1  0
 22 65  1  0
 23 24  1  0
 23 66  1  0
 23 85  1  0
 24 32  1  0
 24 25  1  0
 24 67  1  1
 25 30  1  0
 25 26  1  0
 25 68  1  1
 26 27  1  0
 26 69  1  0
 26 70  1  0
 27 33  1  0
 27 28  1  0
 27 71  1  1
 28 29  1  0
 28 72  1  0
 28 73  1  0
 29 30  1  0
 29 31  1  0
 29 74  1  6
 30 75  1  0
 30 76  1  0
 31 32  1  0
 31 77  1  0
 31 78  1  0
 32 33  1  0
 32 79  1  6
 33 80  1  0
 33 81  1  0
 34 35  1  0
 34 82  1  1
 35 83  1  0
 35 84  1  0
M  CHG  1  23   1
M  END
>  <i_m_ct_stereo_status>  (389) 
1

>  <s_m_source_file>  (389) 
/var/tmp/pbs.5076255.sched01/tmp54n2b71h/144k2pf1zoq.sdf

>  <i_m_source_file_index>  (389) 
24

>  <i_lp_mmshare_version>  (389) 
48012

>  <i_f3d_flags>  (389) 
0

>  <s_epik_input>  (389) 
W09IXVtDSDJdW0NAXShbQ0gzXSkoW0NASF0xMilbQ0BIXShbQ0gyXTIpW0NAQEhdKFtDSDJdW0NIMl0xKVtDQEhdM1tDQF00KFtDQF0zNTYpW0NAXShbQ0gyXTUpKFtDSDNdKVtDSDJdW0NAQEhdKFtPSF0pW0NASF0oW0NIMl1bQ0gyXTQpW0NASF02W0NIMl1bTkhdW0NASF0oW0NASF03OClbQ0BASF05W0NIMl1bQ0BIXShbQ0gyXTgpW0NIMl1bQ0BIXShbQ0gyXTcpW0NIMl05

>  <s_epik_cmdline>  (389) 
J2VwaWtfcHl0aG9uJywgJy1waHQnLCAnMi4wJywgJy1waCcsICc3LjAnLCAnLXRuJywgJzgnLCAnLW1hJywgJzIwMCcsICctaW1hZScsICc8aW5maWxlLm1hZT4nLCAnLW9tYWUnLCAnPG91dGZpbGUubWFlPic=

>  <r_lp_tautomer_probability>  (389) 
1

>  <r_epik_Ionization_Penalty>  (389) 
5.33355e-05

>  <r_epik_Ionization_Penalty_Charging>  (389) 
5.06284e-05

>  <r_epik_Ionization_Penalty_Neutral>  (389) 
2.70718e-06

>  <r_epik_State_Penalty>  (389) 
-0

>  <r_epik_Charging_Adjusted_Penalty>  (389) 
5.06284e-05

>  <i_epik_Tot_Q>  (389) 
1

>  <i_epik_Tot_abs_Q>  (389) 
1

>  <s_lp_Force_Field>  (389) 
OPLS3e

>  <r_lp_Energy>  (389) 
77.7136

>  <b_lp_Chiralities_Consistent>  (389) 
1

>  <s_lp_Variant>  (389) 
110:0-1

>  <s_i_glide_gridfile>  (389) 
pfpi4k_grid

>  <i_i_glide_lignum>  (389) 
24

>  <i_i_glide_rotatable_bonds>  (389) 
7

>  <r_i_docking_score>  (389) 
-1.60189

>  <r_i_glide_ligand_efficiency>  (389) 
-0.0457683

>  <r_i_glide_ligand_efficiency_sa>  (389) 
-0.149711

>  <r_i_glide_ligand_efficiency_ln>  (389) 
-0.351651

>  <r_i_glide_gscore>  (389) 
-1.60189

>  <r_i_glide_lipo>  (389) 
-0.163795

>  <r_i_glide_hbond>  (389) 
-0.0577384

>  <r_i_glide_metal>  (389) 
-0

>  <r_i_glide_rewards>  (389) 
-0.131285

>  <r_i_glide_evdw>  (389) 
-20.4256

>  <r_i_glide_ecoul>  (389) 
-4.38728

>  <r_i_glide_erotb>  (389) 
0.438769

>  <r_i_glide_esite>  (389) 
-0.00847008

>  <r_i_glide_emodel>  (389) 
-26.8449

>  <r_i_glide_energy>  (389) 
-24.8129

>  <r_i_glide_einternal>  (389) 
2.56708

>  <r_i_glide_intrahb_reward>  (389) 
-0

>  <i_i_glide_confnum>  (389) 
1

>  <i_i_glide_posenum>  (389) 
6

>  <r_i_glide_eff_state_penalty>  (389) 
0

>  <ligand_id>  (389) 
110

>  <original_smiles>  (389) 
CC1(CO)C2CCC(C3C45CC6(C)CC(O)C(CCC364)C5CNC3C4CC5CC(C4)CC3C5)C1C2

>  <smiles>  (389) 
[H]OC([H])([H])C1(C([H])([H])[H])C2([H])C([H])([H])C([H])([H])C([H])(C3([H])C45C([H])([H])C6(C([H])([H])[H])C([H])([H])C([H])(O[H])C([H])(C([H])([H])C([H])([H])C364)C5([H])C([H])([H])[N+]([H])([H])C3([H])C4([H])C([H])([H])C5([H])C([H])([H])C([H])(C4([H])[H])C([H])([H])C3([H])C5([H])[H])C1([H])C2([H])[H]

$$$$
110:0:2
     RDKit          3D

 85 93  0  0  1  0  0  0  0  0999 V2000
    5.5891   -1.5968   -0.0091 C   0  0  0  0  0  0  0  0  0  0  0  0
    4.8311   -2.6938    0.8047 C   0  0  1  0  0  0  0  0  0  0  0  0
    3.7999   -1.9284    1.7090 C   0  0  0  0  0  0  0  0  0  0  0  0
    3.0451   -0.9660    0.9688 O   0  0  0  0  0  0  0  0  0  0  0  0
    4.3177   -3.9075   -0.0036 C   0  0  2  0  0  0  0  0  0  0  0  0
    3.2758   -4.8099    0.6602 C   0  0  0  0  0  0  0  0  0  0  0  0
    3.5564   -5.0232    2.1796 C   0  0  0  0  0  0  0  0  0  0  0  0
    5.0081   -4.6258    2.6066 C   0  0  1  0  0  0  0  0  0  0  0  0
    5.7518   -5.8971    2.9977 C   0  0  2  0  0  0  0  0  0  0  0  0
    5.2763   -6.7513    4.1353 C   0  0  1  0  0  0  0  0  0  0  0  0
    4.7476   -6.0422    5.3731 C   0  0  0  0  0  0  0  0  0  0  0  0
    6.1689   -5.5858    5.6909 C   0  0  1  0  0  0  0  0  0  0  0  0
    6.4100   -4.1061    6.0000 C   0  0  0  0  0  0  0  0  0  0  0  0
    6.8265   -6.4658    6.7750 C   0  0  0  0  0  0  0  0  0  0  0  0
    6.7137   -8.0141    6.6117 C   0  0  1  0  0  0  0  0  0  0  0  0
    5.6141   -8.5317    7.3305 O   0  0  0  0  0  0  0  0  0  0  0  0
    6.7113   -8.5953    5.1663 C   0  0  2  0  0  0  0  0  0  0  0  0
    7.9770   -8.1558    4.4223 C   0  0  0  0  0  0  0  0  0  0  0  0
    7.9698   -6.6497    4.1031 C   0  0  0  0  0  0  0  0  0  0  0  0
    6.5885   -5.9970    4.2568 C   0  0  2  0  0  0  0  0  0  0  0  0
    5.4666   -8.2809    4.2656 C   0  0  1  0  0  0  0  0  0  0  0  0
    4.1759   -9.0655    4.6313 C   0  0  0  0  0  0  0  0  0  0  0  0
    3.1829   -9.0168    3.5361 N   0  0  0  0  0  0  0  0  0  0  0  0
    1.7661   -9.1996    3.9107 C   0  0  2  0  0  0  0  0  0  0  0  0
    0.8786   -9.3686    2.6499 C   0  0  1  0  0  0  0  0  0  0  0  0
   -0.5757   -9.6526    3.0931 C   0  0  0  0  0  0  0  0  0  0  0  0
   -1.1130   -8.4624    3.9249 C   0  0  2  0  0  0  0  0  0  0  0  0
   -1.0842   -7.1792    3.0586 C   0  0  0  0  0  0  0  0  0  0  0  0
    0.3740   -6.9027    2.6249 C   0  0  2  0  0  0  0  0  0  0  0  0
    0.8897   -8.0827    1.7880 C   0  0  0  0  0  0  0  0  0  0  0  0
    1.2562   -6.7186    3.8982 C   0  0  0  0  0  0  0  0  0  0  0  0
    1.2160   -8.0087    4.7452 C   0  0  1  0  0  0  0  0  0  0  0  0
   -0.2313   -8.2796    5.1823 C   0  0  0  0  0  0  0  0  0  0  0  0
    5.7027   -3.7808    1.5128 C   0  0  1  0  0  0  0  0  0  0  0  0
    5.7502   -4.4509    0.1306 C   0  0  0  0  0  0  0  0  0  0  0  0
    4.9026   -1.0817   -0.6794 H   0  0  0  0  0  0  0  0  0  0  0  0
    6.3775   -1.9929   -0.6272 H   0  0  0  0  0  0  0  0  0  0  0  0
    6.0155   -0.8487    0.6580 H   0  0  0  0  0  0  0  0  0  0  0  0
    3.0694   -2.5333    2.1630 H   0  0  0  0  0  0  0  0  0  0  0  0
    4.3264   -1.3970    2.5272 H   0  0  0  0  0  0  0  0  0  0  0  0
    2.4626   -1.4241    0.3814 H   0  0  0  0  0  0  0  0  0  0  0  0
    4.0647   -3.6718   -1.0254 H   0  0  0  0  0  0  0  0  0  0  0  0
    2.2723   -4.4492    0.4980 H   0  0  0  0  0  0  0  0  0  0  0  0
    3.3255   -5.7916    0.2116 H   0  0  0  0  0  0  0  0  0  0  0  0
    2.8524   -4.4451    2.7718 H   0  0  0  0  0  0  0  0  0  0  0  0
    3.4555   -6.0812    2.3049 H   0  0  0  0  0  0  0  0  0  0  0  0
    4.9453   -3.9816    3.4699 H   0  0  0  0  0  0  0  0  0  0  0  0
    6.0614   -6.4760    2.1298 H   0  0  0  0  0  0  0  0  0  0  0  0
    4.0968   -5.1911    5.1435 H   0  0  0  0  0  0  0  0  0  0  0  0
    4.2706   -6.6449    6.1472 H   0  0  0  0  0  0  0  0  0  0  0  0
    7.4676   -3.8872    6.0801 H   0  0  0  0  0  0  0  0  0  0  0  0
    5.9573   -3.8252    6.9450 H   0  0  0  0  0  0  0  0  0  0  0  0
    6.0087   -3.4321    5.2523 H   0  0  0  0  0  0  0  0  0  0  0  0
    7.8783   -6.2026    6.8599 H   0  0  0  0  0  0  0  0  0  0  0  0
    6.4062   -6.1986    7.7412 H   0  0  0  0  0  0  0  0  0  0  0  0
    7.5861   -8.4233    7.1161 H   0  0  0  0  0  0  0  0  0  0  0  0
    5.7211   -9.4708    7.4085 H   0  0  0  0  0  0  0  0  0  0  0  0
    6.7671   -9.6753    5.2545 H   0  0  0  0  0  0  0  0  0  0  0  0
    8.8717   -8.4079    4.9829 H   0  0  0  0  0  0  0  0  0  0  0  0
    8.0581   -8.7101    3.4884 H   0  0  0  0  0  0  0  0  0  0  0  0
    8.6908   -6.1101    4.7157 H   0  0  0  0  0  0  0  0  0  0  0  0
    8.2978   -6.5127    3.0697 H   0  0  0  0  0  0  0  0  0  0  0  0
    5.7357   -8.6299    3.2651 H   0  0  0  0  0  0  0  0  0  0  0  0
    4.4197  -10.1159    4.7998 H   0  0  0  0  0  0  0  0  0  0  0  0
    3.7516   -8.7092    5.5735 H   0  0  0  0  0  0  0  0  0  0  0  0
    3.2686   -8.1198    3.0788 H   0  0  0  0  0  0  0  0  0  0  0  0
    1.7006  -10.1153    4.4975 H   0  0  0  0  0  0  0  0  0  0  0  0
    1.2237  -10.2196    2.0495 H   0  0  0  0  0  0  0  0  0  0  0  0
   -1.2194   -9.8294    2.2267 H   0  0  0  0  0  0  0  0  0  0  0  0
   -0.6007  -10.5674    3.6891 H   0  0  0  0  0  0  0  0  0  0  0  0
   -2.1473   -8.6728    4.2421 H   0  0  0  0  0  0  0  0  0  0  0  0
   -1.7396   -7.2901    2.2027 H   0  0  0  0  0  0  0  0  0  0  0  0
   -1.4617   -6.3493    3.6467 H   0  0  0  0  0  0  0  0  0  0  0  0
    0.4158   -6.0025    2.0211 H   0  0  0  0  0  0  0  0  0  0  0  0
    1.8884   -7.8870    1.3879 H   0  0  0  0  0  0  0  0  0  0  0  0
    0.2541   -8.1989    0.9208 H   0  0  0  0  0  0  0  0  0  0  0  0
    2.2684   -6.5378    3.7252 H   0  0  0  0  0  0  0  0  0  0  0  0
    0.8737   -5.8604    4.4755 H   0  0  0  0  0  0  0  0  0  0  0  0
    1.7950   -7.8313    5.6347 H   0  0  0  0  0  0  0  0  0  0  0  0
   -0.5893   -7.4374    5.7693 H   0  0  0  0  0  0  0  0  0  0  0  0
   -0.2729   -9.1597    5.8219 H   0  0  0  0  0  0  0  0  0  0  0  0
    6.6632   -3.3986    1.8122 H   0  0  0  0  0  0  0  0  0  0  0  0
    5.8425   -5.5501    0.1365 H   0  0  0  0  0  0  0  0  0  0  0  0
    6.4945   -4.0409   -0.5847 H   0  0  0  0  0  0  0  0  0  0  0  0
    3.4384   -9.7224    2.8512 H   0  0  0  0  0  0  0  0  0  0  0  0
  2  1  1  6
  1 36  1  0
  1 37  1  0
  1 38  1  0
  2 34  1  0
  2  3  1  0
  2  5  1  0
  3  4  1  0
  3 39  1  0
  3 40  1  0
  4 41  1  0
  5 35  1  0
  5  6  1  0
  5 42  1  6
  6  7  1  0
  6 43  1  0
  6 44  1  0
  7  8  1  0
  7 45  1  0
  7 46  1  0
  8  9  1  0
  8 34  1  0
  8 47  1  1
  9 20  1  0
  9 10  1  0
  9 48  1  6
 10 20  1  0
 10 21  1  0
 10 11  1  1
 11 12  1  0
 11 49  1  0
 11 50  1  0
 12 20  1  0
 12 13  1  1
 12 14  1  0
 13 51  1  0
 13 52  1  0
 13 53  1  0
 14 15  1  0
 14 54  1  0
 14 55  1  0
 15 16  1  0
 15 17  1  0
 15 56  1  1
 16 57  1  0
 17 18  1  0
 17 21  1  0
 17 58  1  1
 18 19  1  0
 18 59  1  0
 18 60  1  0
 20 19  1  6
 19 61  1  0
 19 62  1  0
 21 22  1  0
 21 63  1  6
 22 23  1  0
 22 64  1  0
 22 65  1  0
 23 24  1  0
 23 66  1  0
 23 85  1  0
 24 32  1  0
 24 25  1  0
 24 67  1  1
 25 30  1  0
 25 26  1  0
 25 68  1  6
 26 27  1  0
 26 69  1  0
 26 70  1  0
 27 33  1  0
 27 28  1  0
 27 71  1  1
 28 29  1  0
 28 72  1  0
 28 73  1  0
 29 30  1  0
 29 31  1  0
 29 74  1  6
 30 75  1  0
 30 76  1  0
 31 32  1  0
 31 77  1  0
 31 78  1  0
 32 33  1  0
 32 79  1  1
 33 80  1  0
 33 81  1  0
 34 35  1  0
 34 82  1  1
 35 83  1  0
 35 84  1  0
M  CHG  1  23   1
M  END
>  <i_m_ct_stereo_status>  (390) 
1

>  <s_m_source_file>  (390) 
/var/tmp/pbs.5076255.sched01/tmp54n2b71h/144k2pf1zoq.sdf

>  <i_m_source_file_index>  (390) 
24

>  <i_lp_mmshare_version>  (390) 
48012

>  <i_f3d_flags>  (390) 
0

>  <s_epik_input>  (390) 
W09IXVtDSDJdW0NAXShbQ0gzXSkoW0NASF0xMilbQ0BIXShbQ0gyXTIpW0NAQEhdKFtDSDJdW0NIMl0xKVtDQEhdM1tDQF00KFtDQF0zNTYpW0NAXShbQ0gyXTUpKFtDSDNdKVtDSDJdW0NAQEhdKFtPSF0pW0NASF0oW0NIMl1bQ0gyXTQpW0NASF02W0NIMl1bTkhdW0NASF0oW0NASF03OClbQ0BASF05W0NIMl1bQ0BIXShbQ0gyXTgpW0NIMl1bQ0BIXShbQ0gyXTcpW0NIMl05

>  <s_epik_cmdline>  (390) 
J2VwaWtfcHl0aG9uJywgJy1waHQnLCAnMi4wJywgJy1waCcsICc3LjAnLCAnLXRuJywgJzgnLCAnLW1hJywgJzIwMCcsICctaW1hZScsICc8aW5maWxlLm1hZT4nLCAnLW9tYWUnLCAnPG91dGZpbGUubWFlPic=

>  <r_lp_tautomer_probability>  (390) 
1

>  <r_epik_Ionization_Penalty>  (390) 
5.33355e-05

>  <r_epik_Ionization_Penalty_Charging>  (390) 
5.06284e-05

>  <r_epik_Ionization_Penalty_Neutral>  (390) 
2.70718e-06

>  <r_epik_State_Penalty>  (390) 
-0

>  <r_epik_Charging_Adjusted_Penalty>  (390) 
5.06284e-05

>  <i_epik_Tot_Q>  (390) 
1

>  <i_epik_Tot_abs_Q>  (390) 
1

>  <s_lp_Force_Field>  (390) 
OPLS3e

>  <r_lp_Energy>  (390) 
77.7136

>  <b_lp_Chiralities_Consistent>  (390) 
1

>  <s_lp_Variant>  (390) 
110:0-1

>  <s_i_glide_gridfile>  (390) 
pfpi4k_grid

>  <i_i_glide_lignum>  (390) 
24

>  <i_i_glide_rotatable_bonds>  (390) 
7

>  <r_i_docking_score>  (390) 
-1.53673

>  <r_i_glide_ligand_efficiency>  (390) 
-0.0439065

>  <r_i_glide_ligand_efficiency_sa>  (390) 
-0.143621

>  <r_i_glide_ligand_efficiency_ln>  (390) 
-0.337346

>  <r_i_glide_gscore>  (390) 
-1.53673

>  <r_i_glide_lipo>  (390) 
-0.233087

>  <r_i_glide_hbond>  (390) 
-0.0872477

>  <r_i_glide_metal>  (390) 
-0

>  <r_i_glide_rewards>  (390) 
-0.131285

>  <r_i_glide_evdw>  (390) 
-20.435

>  <r_i_glide_ecoul>  (390) 
-3.31265

>  <r_i_glide_erotb>  (390) 
0.438769

>  <r_i_glide_esite>  (390) 
-0.00523087

>  <r_i_glide_emodel>  (390) 
-23.6293

>  <r_i_glide_energy>  (390) 
-23.7477

>  <r_i_glide_einternal>  (390) 
2.75204

>  <r_i_glide_intrahb_reward>  (390) 
-0

>  <i_i_glide_confnum>  (390) 
5

>  <i_i_glide_posenum>  (390) 
29

>  <r_i_glide_eff_state_penalty>  (390) 
0

>  <ligand_id>  (390) 
110

>  <original_smiles>  (390) 
CC1(CO)C2CCC(C3C45CC6(C)CC(O)C(CCC364)C5CNC3C4CC5CC(C4)CC3C5)C1C2

>  <smiles>  (390) 
[H]OC([H])([H])C1(C([H])([H])[H])C2([H])C([H])([H])C([H])([H])C([H])(C3([H])C45C([H])([H])C6(C([H])([H])[H])C([H])([H])C([H])(O[H])C([H])(C([H])([H])C([H])([H])C364)C5([H])C([H])([H])[N+]([H])([H])C3([H])C4([H])C([H])([H])C5([H])C([H])([H])C([H])(C4([H])[H])C([H])([H])C3([H])C5([H])[H])C1([H])C2([H])[H]

$$$$
111:0:0
     RDKit          3D

 17 18  0  0  1  0  0  0  0  0999 V2000
    1.3783   -5.6458    3.5512 Cl  0  0  0  0  0  0  0  0  0  0  0  0
    2.2257   -5.3061    2.0870 C   0  0  0  0  0  0  0  0  0  0  0  0
    1.8458   -5.8383    0.9259 N   0  0  0  0  0  0  0  0  0  0  0  0
    2.7529   -5.2941    0.0798 N   0  0  0  0  0  0  0  0  0  0  0  0
    3.5883   -4.4763    0.7440 C   0  0  0  0  0  0  0  0  0  0  0  0
    4.6804   -3.7233    0.1240 C   0  0  0  0  0  0  0  0  0  0  0  0
    5.5861   -2.9774    0.9140 C   0  0  0  0  0  0  0  0  0  0  0  0
    6.6233   -2.2697    0.2792 C   0  0  0  0  0  0  0  0  0  0  0  0
    6.8060   -2.2581   -1.0570 N   0  0  0  0  0  0  0  0  0  0  0  0
    5.9480   -2.9770   -1.8102 C   0  0  0  0  0  0  0  0  0  0  0  0
    4.8749   -3.7158   -1.2756 C   0  0  0  0  0  0  0  0  0  0  0  0
    3.2861   -4.4452    2.0430 N   0  0  0  0  0  0  0  0  0  0  0  0
    5.4900   -2.9432    1.9899 H   0  0  0  0  0  0  0  0  0  0  0  0
    7.3250   -1.6897    0.8572 H   0  0  0  0  0  0  0  0  0  0  0  0
    6.1173   -2.9504   -2.8771 H   0  0  0  0  0  0  0  0  0  0  0  0
    4.2190   -4.2569   -1.9443 H   0  0  0  0  0  0  0  0  0  0  0  0
    2.7783   -5.5011   -0.9128 H   0  0  0  0  0  0  0  0  0  0  0  0
  1  2  1  0
  2 12  1  0
  2  3  2  0
  3  4  1  0
  4  5  1  0
  4 17  1  0
  5 12  2  0
  5  6  1  0
  6 11  1  0
  6  7  2  0
  7  8  1  0
  7 13  1  0
  8  9  2  0
  8 14  1  0
  9 10  1  0
 10 11  2  0
 10 15  1  0
 11 16  1  0
M  END
>  <i_m_ct_stereo_status>  (391) 
1

>  <s_m_source_file>  (391) 
/var/tmp/pbs.5076255.sched01/tmp54n2b71h/144k2pf1zoq.sdf

>  <i_m_source_file_index>  (391) 
25

>  <i_lp_mmshare_version>  (391) 
48012

>  <i_f3d_flags>  (391) 
0

>  <s_epik_input>  (391) 
Q2xjMW5uYyhbbkhdMSktYzJbY0hdW2NIXW5bY0hdW2NIXTI=

>  <s_epik_cmdline>  (391) 
J2VwaWtfcHl0aG9uJywgJy1waHQnLCAnMi4wJywgJy1waCcsICc3LjAnLCAnLXRuJywgJzgnLCAnLW1hJywgJzIwMCcsICctaW1hZScsICc8aW5maWxlLm1hZT4nLCAnLW9tYWUnLCAnPG91dGZpbGUubWFlPic=

>  <r_lp_tautomer_probability>  (391) 
0.948284

>  <r_epik_Ionization_Penalty>  (391) 
0.395455

>  <r_epik_Ionization_Penalty_Charging>  (391) 
0

>  <r_epik_Ionization_Penalty_Neutral>  (391) 
0.395455

>  <r_epik_State_Penalty>  (391) 
0.407877

>  <r_epik_Charging_Adjusted_Penalty>  (391) 
0.407877

>  <i_epik_Tot_Q>  (391) 
0

>  <i_epik_Tot_abs_Q>  (391) 
0

>  <s_lp_Force_Field>  (391) 
OPLS3e

>  <r_lp_Energy>  (391) 
16.1854

>  <b_lp_Chiralities_Consistent>  (391) 
1

>  <s_lp_Variant>  (391) 
111:0-1

>  <s_i_glide_gridfile>  (391) 
pfpi4k_grid

>  <i_i_glide_lignum>  (391) 
25

>  <i_i_glide_rotatable_bonds>  (391) 
1

>  <r_i_docking_score>  (391) 
-4.45879

>  <r_i_glide_ligand_efficiency>  (391) 
-0.371566

>  <r_i_glide_ligand_efficiency_sa>  (391) 
-0.850673

>  <r_i_glide_ligand_efficiency_ln>  (391) 
-1.27946

>  <r_i_glide_gscore>  (391) 
-4.45879

>  <r_i_glide_lipo>  (391) 
-0.230921

>  <r_i_glide_hbond>  (391) 
-0.535871

>  <r_i_glide_metal>  (391) 
-0

>  <r_i_glide_rewards>  (391) 
-2.17777

>  <r_i_glide_evdw>  (391) 
-14.3854

>  <r_i_glide_ecoul>  (391) 
-8.02129

>  <r_i_glide_erotb>  (391) 
0.483486

>  <r_i_glide_esite>  (391) 
-0.0752502

>  <r_i_glide_emodel>  (391) 
-29.0346

>  <r_i_glide_energy>  (391) 
-22.4067

>  <r_i_glide_einternal>  (391) 
0.0286708

>  <r_i_glide_intrahb_reward>  (391) 
-0

>  <i_i_glide_confnum>  (391) 
1

>  <i_i_glide_posenum>  (391) 
5

>  <r_i_glide_eff_state_penalty>  (391) 
0

>  <ligand_id>  (391) 
111

>  <original_smiles>  (391) 
Clc1nnc(-c2ccncc2)[nH]1

>  <smiles>  (391) 
[H]c1nc([H])c([H])c(-c2nc(Cl)nn2[H])c1[H]

$$$$
111:0:1
     RDKit          3D

 17 18  0  0  1  0  0  0  0  0999 V2000
    2.9799   -3.8006    3.3662 Cl  0  0  0  0  0  0  0  0  0  0  0  0
    2.9897   -3.8502    1.6427 C   0  0  0  0  0  0  0  0  0  0  0  0
    2.6384   -4.9415    0.9682 N   0  0  0  0  0  0  0  0  0  0  0  0
    2.7815   -4.5197   -0.3060 N   0  0  0  0  0  0  0  0  0  0  0  0
    3.1802   -3.2421   -0.3310 C   0  0  0  0  0  0  0  0  0  0  0  0
    3.4218   -2.4755   -1.5488 C   0  0  0  0  0  0  0  0  0  0  0  0
    4.0326   -1.2035   -1.5061 C   0  0  0  0  0  0  0  0  0  0  0  0
    4.2135   -0.5063   -2.7159 C   0  0  0  0  0  0  0  0  0  0  0  0
    3.8803   -1.0019   -3.9212 N   0  0  0  0  0  0  0  0  0  0  0  0
    3.2966   -2.2137   -3.9431 C   0  0  0  0  0  0  0  0  0  0  0  0
    3.0449   -2.9859   -2.8069 C   0  0  0  0  0  0  0  0  0  0  0  0
    3.3351   -2.7611    0.9018 N   0  0  0  0  0  0  0  0  0  0  0  0
    4.3072   -0.7498   -0.5672 H   0  0  0  0  0  0  0  0  0  0  0  0
    4.6442    0.4820   -2.7197 H   0  0  0  0  0  0  0  0  0  0  0  0
    3.0271   -2.5887   -4.9117 H   0  0  0  0  0  0  0  0  0  0  0  0
    2.5500   -3.9332   -2.9324 H   0  0  0  0  0  0  0  0  0  0  0  0
    2.6516   -5.1250   -1.1091 H   0  0  0  0  0  0  0  0  0  0  0  0
  1  2  1  0
  2 12  1  0
  2  3  2  0
  3  4  1  0
  4  5  1  0
  4 17  1  0
  5 12  2  0
  5  6  1  0
  6 11  1  0
  6  7  2  0
  7  8  1  0
  7 13  1  0
  8  9  2  0
  8 14  1  0
  9 10  1  0
 10 11  2  0
 10 15  1  0
 11 16  1  0
M  END
>  <i_m_ct_stereo_status>  (392) 
1

>  <s_m_source_file>  (392) 
/var/tmp/pbs.5076255.sched01/tmp54n2b71h/144k2pf1zoq.sdf

>  <i_m_source_file_index>  (392) 
25

>  <i_lp_mmshare_version>  (392) 
48012

>  <i_f3d_flags>  (392) 
0

>  <s_epik_input>  (392) 
Q2xjMW5uYyhbbkhdMSktYzJbY0hdW2NIXW5bY0hdW2NIXTI=

>  <s_epik_cmdline>  (392) 
J2VwaWtfcHl0aG9uJywgJy1waHQnLCAnMi4wJywgJy1waCcsICc3LjAnLCAnLXRuJywgJzgnLCAnLW1hJywgJzIwMCcsICctaW1hZScsICc8aW5maWxlLm1hZT4nLCAnLW9tYWUnLCAnPG91dGZpbGUubWFlPic=

>  <r_lp_tautomer_probability>  (392) 
0.948284

>  <r_epik_Ionization_Penalty>  (392) 
0.395455

>  <r_epik_Ionization_Penalty_Charging>  (392) 
0

>  <r_epik_Ionization_Penalty_Neutral>  (392) 
0.395455

>  <r_epik_State_Penalty>  (392) 
0.407877

>  <r_epik_Charging_Adjusted_Penalty>  (392) 
0.407877

>  <i_epik_Tot_Q>  (392) 
0

>  <i_epik_Tot_abs_Q>  (392) 
0

>  <s_lp_Force_Field>  (392) 
OPLS3e

>  <r_lp_Energy>  (392) 
16.1854

>  <b_lp_Chiralities_Consistent>  (392) 
1

>  <s_lp_Variant>  (392) 
111:0-1

>  <s_i_glide_gridfile>  (392) 
pfpi4k_grid

>  <i_i_glide_lignum>  (392) 
25

>  <i_i_glide_rotatable_bonds>  (392) 
1

>  <r_i_docking_score>  (392) 
-4.05266

>  <r_i_glide_ligand_efficiency>  (392) 
-0.337722

>  <r_i_glide_ligand_efficiency_sa>  (392) 
-0.773191

>  <r_i_glide_ligand_efficiency_ln>  (392) 
-1.16292

>  <r_i_glide_gscore>  (392) 
-4.05266

>  <r_i_glide_lipo>  (392) 
-0.227809

>  <r_i_glide_hbond>  (392) 
-0.32

>  <r_i_glide_metal>  (392) 
-0

>  <r_i_glide_rewards>  (392) 
-2.19971

>  <r_i_glide_evdw>  (392) 
-16.8684

>  <r_i_glide_ecoul>  (392) 
-5.93742

>  <r_i_glide_erotb>  (392) 
0.483486

>  <r_i_glide_esite>  (392) 
-0.0546034

>  <r_i_glide_emodel>  (392) 
-28.7895

>  <r_i_glide_energy>  (392) 
-22.8058

>  <r_i_glide_einternal>  (392) 
0.0873592

>  <r_i_glide_intrahb_reward>  (392) 
-0

>  <i_i_glide_confnum>  (392) 
1

>  <i_i_glide_posenum>  (392) 
15

>  <r_i_glide_eff_state_penalty>  (392) 
0

>  <ligand_id>  (392) 
111

>  <original_smiles>  (392) 
Clc1nnc(-c2ccncc2)[nH]1

>  <smiles>  (392) 
[H]c1nc([H])c([H])c(-c2nc(Cl)nn2[H])c1[H]

$$$$
111:0:2
     RDKit          3D

 17 18  0  0  1  0  0  0  0  0999 V2000
    2.2740   -7.6555    2.3191 Cl  0  0  0  0  0  0  0  0  0  0  0  0
    2.5513   -6.3242    1.2618 C   0  0  0  0  0  0  0  0  0  0  0  0
    1.5882   -5.8525    0.4765 N   0  0  0  0  0  0  0  0  0  0  0  0
    2.2313   -4.8280   -0.1380 N   0  0  0  0  0  0  0  0  0  0  0  0
    3.5034   -4.7561    0.2755 C   0  0  0  0  0  0  0  0  0  0  0  0
    4.4829   -3.7807   -0.2063 C   0  0  0  0  0  0  0  0  0  0  0  0
    4.0805   -2.6016   -0.8743 C   0  0  0  0  0  0  0  0  0  0  0  0
    5.0686   -1.6940   -1.3008 C   0  0  0  0  0  0  0  0  0  0  0  0
    6.3924   -1.8904   -1.1180 N   0  0  0  0  0  0  0  0  0  0  0  0
    6.7735   -3.0230   -0.4872 C   0  0  0  0  0  0  0  0  0  0  0  0
    5.8670   -3.9905   -0.0144 C   0  0  0  0  0  0  0  0  0  0  0  0
    3.7607   -5.6983    1.1836 N   0  0  0  0  0  0  0  0  0  0  0  0
    3.0392   -2.3664   -1.0452 H   0  0  0  0  0  0  0  0  0  0  0  0
    4.7966   -0.7775   -1.8030 H   0  0  0  0  0  0  0  0  0  0  0  0
    7.8386   -3.1553   -0.3572 H   0  0  0  0  0  0  0  0  0  0  0  0
    6.2339   -4.8747    0.4867 H   0  0  0  0  0  0  0  0  0  0  0  0
    1.8202   -4.2682   -0.8711 H   0  0  0  0  0  0  0  0  0  0  0  0
  1  2  1  0
  2 12  1  0
  2  3  2  0
  3  4  1  0
  4  5  1  0
  4 17  1  0
  5 12  2  0
  5  6  1  0
  6 11  1  0
  6  7  2  0
  7  8  1  0
  7 13  1  0
  8  9  2  0
  8 14  1  0
  9 10  1  0
 10 11  2  0
 10 15  1  0
 11 16  1  0
M  END
>  <i_m_ct_stereo_status>  (393) 
1

>  <s_m_source_file>  (393) 
/var/tmp/pbs.5076255.sched01/tmp54n2b71h/144k2pf1zoq.sdf

>  <i_m_source_file_index>  (393) 
25

>  <i_lp_mmshare_version>  (393) 
48012

>  <i_f3d_flags>  (393) 
0

>  <s_epik_input>  (393) 
Q2xjMW5uYyhbbkhdMSktYzJbY0hdW2NIXW5bY0hdW2NIXTI=

>  <s_epik_cmdline>  (393) 
J2VwaWtfcHl0aG9uJywgJy1waHQnLCAnMi4wJywgJy1waCcsICc3LjAnLCAnLXRuJywgJzgnLCAnLW1hJywgJzIwMCcsICctaW1hZScsICc8aW5maWxlLm1hZT4nLCAnLW9tYWUnLCAnPG91dGZpbGUubWFlPic=

>  <r_lp_tautomer_probability>  (393) 
0.948284

>  <r_epik_Ionization_Penalty>  (393) 
0.395455

>  <r_epik_Ionization_Penalty_Charging>  (393) 
0

>  <r_epik_Ionization_Penalty_Neutral>  (393) 
0.395455

>  <r_epik_State_Penalty>  (393) 
0.407877

>  <r_epik_Charging_Adjusted_Penalty>  (393) 
0.407877

>  <i_epik_Tot_Q>  (393) 
0

>  <i_epik_Tot_abs_Q>  (393) 
0

>  <s_lp_Force_Field>  (393) 
OPLS3e

>  <r_lp_Energy>  (393) 
16.1854

>  <b_lp_Chiralities_Consistent>  (393) 
1

>  <s_lp_Variant>  (393) 
111:0-1

>  <s_i_glide_gridfile>  (393) 
pfpi4k_grid

>  <i_i_glide_lignum>  (393) 
25

>  <i_i_glide_rotatable_bonds>  (393) 
1

>  <r_i_docking_score>  (393) 
-3.92819

>  <r_i_glide_ligand_efficiency>  (393) 
-0.327349

>  <r_i_glide_ligand_efficiency_sa>  (393) 
-0.749442

>  <r_i_glide_ligand_efficiency_ln>  (393) 
-1.1272

>  <r_i_glide_gscore>  (393) 
-3.92819

>  <r_i_glide_lipo>  (393) 
-0.143451

>  <r_i_glide_hbond>  (393) 
-0.295284

>  <r_i_glide_metal>  (393) 
-0

>  <r_i_glide_rewards>  (393) 
-2.17777

>  <r_i_glide_evdw>  (393) 
-13.9378

>  <r_i_glide_ecoul>  (393) 
-6.69685

>  <r_i_glide_erotb>  (393) 
0.483486

>  <r_i_glide_esite>  (393) 
-0.0937536

>  <r_i_glide_emodel>  (393) 
-26.3188

>  <r_i_glide_energy>  (393) 
-20.6347

>  <r_i_glide_einternal>  (393) 
0.296479

>  <r_i_glide_intrahb_reward>  (393) 
-0

>  <i_i_glide_confnum>  (393) 
4

>  <i_i_glide_posenum>  (393) 
9

>  <r_i_glide_eff_state_penalty>  (393) 
0

>  <ligand_id>  (393) 
111

>  <original_smiles>  (393) 
Clc1nnc(-c2ccncc2)[nH]1

>  <smiles>  (393) 
[H]c1nc([H])c([H])c(-c2nc(Cl)nn2[H])c1[H]

$$$$
111:1:0
     RDKit          3D

 16 17  0  0  1  0  0  0  0  0999 V2000
    9.4160   -2.6855    0.4802 Cl  0  0  0  0  0  0  0  0  0  0  0  0
    7.8435   -3.0063   -0.1456 C   0  0  0  0  0  0  0  0  0  0  0  0
    7.0893   -4.0339    0.2654 N   0  0  0  0  0  0  0  0  0  0  0  0
    5.9439   -3.9647   -0.3965 N   0  0  0  0  0  0  0  0  0  0  0  0
    6.0776   -2.8862   -1.1878 C   0  0  0  0  0  0  0  0  0  0  0  0
    5.0342   -2.4239   -2.1093 C   0  0  0  0  0  0  0  0  0  0  0  0
    4.7321   -1.0547   -2.2376 C   0  0  0  0  0  0  0  0  0  0  0  0
    3.7390   -0.6570   -3.1470 C   0  0  0  0  0  0  0  0  0  0  0  0
    3.0616   -1.5243   -3.9195 N   0  0  0  0  0  0  0  0  0  0  0  0
    3.3290   -2.8353   -3.7765 C   0  0  0  0  0  0  0  0  0  0  0  0
    4.3169   -3.3308   -2.9075 C   0  0  0  0  0  0  0  0  0  0  0  0
    7.2550   -2.2549   -1.0657 N   0  0  0  0  0  0  0  0  0  0  0  0
    5.2519   -0.3153   -1.6480 H   0  0  0  0  0  0  0  0  0  0  0  0
    3.4891    0.3827   -3.2789 H   0  0  0  0  0  0  0  0  0  0  0  0
    2.7617   -3.5011   -4.4032 H   0  0  0  0  0  0  0  0  0  0  0  0
    4.5322   -4.3862   -2.8460 H   0  0  0  0  0  0  0  0  0  0  0  0
  1  2  1  0
  2 12  2  0
  2  3  1  0
  3  4  1  0
  4  5  2  0
  5 12  1  0
  5  6  1  0
  6 11  1  0
  6  7  2  0
  7  8  1  0
  7 13  1  0
  8  9  2  0
  8 14  1  0
  9 10  1  0
 10 11  2  0
 10 15  1  0
 11 16  1  0
M  CHG  1   3  -1
M  END
>  <i_m_ct_stereo_status>  (394) 
1

>  <s_m_source_file>  (394) 
/var/tmp/pbs.5076255.sched01/tmp54n2b71h/144k2pf1zoq.sdf

>  <i_m_source_file_index>  (394) 
26

>  <i_lp_mmshare_version>  (394) 
48012

>  <i_f3d_flags>  (394) 
0

>  <s_epik_input>  (394) 
Q2xjMW5uYyhbbkhdMSktYzJbY0hdW2NIXW5bY0hdW2NIXTI=

>  <s_epik_cmdline>  (394) 
J2VwaWtfcHl0aG9uJywgJy1waHQnLCAnMi4wJywgJy1waCcsICc3LjAnLCAnLXRuJywgJzgnLCAnLW1hJywgJzIwMCcsICctaW1hZScsICc8aW5maWxlLm1hZT4nLCAnLW9tYWUnLCAnPG91dGZpbGUubWFlPic=

>  <r_lp_tautomer_probability>  (394) 
1

>  <r_epik_Ionization_Penalty>  (394) 
0.495272

>  <r_epik_Ionization_Penalty_Charging>  (394) 
0.490563

>  <r_epik_Ionization_Penalty_Neutral>  (394) 
0.00470924

>  <r_epik_State_Penalty>  (394) 
0.456776

>  <r_epik_Charging_Adjusted_Penalty>  (394) 
0.947338

>  <i_epik_Tot_Q>  (394) 
-1

>  <i_epik_Tot_abs_Q>  (394) 
1

>  <s_lp_Force_Field>  (394) 
OPLS3e

>  <r_lp_Energy>  (394) 
12.6501

>  <b_lp_Chiralities_Consistent>  (394) 
1

>  <s_lp_Variant>  (394) 
111:0-2

>  <s_i_glide_gridfile>  (394) 
pfpi4k_grid

>  <i_i_glide_lignum>  (394) 
26

>  <i_i_glide_rotatable_bonds>  (394) 
1

>  <r_i_docking_score>  (394) 
-4.16067

>  <r_i_glide_ligand_efficiency>  (394) 
-0.346722

>  <r_i_glide_ligand_efficiency_sa>  (394) 
-0.793795

>  <r_i_glide_ligand_efficiency_ln>  (394) 
-1.19391

>  <r_i_glide_gscore>  (394) 
-4.16067

>  <r_i_glide_lipo>  (394) 
-0.371582

>  <r_i_glide_hbond>  (394) 
-0.16

>  <r_i_glide_metal>  (394) 
-0

>  <r_i_glide_rewards>  (394) 
-2.40025

>  <r_i_glide_evdw>  (394) 
-20.5466

>  <r_i_glide_ecoul>  (394) 
-4.5964

>  <r_i_glide_erotb>  (394) 
0.487953

>  <r_i_glide_esite>  (394) 
0

>  <r_i_glide_emodel>  (394) 
-31.9132

>  <r_i_glide_energy>  (394) 
-25.143

>  <r_i_glide_einternal>  (394) 
1.23043

>  <r_i_glide_intrahb_reward>  (394) 
-0

>  <i_i_glide_confnum>  (394) 
3

>  <i_i_glide_posenum>  (394) 
20

>  <r_i_glide_eff_state_penalty>  (394) 
0

>  <ligand_id>  (394) 
111

>  <original_smiles>  (394) 
Clc1nnc(-c2ccncc2)[nH]1

>  <smiles>  (394) 
[H]c1nc([H])c([H])c(-c2n[n-]c(Cl)n2)c1[H]

$$$$
111:1:1
     RDKit          3D

 16 17  0  0  1  0  0  0  0  0999 V2000
    4.3017   -3.0306    3.5075 Cl  0  0  0  0  0  0  0  0  0  0  0  0
    3.7074   -3.1979    1.8971 C   0  0  0  0  0  0  0  0  0  0  0  0
    2.8349   -4.1483    1.5184 N   0  0  0  0  0  0  0  0  0  0  0  0
    2.6195   -3.9783    0.2242 N   0  0  0  0  0  0  0  0  0  0  0  0
    3.3810   -2.9211   -0.1298 C   0  0  0  0  0  0  0  0  0  0  0  0
    3.4371   -2.3738   -1.5001 C   0  0  0  0  0  0  0  0  0  0  0  0
    2.8369   -3.0339   -2.5912 C   0  0  0  0  0  0  0  0  0  0  0  0
    2.9421   -2.4793   -3.8774 C   0  0  0  0  0  0  0  0  0  0  0  0
    3.5852   -1.3227   -4.1383 N   0  0  0  0  0  0  0  0  0  0  0  0
    4.1185   -0.6655   -3.0883 C   0  0  0  0  0  0  0  0  0  0  0  0
    4.0943   -1.1550   -1.7706 C   0  0  0  0  0  0  0  0  0  0  0  0
    4.0813   -2.4137    0.8981 N   0  0  0  0  0  0  0  0  0  0  0  0
    2.2959   -3.9550   -2.4478 H   0  0  0  0  0  0  0  0  0  0  0  0
    2.4995   -2.9872   -4.7203 H   0  0  0  0  0  0  0  0  0  0  0  0
    4.5952    0.2778   -3.3037 H   0  0  0  0  0  0  0  0  0  0  0  0
    4.5458   -0.5936   -0.9671 H   0  0  0  0  0  0  0  0  0  0  0  0
  1  2  1  0
  2 12  2  0
  2  3  1  0
  3  4  1  0
  4  5  2  0
  5 12  1  0
  5  6  1  0
  6 11  1  0
  6  7  2  0
  7  8  1  0
  7 13  1  0
  8  9  2  0
  8 14  1  0
  9 10  1  0
 10 11  2  0
 10 15  1  0
 11 16  1  0
M  CHG  1   3  -1
M  END
>  <i_m_ct_stereo_status>  (395) 
1

>  <s_m_source_file>  (395) 
/var/tmp/pbs.5076255.sched01/tmp54n2b71h/144k2pf1zoq.sdf

>  <i_m_source_file_index>  (395) 
26

>  <i_lp_mmshare_version>  (395) 
48012

>  <i_f3d_flags>  (395) 
0

>  <s_epik_input>  (395) 
Q2xjMW5uYyhbbkhdMSktYzJbY0hdW2NIXW5bY0hdW2NIXTI=

>  <s_epik_cmdline>  (395) 
J2VwaWtfcHl0aG9uJywgJy1waHQnLCAnMi4wJywgJy1waCcsICc3LjAnLCAnLXRuJywgJzgnLCAnLW1hJywgJzIwMCcsICctaW1hZScsICc8aW5maWxlLm1hZT4nLCAnLW9tYWUnLCAnPG91dGZpbGUubWFlPic=

>  <r_lp_tautomer_probability>  (395) 
1

>  <r_epik_Ionization_Penalty>  (395) 
0.495272

>  <r_epik_Ionization_Penalty_Charging>  (395) 
0.490563

>  <r_epik_Ionization_Penalty_Neutral>  (395) 
0.00470924

>  <r_epik_State_Penalty>  (395) 
0.456776

>  <r_epik_Charging_Adjusted_Penalty>  (395) 
0.947338

>  <i_epik_Tot_Q>  (395) 
-1

>  <i_epik_Tot_abs_Q>  (395) 
1

>  <s_lp_Force_Field>  (395) 
OPLS3e

>  <r_lp_Energy>  (395) 
12.6501

>  <b_lp_Chiralities_Consistent>  (395) 
1

>  <s_lp_Variant>  (395) 
111:0-2

>  <s_i_glide_gridfile>  (395) 
pfpi4k_grid

>  <i_i_glide_lignum>  (395) 
26

>  <i_i_glide_rotatable_bonds>  (395) 
1

>  <r_i_docking_score>  (395) 
-3.15208

>  <r_i_glide_ligand_efficiency>  (395) 
-0.262673

>  <r_i_glide_ligand_efficiency_sa>  (395) 
-0.601371

>  <r_i_glide_ligand_efficiency_ln>  (395) 
-0.904494

>  <r_i_glide_gscore>  (395) 
-3.15208

>  <r_i_glide_lipo>  (395) 
-0.330365

>  <r_i_glide_hbond>  (395) 
-0.0568591

>  <r_i_glide_metal>  (395) 
-0

>  <r_i_glide_rewards>  (395) 
-2.18669

>  <r_i_glide_evdw>  (395) 
-17.0688

>  <r_i_glide_ecoul>  (395) 
-1.00513

>  <r_i_glide_erotb>  (395) 
0.487953

>  <r_i_glide_esite>  (395) 
-0.0619058

>  <r_i_glide_emodel>  (395) 
-23.7154

>  <r_i_glide_energy>  (395) 
-18.0739

>  <r_i_glide_einternal>  (395) 
0.0699487

>  <r_i_glide_intrahb_reward>  (395) 
-0

>  <i_i_glide_confnum>  (395) 
4

>  <i_i_glide_posenum>  (395) 
3

>  <r_i_glide_eff_state_penalty>  (395) 
0

>  <ligand_id>  (395) 
111

>  <original_smiles>  (395) 
Clc1nnc(-c2ccncc2)[nH]1

>  <smiles>  (395) 
[H]c1nc([H])c([H])c(-c2n[n-]c(Cl)n2)c1[H]

$$$$
111:1:2
     RDKit          3D

 16 17  0  0  1  0  0  0  0  0999 V2000
    3.6389   -4.5418    3.6326 Cl  0  0  0  0  0  0  0  0  0  0  0  0
    3.2027   -4.3429    1.9747 C   0  0  0  0  0  0  0  0  0  0  0  0
    2.2896   -5.1005    1.3402 N   0  0  0  0  0  0  0  0  0  0  0  0
    2.2372   -4.6735    0.0878 N   0  0  0  0  0  0  0  0  0  0  0  0
    3.1069   -3.6450    0.0251 C   0  0  0  0  0  0  0  0  0  0  0  0
    3.3473   -2.8472   -1.1924 C   0  0  0  0  0  0  0  0  0  0  0  0
    2.6106   -3.0547   -2.3784 C   0  0  0  0  0  0  0  0  0  0  0  0
    2.8810   -2.2697   -3.5083 C   0  0  0  0  0  0  0  0  0  0  0  0
    3.8226   -1.3070   -3.5379 N   0  0  0  0  0  0  0  0  0  0  0  0
    4.5069   -1.0839   -2.3980 C   0  0  0  0  0  0  0  0  0  0  0  0
    4.3180   -1.8234   -1.2194 C   0  0  0  0  0  0  0  0  0  0  0  0
    3.7339   -3.4175    1.1911 N   0  0  0  0  0  0  0  0  0  0  0  0
    1.8417   -3.8140   -2.4235 H   0  0  0  0  0  0  0  0  0  0  0  0
    2.3117   -2.4196   -4.4046 H   0  0  0  0  0  0  0  0  0  0  0  0
    5.2426   -0.2974   -2.4281 H   0  0  0  0  0  0  0  0  0  0  0  0
    4.8999   -1.6148   -0.3351 H   0  0  0  0  0  0  0  0  0  0  0  0
  1  2  1  0
  2 12  2  0
  2  3  1  0
  3  4  1  0
  4  5  2  0
  5 12  1  0
  5  6  1  0
  6 11  1  0
  6  7  2  0
  7  8  1  0
  7 13  1  0
  8  9  2  0
  8 14  1  0
  9 10  1  0
 10 11  2  0
 10 15  1  0
 11 16  1  0
M  CHG  1   3  -1
M  END
>  <i_m_ct_stereo_status>  (396) 
1

>  <s_m_source_file>  (396) 
/var/tmp/pbs.5076255.sched01/tmp54n2b71h/144k2pf1zoq.sdf

>  <i_m_source_file_index>  (396) 
26

>  <i_lp_mmshare_version>  (396) 
48012

>  <i_f3d_flags>  (396) 
0

>  <s_epik_input>  (396) 
Q2xjMW5uYyhbbkhdMSktYzJbY0hdW2NIXW5bY0hdW2NIXTI=

>  <s_epik_cmdline>  (396) 
J2VwaWtfcHl0aG9uJywgJy1waHQnLCAnMi4wJywgJy1waCcsICc3LjAnLCAnLXRuJywgJzgnLCAnLW1hJywgJzIwMCcsICctaW1hZScsICc8aW5maWxlLm1hZT4nLCAnLW9tYWUnLCAnPG91dGZpbGUubWFlPic=

>  <r_lp_tautomer_probability>  (396) 
1

>  <r_epik_Ionization_Penalty>  (396) 
0.495272

>  <r_epik_Ionization_Penalty_Charging>  (396) 
0.490563

>  <r_epik_Ionization_Penalty_Neutral>  (396) 
0.00470924

>  <r_epik_State_Penalty>  (396) 
0.456776

>  <r_epik_Charging_Adjusted_Penalty>  (396) 
0.947338

>  <i_epik_Tot_Q>  (396) 
-1

>  <i_epik_Tot_abs_Q>  (396) 
1

>  <s_lp_Force_Field>  (396) 
OPLS3e

>  <r_lp_Energy>  (396) 
12.6501

>  <b_lp_Chiralities_Consistent>  (396) 
1

>  <s_lp_Variant>  (396) 
111:0-2

>  <s_i_glide_gridfile>  (396) 
pfpi4k_grid

>  <i_i_glide_lignum>  (396) 
26

>  <i_i_glide_rotatable_bonds>  (396) 
1

>  <r_i_docking_score>  (396) 
-2.91283

>  <r_i_glide_ligand_efficiency>  (396) 
-0.242735

>  <r_i_glide_ligand_efficiency_sa>  (396) 
-0.555725

>  <r_i_glide_ligand_efficiency_ln>  (396) 
-0.83584

>  <r_i_glide_gscore>  (396) 
-2.91283

>  <r_i_glide_lipo>  (396) 
-0.221927

>  <r_i_glide_hbond>  (396) 
0

>  <r_i_glide_metal>  (396) 
-0

>  <r_i_glide_rewards>  (396) 
-2.18583

>  <r_i_glide_evdw>  (396) 
-16.3924

>  <r_i_glide_ecoul>  (396) 
-0.465365

>  <r_i_glide_erotb>  (396) 
0.487953

>  <r_i_glide_esite>  (396) 
-0.103598

>  <r_i_glide_emodel>  (396) 
-22.1005

>  <r_i_glide_energy>  (396) 
-16.8578

>  <r_i_glide_einternal>  (396) 
0.0114569

>  <r_i_glide_intrahb_reward>  (396) 
-0

>  <i_i_glide_confnum>  (396) 
4

>  <i_i_glide_posenum>  (396) 
11

>  <r_i_glide_eff_state_penalty>  (396) 
0

>  <ligand_id>  (396) 
111

>  <original_smiles>  (396) 
Clc1nnc(-c2ccncc2)[nH]1

>  <smiles>  (396) 
[H]c1nc([H])c([H])c(-c2n[n-]c(Cl)n2)c1[H]

$$$$
111:2:0
     RDKit          3D

 17 18  0  0  1  0  0  0  0  0999 V2000
    2.5008    4.9655    3.2651 Cl  0  0  0  0  0  0  0  0  0  0  0  0
    1.0343    4.5249    4.0317 C   0  0  0  0  0  0  0  0  0  0  0  0
   -0.0590    4.4229    3.2796 N   0  0  0  0  0  0  0  0  0  0  0  0
   -1.0895    4.0669    4.0926 N   0  0  0  0  0  0  0  0  0  0  0  0
   -0.4701    3.9786    5.2819 C   0  0  0  0  0  0  0  0  0  0  0  0
   -1.2092    3.6136    6.5097 C   0  0  0  0  0  0  0  0  0  0  0  0
   -0.5674    3.6084    7.7697 C   0  0  0  0  0  0  0  0  0  0  0  0
   -1.3009    3.2595    8.9184 C   0  0  0  0  0  0  0  0  0  0  0  0
   -2.6015    2.9196    8.8822 N   0  0  0  0  0  0  0  0  0  0  0  0
   -3.2216    2.9423    7.6914 C   0  0  0  0  0  0  0  0  0  0  0  0
   -2.5776    3.2687    6.4851 C   0  0  0  0  0  0  0  0  0  0  0  0
    0.8670    4.2718    5.3219 N   0  0  0  0  0  0  0  0  0  0  0  0
   -0.1233    4.5231    2.2559 H   0  0  0  0  0  0  0  0  0  0  0  0
    0.4782    3.8682    7.8589 H   0  0  0  0  0  0  0  0  0  0  0  0
   -0.8222    3.2496    9.8855 H   0  0  0  0  0  0  0  0  0  0  0  0
   -4.2650    2.6652    7.6940 H   0  0  0  0  0  0  0  0  0  0  0  0
   -3.1332    3.2511    5.5566 H   0  0  0  0  0  0  0  0  0  0  0  0
  1  2  1  0
  2 12  2  0
  2  3  1  0
  3 13  1  0
  3  4  1  0
  4  5  2  0
  5 12  1  0
  5  6  1  0
  6 11  1  0
  6  7  2  0
  7  8  1  0
  7 14  1  0
  8  9  2  0
  8 15  1  0
  9 10  1  0
 10 11  2  0
 10 16  1  0
 11 17  1  0
M  END
>  <i_m_ct_stereo_status>  (397) 
1

>  <s_m_source_file>  (397) 
/var/tmp/pbs.5076255.sched01/tmp54n2b71h/144k2pf1zoq.sdf

>  <i_m_source_file_index>  (397) 
27

>  <i_lp_mmshare_version>  (397) 
48012

>  <i_f3d_flags>  (397) 
0

>  <s_epik_input>  (397) 
Q2xjMW5uYyhbbkhdMSktYzJbY0hdW2NIXW5bY0hdW2NIXTI=

>  <s_epik_cmdline>  (397) 
J2VwaWtfcHl0aG9uJywgJy1waHQnLCAnMi4wJywgJy1waCcsICc3LjAnLCAnLXRuJywgJzgnLCAnLW1hJywgJzIwMCcsICctaW1hZScsICc8aW5maWxlLm1hZT4nLCAnLW9tYWUnLCAnPG91dGZpbGUubWFlPic=

>  <r_epik_Ionization_Penalty>  (397) 
1.48365

>  <r_epik_Ionization_Penalty_Charging>  (397) 
0

>  <r_epik_Ionization_Penalty_Neutral>  (397) 
1.48365

>  <r_epik_State_Penalty>  (397) 
1.98533

>  <r_epik_Charging_Adjusted_Penalty>  (397) 
1.98533

>  <i_epik_Tot_Q>  (397) 
0

>  <i_epik_Tot_abs_Q>  (397) 
0

>  <s_lp_Force_Field>  (397) 
OPLS3e

>  <r_lp_Energy>  (397) 
16.5308

>  <b_lp_Chiralities_Consistent>  (397) 
1

>  <s_lp_Variant>  (397) 
111:0-3

>  <s_i_glide_gridfile>  (397) 
pfpi4k_grid

>  <i_i_glide_lignum>  (397) 
27

>  <i_i_glide_rotatable_bonds>  (397) 
1

>  <r_i_docking_score>  (397) 
-3.88959

>  <r_i_glide_ligand_efficiency>  (397) 
-0.324132

>  <r_i_glide_ligand_efficiency_sa>  (397) 
-0.742078

>  <r_i_glide_ligand_efficiency_ln>  (397) 
-1.11612

>  <r_i_glide_gscore>  (397) 
-3.88959

>  <r_i_glide_lipo>  (397) 
-0.26523

>  <r_i_glide_hbond>  (397) 
-0.15352

>  <r_i_glide_metal>  (397) 
-0

>  <r_i_glide_rewards>  (397) 
-2.17777

>  <r_i_glide_evdw>  (397) 
-11.6984

>  <r_i_glide_ecoul>  (397) 
-6.76498

>  <r_i_glide_erotb>  (397) 
0.483486

>  <r_i_glide_esite>  (397) 
-0.176891

>  <r_i_glide_emodel>  (397) 
-23.9893

>  <r_i_glide_energy>  (397) 
-18.4633

>  <r_i_glide_einternal>  (397) 
0.00310617

>  <r_i_glide_intrahb_reward>  (397) 
-0

>  <i_i_glide_confnum>  (397) 
1

>  <i_i_glide_posenum>  (397) 
1

>  <r_i_glide_eff_state_penalty>  (397) 
0

>  <ligand_id>  (397) 
111

>  <original_smiles>  (397) 
Clc1nnc(-c2ccncc2)[nH]1

>  <smiles>  (397) 
[H]c1nc([H])c([H])c(-c2nc(Cl)n([H])n2)c1[H]

$$$$
111:2:1
     RDKit          3D

 17 18  0  0  1  0  0  0  0  0999 V2000
    0.6164  -10.6602    3.1036 Cl  0  0  0  0  0  0  0  0  0  0  0  0
    0.4485   -8.9591    3.2107 C   0  0  0  0  0  0  0  0  0  0  0  0
    0.2552   -8.2679    2.0849 N   0  0  0  0  0  0  0  0  0  0  0  0
    0.1677   -6.9515    2.4059 N   0  0  0  0  0  0  0  0  0  0  0  0
    0.3402   -6.9996    3.7332 C   0  0  0  0  0  0  0  0  0  0  0  0
    0.3356   -5.7780    4.5627 C   0  0  0  0  0  0  0  0  0  0  0  0
   -0.1812   -5.7894    5.8767 C   0  0  0  0  0  0  0  0  0  0  0  0
   -0.1766   -4.6027    6.6300 C   0  0  0  0  0  0  0  0  0  0  0  0
    0.2895   -3.4296    6.1572 N   0  0  0  0  0  0  0  0  0  0  0  0
    0.7968   -3.4158    4.9069 C   0  0  0  0  0  0  0  0  0  0  0  0
    0.8409   -4.5513    4.0799 C   0  0  0  0  0  0  0  0  0  0  0  0
    0.5078   -8.2260    4.3095 N   0  0  0  0  0  0  0  0  0  0  0  0
    0.1827   -8.6517    1.1464 H   0  0  0  0  0  0  0  0  0  0  0  0
   -0.5766   -6.6992    6.3004 H   0  0  0  0  0  0  0  0  0  0  0  0
   -0.5646   -4.5929    7.6363 H   0  0  0  0  0  0  0  0  0  0  0  0
    1.1742   -2.4687    4.5536 H   0  0  0  0  0  0  0  0  0  0  0  0
    1.2476   -4.4781    3.0822 H   0  0  0  0  0  0  0  0  0  0  0  0
  1  2  1  0
  2 12  2  0
  2  3  1  0
  3 13  1  0
  3  4  1  0
  4  5  2  0
  5 12  1  0
  5  6  1  0
  6 11  1  0
  6  7  2  0
  7  8  1  0
  7 14  1  0
  8  9  2  0
  8 15  1  0
  9 10  1  0
 10 11  2  0
 10 16  1  0
 11 17  1  0
M  END
>  <i_m_ct_stereo_status>  (398) 
1

>  <s_m_source_file>  (398) 
/var/tmp/pbs.5076255.sched01/tmp54n2b71h/144k2pf1zoq.sdf

>  <i_m_source_file_index>  (398) 
27

>  <i_lp_mmshare_version>  (398) 
48012

>  <i_f3d_flags>  (398) 
0

>  <s_epik_input>  (398) 
Q2xjMW5uYyhbbkhdMSktYzJbY0hdW2NIXW5bY0hdW2NIXTI=

>  <s_epik_cmdline>  (398) 
J2VwaWtfcHl0aG9uJywgJy1waHQnLCAnMi4wJywgJy1waCcsICc3LjAnLCAnLXRuJywgJzgnLCAnLW1hJywgJzIwMCcsICctaW1hZScsICc8aW5maWxlLm1hZT4nLCAnLW9tYWUnLCAnPG91dGZpbGUubWFlPic=

>  <r_epik_Ionization_Penalty>  (398) 
1.48365

>  <r_epik_Ionization_Penalty_Charging>  (398) 
0

>  <r_epik_Ionization_Penalty_Neutral>  (398) 
1.48365

>  <r_epik_State_Penalty>  (398) 
1.98533

>  <r_epik_Charging_Adjusted_Penalty>  (398) 
1.98533

>  <i_epik_Tot_Q>  (398) 
0

>  <i_epik_Tot_abs_Q>  (398) 
0

>  <s_lp_Force_Field>  (398) 
OPLS3e

>  <r_lp_Energy>  (398) 
16.5308

>  <b_lp_Chiralities_Consistent>  (398) 
1

>  <s_lp_Variant>  (398) 
111:0-3

>  <s_i_glide_gridfile>  (398) 
pfpi4k_grid

>  <i_i_glide_lignum>  (398) 
27

>  <i_i_glide_rotatable_bonds>  (398) 
1

>  <r_i_docking_score>  (398) 
-3.63167

>  <r_i_glide_ligand_efficiency>  (398) 
-0.302639

>  <r_i_glide_ligand_efficiency_sa>  (398) 
-0.69287

>  <r_i_glide_ligand_efficiency_ln>  (398) 
-1.04211

>  <r_i_glide_gscore>  (398) 
-3.63167

>  <r_i_glide_lipo>  (398) 
-0.0814082

>  <r_i_glide_hbond>  (398) 
-0.331381

>  <r_i_glide_metal>  (398) 
-0

>  <r_i_glide_rewards>  (398) 
-2.17777

>  <r_i_glide_evdw>  (398) 
-14.2669

>  <r_i_glide_ecoul>  (398) 
-4.6355

>  <r_i_glide_erotb>  (398) 
0.483486

>  <r_i_glide_esite>  (398) 
-0.115926

>  <r_i_glide_emodel>  (398) 
-23.6774

>  <r_i_glide_energy>  (398) 
-18.9024

>  <r_i_glide_einternal>  (398) 
0.730311

>  <r_i_glide_intrahb_reward>  (398) 
-0

>  <i_i_glide_confnum>  (398) 
2

>  <i_i_glide_posenum>  (398) 
4

>  <r_i_glide_eff_state_penalty>  (398) 
0

>  <ligand_id>  (398) 
111

>  <original_smiles>  (398) 
Clc1nnc(-c2ccncc2)[nH]1

>  <smiles>  (398) 
[H]c1nc([H])c([H])c(-c2nc(Cl)n([H])n2)c1[H]

$$$$
111:2:2
     RDKit          3D

 17 18  0  0  1  0  0  0  0  0999 V2000
    4.9311   -4.4258    3.8176 Cl  0  0  0  0  0  0  0  0  0  0  0  0
    4.2378   -4.2166    2.2643 C   0  0  0  0  0  0  0  0  0  0  0  0
    2.9511   -4.5135    2.1059 N   0  0  0  0  0  0  0  0  0  0  0  0
    2.6196   -4.2811    0.8157 N   0  0  0  0  0  0  0  0  0  0  0  0
    3.7794   -3.8461    0.3171 C   0  0  0  0  0  0  0  0  0  0  0  0
    3.9181   -3.4467   -1.0985 C   0  0  0  0  0  0  0  0  0  0  0  0
    2.8086   -3.0564   -1.8821 C   0  0  0  0  0  0  0  0  0  0  0  0
    3.0029   -2.6878   -3.2260 C   0  0  0  0  0  0  0  0  0  0  0  0
    4.2129   -2.6873   -3.8249 N   0  0  0  0  0  0  0  0  0  0  0  0
    5.2693   -3.0632   -3.0767 C   0  0  0  0  0  0  0  0  0  0  0  0
    5.1790   -3.4405   -1.7283 C   0  0  0  0  0  0  0  0  0  0  0  0
    4.8460   -3.7856    1.1729 N   0  0  0  0  0  0  0  0  0  0  0  0
    2.3089   -4.8571    2.8052 H   0  0  0  0  0  0  0  0  0  0  0  0
    1.8152   -3.0331   -1.4616 H   0  0  0  0  0  0  0  0  0  0  0  0
    2.1654   -2.3852   -3.8357 H   0  0  0  0  0  0  0  0  0  0  0  0
    6.2354   -3.0597   -3.5478 H   0  0  0  0  0  0  0  0  0  0  0  0
    6.0683   -3.7325   -1.1914 H   0  0  0  0  0  0  0  0  0  0  0  0
  1  2  1  0
  2 12  2  0
  2  3  1  0
  3 13  1  0
  3  4  1  0
  4  5  2  0
  5 12  1  0
  5  6  1  0
  6 11  1  0
  6  7  2  0
  7  8  1  0
  7 14  1  0
  8  9  2  0
  8 15  1  0
  9 10  1  0
 10 11  2  0
 10 16  1  0
 11 17  1  0
M  END
>  <i_m_ct_stereo_status>  (399) 
1

>  <s_m_source_file>  (399) 
/var/tmp/pbs.5076255.sched01/tmp54n2b71h/144k2pf1zoq.sdf

>  <i_m_source_file_index>  (399) 
27

>  <i_lp_mmshare_version>  (399) 
48012

>  <i_f3d_flags>  (399) 
0

>  <s_epik_input>  (399) 
Q2xjMW5uYyhbbkhdMSktYzJbY0hdW2NIXW5bY0hdW2NIXTI=

>  <s_epik_cmdline>  (399) 
J2VwaWtfcHl0aG9uJywgJy1waHQnLCAnMi4wJywgJy1waCcsICc3LjAnLCAnLXRuJywgJzgnLCAnLW1hJywgJzIwMCcsICctaW1hZScsICc8aW5maWxlLm1hZT4nLCAnLW9tYWUnLCAnPG91dGZpbGUubWFlPic=

>  <r_epik_Ionization_Penalty>  (399) 
1.48365

>  <r_epik_Ionization_Penalty_Charging>  (399) 
0

>  <r_epik_Ionization_Penalty_Neutral>  (399) 
1.48365

>  <r_epik_State_Penalty>  (399) 
1.98533

>  <r_epik_Charging_Adjusted_Penalty>  (399) 
1.98533

>  <i_epik_Tot_Q>  (399) 
0

>  <i_epik_Tot_abs_Q>  (399) 
0

>  <s_lp_Force_Field>  (399) 
OPLS3e

>  <r_lp_Energy>  (399) 
16.5308

>  <b_lp_Chiralities_Consistent>  (399) 
1

>  <s_lp_Variant>  (399) 
111:0-3

>  <s_i_glide_gridfile>  (399) 
pfpi4k_grid

>  <i_i_glide_lignum>  (399) 
27

>  <i_i_glide_rotatable_bonds>  (399) 
1

>  <r_i_docking_score>  (399) 
-3.41697

>  <r_i_glide_ligand_efficiency>  (399) 
-0.284747

>  <r_i_glide_ligand_efficiency_sa>  (399) 
-0.651908

>  <r_i_glide_ligand_efficiency_ln>  (399) 
-0.980504

>  <r_i_glide_gscore>  (399) 
-3.41697

>  <r_i_glide_lipo>  (399) 
-0.383321

>  <r_i_glide_hbond>  (399) 
-0.0798521

>  <r_i_glide_metal>  (399) 
-0

>  <r_i_glide_rewards>  (399) 
-2.1872

>  <r_i_glide_evdw>  (399) 
-16.8039

>  <r_i_glide_ecoul>  (399) 
-2.71267

>  <r_i_glide_erotb>  (399) 
0.483486

>  <r_i_glide_esite>  (399) 
-0.0029844

>  <r_i_glide_emodel>  (399) 
-24.2109

>  <r_i_glide_energy>  (399) 
-19.5165

>  <r_i_glide_einternal>  (399) 
0.309865

>  <r_i_glide_intrahb_reward>  (399) 
-0

>  <i_i_glide_confnum>  (399) 
2

>  <i_i_glide_posenum>  (399) 
5

>  <r_i_glide_eff_state_penalty>  (399) 
0

>  <ligand_id>  (399) 
111

>  <original_smiles>  (399) 
Clc1nnc(-c2ccncc2)[nH]1

>  <smiles>  (399) 
[H]c1nc([H])c([H])c(-c2nc(Cl)n([H])n2)c1[H]

$$$$
112:0:0
     RDKit          3D

 59 65  0  0  1  0  0  0  0  0999 V2000
    5.6509   -2.6027   -0.7618 C   0  0  0  0  0  0  0  0  0  0  0  0
    4.8504   -2.9914    0.4251 N   0  0  2  0  0  0  0  0  0  0  0  0
    4.7675   -1.9379    1.4860 C   0  0  0  0  0  0  0  0  0  0  0  0
    4.8268   -2.6792    2.8750 C   0  0  0  0  0  0  0  0  0  0  0  0
    4.5608   -4.1546    2.4877 C   0  0  1  0  0  0  0  0  0  0  0  0
    5.2141   -5.3648    3.0991 C   0  0  0  0  0  0  0  0  0  0  0  0
    5.9002   -6.1642    2.1491 C   0  0  0  0  0  0  0  0  0  0  0  0
    6.4064   -7.3960    2.5762 C   0  0  0  0  0  0  0  0  0  0  0  0
    6.1553   -7.8014    3.9050 C   0  0  0  0  0  0  0  0  0  0  0  0
    5.3196   -7.0337    4.7651 C   0  0  0  0  0  0  0  0  0  0  0  0
    4.9380   -7.5449    5.9665 O   0  0  0  0  0  0  0  0  0  0  0  0
    4.7923   -5.7912    4.3556 C   0  0  0  0  0  0  0  0  0  0  0  0
    3.7101   -5.1803    4.9668 O   0  0  0  0  0  0  0  0  0  0  0  0
    2.6630   -4.7078    4.0743 C   0  0  2  0  0  0  0  0  0  0  0  0
    1.6959   -5.7837    3.5860 C   0  0  2  0  0  0  0  0  0  0  0  0
    1.4139   -7.1737    4.1017 C   0  0  1  0  0  0  0  0  0  0  0  0
    0.8003   -7.1341    5.3963 O   0  0  0  0  0  0  0  0  0  0  0  0
    0.8573   -8.1423    6.3128 C   0  0  0  0  0  0  0  0  0  0  0  0
    1.4358   -9.3005    5.8131 N   0  0  0  0  0  0  0  0  0  0  0  0
    0.4019   -8.0220    7.4482 O   0  0  0  0  0  0  0  0  0  0  0  0
    0.4972   -7.8880    3.0227 C   0  0  0  0  0  0  0  0  0  0  0  0
    0.6829   -7.3233    1.5874 C   0  0  0  0  0  0  0  0  0  0  0  0
    1.5566   -6.3550    1.2444 C   0  0  0  0  0  0  0  0  0  0  0  0
    2.5068   -5.8978    2.3142 C   0  0  1  0  0  0  0  0  0  0  0  0
    3.0467   -4.4700    2.5582 C   0  0  2  0  0  0  0  0  0  0  0  0
    2.3067   -3.4826    1.8749 O   0  0  0  0  0  0  0  0  0  0  0  0
    0.8102   -9.2386    3.0305 O   0  0  0  0  0  0  0  0  0  0  0  0
   -0.4043   -9.9505    2.8495 C   0  0  0  0  0  0  0  0  0  0  0  0
   -1.4997   -8.8775    2.8303 C   0  0  0  0  0  0  0  0  0  0  0  0
   -0.8396   -7.7575    3.3992 O   0  0  0  0  0  0  0  0  0  0  0  0
    5.6681   -5.5286    0.7739 C   0  0  0  0  0  0  0  0  0  0  0  0
    5.3487   -4.1165    1.2095 C   0  0  1  0  0  0  0  0  0  0  0  0
    6.6722   -2.3195   -0.4997 H   0  0  0  0  0  0  0  0  0  0  0  0
    5.1833   -1.7482   -1.2574 H   0  0  0  0  0  0  0  0  0  0  0  0
    5.6952   -3.4192   -1.4841 H   0  0  0  0  0  0  0  0  0  0  0  0
    5.5835   -1.2198    1.4229 H   0  0  0  0  0  0  0  0  0  0  0  0
    3.8492   -1.3627    1.3659 H   0  0  0  0  0  0  0  0  0  0  0  0
    5.8262   -2.5736    3.2996 H   0  0  0  0  0  0  0  0  0  0  0  0
    4.1180   -2.2792    3.6071 H   0  0  0  0  0  0  0  0  0  0  0  0
    6.9123   -8.0588    1.8788 H   0  0  0  0  0  0  0  0  0  0  0  0
    6.4931   -8.7657    4.2344 H   0  0  0  0  0  0  0  0  0  0  0  0
    5.2348   -8.4248    6.1329 H   0  0  0  0  0  0  0  0  0  0  0  0
    2.1108   -3.8630    4.4992 H   0  0  0  0  0  0  0  0  0  0  0  0
    0.7683   -5.2459    3.3854 H   0  0  0  0  0  0  0  0  0  0  0  0
    2.3838   -7.6793    4.1535 H   0  0  0  0  0  0  0  0  0  0  0  0
    1.6146   -9.3198    4.8128 H   0  0  0  0  0  0  0  0  0  0  0  0
    1.3921  -10.1455    6.3577 H   0  0  0  0  0  0  0  0  0  0  0  0
    0.0931   -7.7863    0.8218 H   0  0  0  0  0  0  0  0  0  0  0  0
    1.6888   -6.0387    0.2197 H   0  0  0  0  0  0  0  0  0  0  0  0
    3.2586   -6.6811    2.3888 H   0  0  0  0  0  0  0  0  0  0  0  0
    2.4826   -2.6657    2.3140 H   0  0  0  0  0  0  0  0  0  0  0  0
   -0.3742  -10.5464    1.9394 H   0  0  0  0  0  0  0  0  0  0  0  0
   -0.5462  -10.6467    3.6751 H   0  0  0  0  0  0  0  0  0  0  0  0
   -1.7894   -8.6336    1.8074 H   0  0  0  0  0  0  0  0  0  0  0  0
   -2.4136   -9.1649    3.3562 H   0  0  0  0  0  0  0  0  0  0  0  0
    6.5606   -5.6042    0.1455 H   0  0  0  0  0  0  0  0  0  0  0  0
    4.8098   -6.0061    0.2923 H   0  0  0  0  0  0  0  0  0  0  0  0
    6.3576   -3.7924    1.4746 H   0  0  0  0  0  0  0  0  0  0  0  0
    3.9049   -3.2132    0.1438 H   0  0  0  0  0  0  0  0  0  0  0  0
  1  2  1  0
  1 33  1  0
  1 34  1  0
  1 35  1  0
  2 32  1  0
  2  3  1  0
  2 59  1  6
  3  4  1  0
  3 36  1  0
  3 37  1  0
  5  4  1  1
  4 38  1  0
  4 39  1  0
  5 25  1  0
  5 32  1  0
  5  6  1  0
  6 12  1  0
  6  7  2  0
  7  8  1  0
  7 31  1  0
  8  9  2  0
  8 40  1  0
  9 10  1  0
  9 41  1  0
 10 11  1  0
 10 12  2  0
 11 42  1  0
 12 13  1  0
 13 14  1  0
 14 25  1  0
 14 15  1  0
 14 43  1  1
 15 24  1  0
 15 16  1  0
 15 44  1  6
 16 17  1  0
 16 21  1  0
 16 45  1  1
 17 18  1  0
 18 19  1  0
 18 20  2  0
 19 46  1  0
 19 47  1  0
 21 30  1  0
 21 22  1  0
 21 27  1  0
 22 23  2  0
 22 48  1  0
 23 24  1  0
 23 49  1  0
 24 25  1  0
 24 50  1  1
 25 26  1  6
 26 51  1  0
 27 28  1  0
 28 29  1  0
 28 52  1  0
 28 53  1  0
 29 30  1  0
 29 54  1  0
 29 55  1  0
 31 32  1  0
 31 56  1  0
 31 57  1  0
 32 58  1  1
M  CHG  1   2   1
M  END
>  <i_m_ct_stereo_status>  (400) 
1

>  <s_m_source_file>  (400) 
/var/tmp/pbs.5076255.sched01/tmp54n2b71h/144k2pf1zoq.sdf

>  <i_m_source_file_index>  (400) 
28

>  <i_lp_mmshare_version>  (400) 
48012

>  <i_f3d_flags>  (400) 
0

>  <s_epik_input>  (400) 
W0NIMl0xW0NIMl1OKFtDSDNdKVtDQEBIXTJbQ0gyXWMoYzNbQ0BAXTEyNClbY0hdW2NIXWMoW09IXSljM09bQ0BASF01W0NASF02W0NASF0oW0NAXTQ1W09IXSlbQ0hdPVtDSF1DNyhPW0NIMl1bQ0gyXU83KVtDQEBIXTZPQyg9TylbTkgyXQ==

>  <s_epik_cmdline>  (400) 
J2VwaWtfcHl0aG9uJywgJy1waHQnLCAnMi4wJywgJy1waCcsICc3LjAnLCAnLXRuJywgJzgnLCAnLW1hJywgJzIwMCcsICctaW1hZScsICc8aW5maWxlLm1hZT4nLCAnLW9tYWUnLCAnPG91dGZpbGUubWFlPic=

>  <r_lp_tautomer_probability>  (400) 
1

>  <r_epik_Ionization_Penalty>  (400) 
0.0146543

>  <r_epik_Ionization_Penalty_Charging>  (400) 
0.0123886

>  <r_epik_Ionization_Penalty_Neutral>  (400) 
0.00226565

>  <r_epik_State_Penalty>  (400) 
0.0095871

>  <r_epik_Charging_Adjusted_Penalty>  (400) 
0.0219757

>  <i_epik_Tot_Q>  (400) 
1

>  <i_epik_Tot_abs_Q>  (400) 
1

>  <s_epik_Chemistry_Notes>  (400) 
This compound has an ester and may undergo hydrolysis at high or low pH.

>  <s_lp_Force_Field>  (400) 
OPLS3e

>  <r_lp_Energy>  (400) 
84.6565

>  <b_lp_Chiralities_Consistent>  (400) 
1

>  <s_lp_Variant>  (400) 
112:0-1

>  <s_i_glide_gridfile>  (400) 
pfpi4k_grid

>  <i_i_glide_lignum>  (400) 
28

>  <i_i_glide_rotatable_bonds>  (400) 
4

>  <r_i_docking_score>  (400) 
-3.03629

>  <r_i_glide_ligand_efficiency>  (400) 
-0.094884

>  <r_i_glide_ligand_efficiency_sa>  (400) 
-0.301238

>  <r_i_glide_ligand_efficiency_ln>  (400) 
-0.679908

>  <r_i_glide_gscore>  (400) 
-3.03629

>  <r_i_glide_lipo>  (400) 
-0.294314

>  <r_i_glide_hbond>  (400) 
0

>  <r_i_glide_metal>  (400) 
-0

>  <r_i_glide_rewards>  (400) 
-0.885434

>  <r_i_glide_evdw>  (400) 
-23.6414

>  <r_i_glide_ecoul>  (400) 
-4.51047

>  <r_i_glide_erotb>  (400) 
0.101655

>  <r_i_glide_esite>  (400) 
-0.0995569

>  <r_i_glide_emodel>  (400) 
-37.0056

>  <r_i_glide_energy>  (400) 
-28.1518

>  <r_i_glide_einternal>  (400) 
3.27458

>  <r_i_glide_intrahb_reward>  (400) 
-0.5

>  <i_i_glide_confnum>  (400) 
3

>  <i_i_glide_posenum>  (400) 
10

>  <r_i_glide_eff_state_penalty>  (400) 
0

>  <ligand_id>  (400) 
112

>  <original_smiles>  (400) 
CN1CCC23c4c(ccc(O)c4OC4C5C(OC(N)=O)C6(C=CC5C42O)OCCO6)CC13

>  <smiles>  (400) 
[H]Oc1c([H])c([H])c2c3c1OC1([H])C4([H])C([H])(OC(=O)N([H])[H])C5(OC([H])([H])C([H])([H])O5)C([H])=C([H])C4([H])C1(O[H])C31C([H])([H])C([H])([H])[N+]([H])(C([H])([H])[H])C1([H])C2([H])[H]

$$$$
112:0:1
     RDKit          3D

 59 65  0  0  1  0  0  0  0  0999 V2000
   -2.2878    3.9070    2.9130 C   0  0  0  0  0  0  0  0  0  0  0  0
   -1.4193    2.8405    3.4505 N   0  0  2  0  0  0  0  0  0  0  0  0
   -1.9936    2.0911    4.6142 C   0  0  0  0  0  0  0  0  0  0  0  0
   -0.8092    1.7929    5.6100 C   0  0  0  0  0  0  0  0  0  0  0  0
    0.4370    2.0596    4.7340 C   0  0  1  0  0  0  0  0  0  0  0  0
    1.7187    2.7009    5.1963 C   0  0  0  0  0  0  0  0  0  0  0  0
    2.0477    3.8682    4.4764 C   0  0  0  0  0  0  0  0  0  0  0  0
    3.2992    4.4516    4.7016 C   0  0  0  0  0  0  0  0  0  0  0  0
    4.1703    3.8306    5.6244 C   0  0  0  0  0  0  0  0  0  0  0  0
    3.8360    2.5937    6.2370 C   0  0  0  0  0  0  0  0  0  0  0  0
    4.7495    1.9923    7.0399 O   0  0  0  0  0  0  0  0  0  0  0  0
    2.6111    1.9512    5.9617 C   0  0  0  0  0  0  0  0  0  0  0  0
    2.3930    0.6044    6.1691 O   0  0  0  0  0  0  0  0  0  0  0  0
    1.7281   -0.0985    5.0827 C   0  0  2  0  0  0  0  0  0  0  0  0
    2.6447   -0.5064    3.9304 C   0  0  2  0  0  0  0  0  0  0  0  0
    4.1442   -0.6343    3.8655 C   0  0  1  0  0  0  0  0  0  0  0  0
    4.5884   -1.7015    4.7044 O   0  0  0  0  0  0  0  0  0  0  0  0
    5.4061   -1.4607    5.7407 C   0  0  0  0  0  0  0  0  0  0  0  0
    5.5649   -2.6075    6.4732 N   0  0  0  0  0  0  0  0  0  0  0  0
    5.9290   -0.3811    6.0088 O   0  0  0  0  0  0  0  0  0  0  0  0
    4.5211   -0.8625    2.3494 C   0  0  0  0  0  0  0  0  0  0  0  0
    3.4684   -0.2732    1.3576 C   0  0  0  0  0  0  0  0  0  0  0  0
    2.3570    0.3973    1.7168 C   0  0  0  0  0  0  0  0  0  0  0  0
    2.1997    0.7257    3.1722 C   0  0  1  0  0  0  0  0  0  0  0  0
    0.9018    0.7528    4.0358 C   0  0  2  0  0  0  0  0  0  0  0  0
   -0.1965    0.0676    3.4603 O   0  0  0  0  0  0  0  0  0  0  0  0
    5.7571   -0.2816    2.1310 O   0  0  0  0  0  0  0  0  0  0  0  0
    6.4258   -1.0989    1.1791 C   0  0  0  0  0  0  0  0  0  0  0  0
    5.5104   -2.3150    0.9844 C   0  0  0  0  0  0  0  0  0  0  0  0
    4.6652   -2.2280    2.1190 O   0  0  0  0  0  0  0  0  0  0  0  0
    0.9863    4.0421    3.3863 C   0  0  0  0  0  0  0  0  0  0  0  0
   -0.1383    3.2526    4.0175 C   0  0  1  0  0  0  0  0  0  0  0  0
   -2.5531    4.6294    3.6866 H   0  0  0  0  0  0  0  0  0  0  0  0
   -3.2141    3.4724    2.5227 H   0  0  0  0  0  0  0  0  0  0  0  0
   -1.7860    4.4264    2.0935 H   0  0  0  0  0  0  0  0  0  0  0  0
   -2.7611    2.6674    5.1328 H   0  0  0  0  0  0  0  0  0  0  0  0
   -2.4683    1.1735    4.2701 H   0  0  0  0  0  0  0  0  0  0  0  0
   -0.8436    2.4887    6.4527 H   0  0  0  0  0  0  0  0  0  0  0  0
   -0.8399    0.7785    6.0200 H   0  0  0  0  0  0  0  0  0  0  0  0
    3.6157    5.3227    4.1419 H   0  0  0  0  0  0  0  0  0  0  0  0
    5.1553    4.2212    5.7808 H   0  0  0  0  0  0  0  0  0  0  0  0
    4.6087    1.0579    7.1149 H   0  0  0  0  0  0  0  0  0  0  0  0
    1.1524   -0.9516    5.4465 H   0  0  0  0  0  0  0  0  0  0  0  0
    2.1781   -1.3968    3.5024 H   0  0  0  0  0  0  0  0  0  0  0  0
    4.5840    0.3200    4.1683 H   0  0  0  0  0  0  0  0  0  0  0  0
    5.1149   -3.4545    6.1557 H   0  0  0  0  0  0  0  0  0  0  0  0
    6.1655   -2.5585    7.2809 H   0  0  0  0  0  0  0  0  0  0  0  0
    3.6413   -0.4246    0.3082 H   0  0  0  0  0  0  0  0  0  0  0  0
    1.6634    0.7853    0.9845 H   0  0  0  0  0  0  0  0  0  0  0  0
    2.8766    1.5649    3.3429 H   0  0  0  0  0  0  0  0  0  0  0  0
   -0.3621    0.4717    2.6239 H   0  0  0  0  0  0  0  0  0  0  0  0
    6.5964   -0.5482    0.2534 H   0  0  0  0  0  0  0  0  0  0  0  0
    7.3956   -1.3911    1.5792 H   0  0  0  0  0  0  0  0  0  0  0  0
    4.9129   -2.2200    0.0772 H   0  0  0  0  0  0  0  0  0  0  0  0
    6.0451   -3.2624    0.9159 H   0  0  0  0  0  0  0  0  0  0  0  0
    0.7506    5.0952    3.2122 H   0  0  0  0  0  0  0  0  0  0  0  0
    1.3527    3.5721    2.4760 H   0  0  0  0  0  0  0  0  0  0  0  0
   -0.4402    3.9724    4.7834 H   0  0  0  0  0  0  0  0  0  0  0  0
   -1.2264    2.1950    2.6977 H   0  0  0  0  0  0  0  0  0  0  0  0
  1  2  1  0
  1 33  1  0
  1 34  1  0
  1 35  1  0
  2 32  1  0
  2  3  1  0
  2 59  1  6
  3  4  1  0
  3 36  1  0
  3 37  1  0
  5  4  1  1
  4 38  1  0
  4 39  1  0
  5 25  1  0
  5 32  1  0
  5  6  1  0
  6 12  1  0
  6  7  2  0
  7  8  1  0
  7 31  1  0
  8  9  2  0
  8 40  1  0
  9 10  1  0
  9 41  1  0
 10 11  1  0
 10 12  2  0
 11 42  1  0
 12 13  1  0
 13 14  1  0
 14 25  1  0
 14 15  1  0
 14 43  1  1
 15 24  1  0
 15 16  1  0
 15 44  1  6
 16 17  1  0
 16 21  1  0
 16 45  1  1
 17 18  1  0
 18 19  1  0
 18 20  2  0
 19 46  1  0
 19 47  1  0
 21 30  1  0
 21 22  1  0
 21 27  1  0
 22 23  2  0
 22 48  1  0
 23 24  1  0
 23 49  1  0
 24 25  1  0
 24 50  1  1
 25 26  1  6
 26 51  1  0
 27 28  1  0
 28 29  1  0
 28 52  1  0
 28 53  1  0
 29 30  1  0
 29 54  1  0
 29 55  1  0
 31 32  1  0
 31 56  1  0
 31 57  1  0
 32 58  1  1
M  CHG  1   2   1
M  END
>  <i_m_ct_stereo_status>  (401) 
1

>  <s_m_source_file>  (401) 
/var/tmp/pbs.5076255.sched01/tmp54n2b71h/144k2pf1zoq.sdf

>  <i_m_source_file_index>  (401) 
28

>  <i_lp_mmshare_version>  (401) 
48012

>  <i_f3d_flags>  (401) 
0

>  <s_epik_input>  (401) 
W0NIMl0xW0NIMl1OKFtDSDNdKVtDQEBIXTJbQ0gyXWMoYzNbQ0BAXTEyNClbY0hdW2NIXWMoW09IXSljM09bQ0BASF01W0NASF02W0NASF0oW0NAXTQ1W09IXSlbQ0hdPVtDSF1DNyhPW0NIMl1bQ0gyXU83KVtDQEBIXTZPQyg9TylbTkgyXQ==

>  <s_epik_cmdline>  (401) 
J2VwaWtfcHl0aG9uJywgJy1waHQnLCAnMi4wJywgJy1waCcsICc3LjAnLCAnLXRuJywgJzgnLCAnLW1hJywgJzIwMCcsICctaW1hZScsICc8aW5maWxlLm1hZT4nLCAnLW9tYWUnLCAnPG91dGZpbGUubWFlPic=

>  <r_lp_tautomer_probability>  (401) 
1

>  <r_epik_Ionization_Penalty>  (401) 
0.0146543

>  <r_epik_Ionization_Penalty_Charging>  (401) 
0.0123886

>  <r_epik_Ionization_Penalty_Neutral>  (401) 
0.00226565

>  <r_epik_State_Penalty>  (401) 
0.0095871

>  <r_epik_Charging_Adjusted_Penalty>  (401) 
0.0219757

>  <i_epik_Tot_Q>  (401) 
1

>  <i_epik_Tot_abs_Q>  (401) 
1

>  <s_epik_Chemistry_Notes>  (401) 
This compound has an ester and may undergo hydrolysis at high or low pH.

>  <s_lp_Force_Field>  (401) 
OPLS3e

>  <r_lp_Energy>  (401) 
84.6565

>  <b_lp_Chiralities_Consistent>  (401) 
1

>  <s_lp_Variant>  (401) 
112:0-1

>  <s_i_glide_gridfile>  (401) 
pfpi4k_grid

>  <i_i_glide_lignum>  (401) 
28

>  <i_i_glide_rotatable_bonds>  (401) 
4

>  <r_i_docking_score>  (401) 
-2.77603

>  <r_i_glide_ligand_efficiency>  (401) 
-0.0867509

>  <r_i_glide_ligand_efficiency_sa>  (401) 
-0.275417

>  <r_i_glide_ligand_efficiency_ln>  (401) 
-0.621628

>  <r_i_glide_gscore>  (401) 
-2.77603

>  <r_i_glide_lipo>  (401) 
-0.156521

>  <r_i_glide_hbond>  (401) 
-0.266658

>  <r_i_glide_metal>  (401) 
-0

>  <r_i_glide_rewards>  (401) 
-1.005

>  <r_i_glide_evdw>  (401) 
-21.1878

>  <r_i_glide_ecoul>  (401) 
-2.25585

>  <r_i_glide_erotb>  (401) 
0.101655

>  <r_i_glide_esite>  (401) 
-0.0517285

>  <r_i_glide_emodel>  (401) 
-33.7033

>  <r_i_glide_energy>  (401) 
-23.4437

>  <r_i_glide_einternal>  (401) 
1.06906

>  <r_i_glide_intrahb_reward>  (401) 
-0.5

>  <i_i_glide_confnum>  (401) 
5

>  <i_i_glide_posenum>  (401) 
7

>  <r_i_glide_eff_state_penalty>  (401) 
0

>  <ligand_id>  (401) 
112

>  <original_smiles>  (401) 
CN1CCC23c4c(ccc(O)c4OC4C5C(OC(N)=O)C6(C=CC5C42O)OCCO6)CC13

>  <smiles>  (401) 
[H]Oc1c([H])c([H])c2c3c1OC1([H])C4([H])C([H])(OC(=O)N([H])[H])C5(OC([H])([H])C([H])([H])O5)C([H])=C([H])C4([H])C1(O[H])C31C([H])([H])C([H])([H])[N+]([H])(C([H])([H])[H])C1([H])C2([H])[H]

$$$$
112:0:2
     RDKit          3D

 59 65  0  0  1  0  0  0  0  0999 V2000
   -0.0799    5.8594    3.1029 C   0  0  0  0  0  0  0  0  0  0  0  0
   -0.3708    4.4129    3.3240 N   0  0  2  0  0  0  0  0  0  0  0  0
   -1.8295    4.0219    3.3410 C   0  0  0  0  0  0  0  0  0  0  0  0
   -2.0024    2.9373    4.4660 C   0  0  0  0  0  0  0  0  0  0  0  0
   -0.5450    2.4746    4.7284 C   0  0  1  0  0  0  0  0  0  0  0  0
    0.0368    2.1164    6.0848 C   0  0  0  0  0  0  0  0  0  0  0  0
    1.1672    2.8963    6.4126 C   0  0  0  0  0  0  0  0  0  0  0  0
    1.8997    2.5422    7.5656 C   0  0  0  0  0  0  0  0  0  0  0  0
    1.4764    1.4116    8.2884 C   0  0  0  0  0  0  0  0  0  0  0  0
    0.3891    0.5869    7.8640 C   0  0  0  0  0  0  0  0  0  0  0  0
    0.1194   -0.5349    8.5900 O   0  0  0  0  0  0  0  0  0  0  0  0
   -0.3065    0.9128    6.6760 C   0  0  0  0  0  0  0  0  0  0  0  0
   -1.1065    0.0387    5.9491 O   0  0  0  0  0  0  0  0  0  0  0  0
   -0.8354   -0.0223    4.4969 C   0  0  2  0  0  0  0  0  0  0  0  0
    0.4212   -0.7795    4.0280 C   0  0  2  0  0  0  0  0  0  0  0  0
    1.2673   -1.8337    4.7301 C   0  0  1  0  0  0  0  0  0  0  0  0
    0.5946   -3.0789    4.9762 O   0  0  0  0  0  0  0  0  0  0  0  0
   -0.1945   -3.2596    6.0350 C   0  0  0  0  0  0  0  0  0  0  0  0
   -0.5280   -4.6004    6.1332 N   0  0  0  0  0  0  0  0  0  0  0  0
   -0.5646   -2.3882    6.7999 O   0  0  0  0  0  0  0  0  0  0  0  0
    2.5614   -2.0399    3.8411 C   0  0  0  0  0  0  0  0  0  0  0  0
    2.9249   -0.7989    2.9556 C   0  0  0  0  0  0  0  0  0  0  0  0
    2.2583    0.3694    2.9435 C   0  0  0  0  0  0  0  0  0  0  0  0
    1.1635    0.5409    3.9647 C   0  0  1  0  0  0  0  0  0  0  0  0
   -0.2074    1.2592    3.8159 C   0  0  2  0  0  0  0  0  0  0  0  0
   -0.6329    1.4682    2.4655 O   0  0  0  0  0  0  0  0  0  0  0  0
    3.6245   -2.3335    4.6821 O   0  0  0  0  0  0  0  0  0  0  0  0
    4.4397   -3.2814    4.0004 C   0  0  0  0  0  0  0  0  0  0  0  0
    3.6795   -3.6090    2.7099 C   0  0  0  0  0  0  0  0  0  0  0  0
    2.3715   -3.1382    3.0067 O   0  0  0  0  0  0  0  0  0  0  0  0
    1.4456    3.8331    5.2445 C   0  0  0  0  0  0  0  0  0  0  0  0
    0.0680    3.8423    4.6114 C   0  0  1  0  0  0  0  0  0  0  0  0
   -0.5516    6.4896    3.8617 H   0  0  0  0  0  0  0  0  0  0  0  0
   -0.4586    6.1273    2.1153 H   0  0  0  0  0  0  0  0  0  0  0  0
    0.9997    6.0128    3.1087 H   0  0  0  0  0  0  0  0  0  0  0  0
   -2.4595    4.8841    3.5575 H   0  0  0  0  0  0  0  0  0  0  0  0
   -2.1128    3.6538    2.3570 H   0  0  0  0  0  0  0  0  0  0  0  0
   -2.4374    3.3929    5.3580 H   0  0  0  0  0  0  0  0  0  0  0  0
   -2.6708    2.1305    4.1461 H   0  0  0  0  0  0  0  0  0  0  0  0
    2.7883    3.1082    7.8499 H   0  0  0  0  0  0  0  0  0  0  0  0
    2.0458    1.1114    9.1395 H   0  0  0  0  0  0  0  0  0  0  0  0
    0.8858   -0.7960    9.0686 H   0  0  0  0  0  0  0  0  0  0  0  0
   -1.6902   -0.3513    3.9046 H   0  0  0  0  0  0  0  0  0  0  0  0
    0.2109   -1.1084    3.0122 H   0  0  0  0  0  0  0  0  0  0  0  0
    1.5933   -1.4466    5.6934 H   0  0  0  0  0  0  0  0  0  0  0  0
   -0.1895   -5.2815    5.4619 H   0  0  0  0  0  0  0  0  0  0  0  0
   -1.0447   -4.8561    6.9538 H   0  0  0  0  0  0  0  0  0  0  0  0
    3.7750   -0.8933    2.2936 H   0  0  0  0  0  0  0  0  0  0  0  0
    2.5469    1.2076    2.3176 H   0  0  0  0  0  0  0  0  0  0  0  0
    1.6959    0.7323    4.8998 H   0  0  0  0  0  0  0  0  0  0  0  0
   -0.1209    2.1694    2.0892 H   0  0  0  0  0  0  0  0  0  0  0  0
    5.4209   -2.8514    3.8030 H   0  0  0  0  0  0  0  0  0  0  0  0
    4.5697   -4.1679    4.6262 H   0  0  0  0  0  0  0  0  0  0  0  0
    4.0709   -3.0498    1.8601 H   0  0  0  0  0  0  0  0  0  0  0  0
    3.7062   -4.6705    2.4454 H   0  0  0  0  0  0  0  0  0  0  0  0
    1.7771    4.8248    5.5797 H   0  0  0  0  0  0  0  0  0  0  0  0
    2.1852    3.3657    4.5807 H   0  0  0  0  0  0  0  0  0  0  0  0
   -0.4527    4.4816    5.3347 H   0  0  0  0  0  0  0  0  0  0  0  0
    0.0848    3.9295    2.5364 H   0  0  0  0  0  0  0  0  0  0  0  0
  1  2  1  0
  1 33  1  0
  1 34  1  0
  1 35  1  0
  2 32  1  0
  2  3  1  0
  2 59  1  6
  3  4  1  0
  3 36  1  0
  3 37  1  0
  5  4  1  1
  4 38  1  0
  4 39  1  0
  5 25  1  0
  5 32  1  0
  5  6  1  0
  6 12  1  0
  6  7  2  0
  7  8  1  0
  7 31  1  0
  8  9  2  0
  8 40  1  0
  9 10  1  0
  9 41  1  0
 10 11  1  0
 10 12  2  0
 11 42  1  0
 12 13  1  0
 13 14  1  0
 14 25  1  0
 14 15  1  0
 14 43  1  6
 15 24  1  0
 15 16  1  0
 15 44  1  6
 16 17  1  0
 16 21  1  0
 16 45  1  1
 17 18  1  0
 18 19  1  0
 18 20  2  0
 19 46  1  0
 19 47  1  0
 21 30  1  0
 21 22  1  0
 21 27  1  0
 22 23  2  0
 22 48  1  0
 23 24  1  0
 23 49  1  0
 24 25  1  0
 24 50  1  1
 25 26  1  6
 26 51  1  0
 27 28  1  0
 28 29  1  0
 28 52  1  0
 28 53  1  0
 29 30  1  0
 29 54  1  0
 29 55  1  0
 31 32  1  0
 31 56  1  0
 31 57  1  0
 32 58  1  1
M  CHG  1   2   1
M  END
>  <i_m_ct_stereo_status>  (402) 
1

>  <s_m_source_file>  (402) 
/var/tmp/pbs.5076255.sched01/tmp54n2b71h/144k2pf1zoq.sdf

>  <i_m_source_file_index>  (402) 
28

>  <i_lp_mmshare_version>  (402) 
48012

>  <i_f3d_flags>  (402) 
0

>  <s_epik_input>  (402) 
W0NIMl0xW0NIMl1OKFtDSDNdKVtDQEBIXTJbQ0gyXWMoYzNbQ0BAXTEyNClbY0hdW2NIXWMoW09IXSljM09bQ0BASF01W0NASF02W0NASF0oW0NAXTQ1W09IXSlbQ0hdPVtDSF1DNyhPW0NIMl1bQ0gyXU83KVtDQEBIXTZPQyg9TylbTkgyXQ==

>  <s_epik_cmdline>  (402) 
J2VwaWtfcHl0aG9uJywgJy1waHQnLCAnMi4wJywgJy1waCcsICc3LjAnLCAnLXRuJywgJzgnLCAnLW1hJywgJzIwMCcsICctaW1hZScsICc8aW5maWxlLm1hZT4nLCAnLW9tYWUnLCAnPG91dGZpbGUubWFlPic=

>  <r_lp_tautomer_probability>  (402) 
1

>  <r_epik_Ionization_Penalty>  (402) 
0.0146543

>  <r_epik_Ionization_Penalty_Charging>  (402) 
0.0123886

>  <r_epik_Ionization_Penalty_Neutral>  (402) 
0.00226565

>  <r_epik_State_Penalty>  (402) 
0.0095871

>  <r_epik_Charging_Adjusted_Penalty>  (402) 
0.0219757

>  <i_epik_Tot_Q>  (402) 
1

>  <i_epik_Tot_abs_Q>  (402) 
1

>  <s_epik_Chemistry_Notes>  (402) 
This compound has an ester and may undergo hydrolysis at high or low pH.

>  <s_lp_Force_Field>  (402) 
OPLS3e

>  <r_lp_Energy>  (402) 
84.6565

>  <b_lp_Chiralities_Consistent>  (402) 
1

>  <s_lp_Variant>  (402) 
112:0-1

>  <s_i_glide_gridfile>  (402) 
pfpi4k_grid

>  <i_i_glide_lignum>  (402) 
28

>  <i_i_glide_rotatable_bonds>  (402) 
4

>  <r_i_docking_score>  (402) 
-2.59077

>  <r_i_glide_ligand_efficiency>  (402) 
-0.0809616

>  <r_i_glide_ligand_efficiency_sa>  (402) 
-0.257037

>  <r_i_glide_ligand_efficiency_ln>  (402) 
-0.580144

>  <r_i_glide_gscore>  (402) 
-2.59077

>  <r_i_glide_lipo>  (402) 
-0.0148918

>  <r_i_glide_hbond>  (402) 
-0.117853

>  <r_i_glide_metal>  (402) 
-0

>  <r_i_glide_rewards>  (402) 
-0.385434

>  <r_i_glide_evdw>  (402) 
-19.7623

>  <r_i_glide_ecoul>  (402) 
-7.11756

>  <r_i_glide_erotb>  (402) 
0.101655

>  <r_i_glide_esite>  (402) 
-0.118496

>  <r_i_glide_emodel>  (402) 
-30.3337

>  <r_i_glide_energy>  (402) 
-26.8799

>  <r_i_glide_einternal>  (402) 
1.99377

>  <r_i_glide_intrahb_reward>  (402) 
-0

>  <i_i_glide_confnum>  (402) 
5

>  <i_i_glide_posenum>  (402) 
6

>  <r_i_glide_eff_state_penalty>  (402) 
0

>  <ligand_id>  (402) 
112

>  <original_smiles>  (402) 
CN1CCC23c4c(ccc(O)c4OC4C5C(OC(N)=O)C6(C=CC5C42O)OCCO6)CC13

>  <smiles>  (402) 
[H]Oc1c([H])c([H])c2c3c1OC1([H])C4([H])C([H])(OC(=O)N([H])[H])C5(OC([H])([H])C([H])([H])O5)C([H])=C([H])C4([H])C1(O[H])C31C([H])([H])C([H])([H])[N+]([H])(C([H])([H])[H])C1([H])C2([H])[H]

$$$$
112:1:0
     RDKit          3D

 58 64  0  0  1  0  0  0  0  0999 V2000
   -2.0572   -7.4118    3.8361 C   0  0  0  0  0  0  0  0  0  0  0  0
   -0.8016   -7.2539    3.1156 N   0  0  0  0  0  0  0  0  0  0  0  0
   -0.4728   -8.4576    2.3169 C   0  0  0  0  0  0  0  0  0  0  0  0
    1.0680   -8.7219    2.4577 C   0  0  0  0  0  0  0  0  0  0  0  0
    1.5688   -7.4294    3.1210 C   0  0  1  0  0  0  0  0  0  0  0  0
    2.6044   -7.3911    4.2205 C   0  0  0  0  0  0  0  0  0  0  0  0
    2.1365   -6.8117    5.4087 C   0  0  0  0  0  0  0  0  0  0  0  0
    3.0437   -6.5623    6.4425 C   0  0  0  0  0  0  0  0  0  0  0  0
    4.4078   -6.8909    6.2338 C   0  0  0  0  0  0  0  0  0  0  0  0
    4.8635   -7.3682    4.9803 C   0  0  0  0  0  0  0  0  0  0  0  0
    6.1997   -7.5625    4.7930 O   0  0  0  0  0  0  0  0  0  0  0  0
    3.9629   -7.5293    3.9040 C   0  0  0  0  0  0  0  0  0  0  0  0
    4.3606   -7.5809    2.5899 O   0  0  0  0  0  0  0  0  0  0  0  0
    3.5420   -6.8271    1.6353 C   0  0  2  0  0  0  0  0  0  0  0  0
    3.8596   -5.3314    1.5580 C   0  0  2  0  0  0  0  0  0  0  0  0
    5.0955   -4.5752    2.0150 C   0  0  1  0  0  0  0  0  0  0  0  0
    6.2401   -4.9540    1.2506 O   0  0  0  0  0  0  0  0  0  0  0  0
    7.1786   -5.7635    1.7569 C   0  0  0  0  0  0  0  0  0  0  0  0
    8.1021   -6.0662    0.7880 N   0  0  0  0  0  0  0  0  0  0  0  0
    7.1905   -6.1801    2.9199 O   0  0  0  0  0  0  0  0  0  0  0  0
    4.7650   -3.0436    1.9095 C   0  0  0  0  0  0  0  0  0  0  0  0
    3.2453   -2.7254    2.0167 C   0  0  0  0  0  0  0  0  0  0  0  0
    2.2871   -3.6474    2.2496 C   0  0  0  0  0  0  0  0  0  0  0  0
    2.7210   -5.0616    2.5194 C   0  0  1  0  0  0  0  0  0  0  0  0
    2.0758   -6.3954    2.0613 C   0  0  2  0  0  0  0  0  0  0  0  0
    1.1497   -6.2555    0.9898 O   0  0  0  0  0  0  0  0  0  0  0  0
    5.4186   -2.3720    2.9257 O   0  0  0  0  0  0  0  0  0  0  0  0
    5.8022   -1.1083    2.3919 C   0  0  0  0  0  0  0  0  0  0  0  0
    5.3855   -1.1597    0.9190 C   0  0  0  0  0  0  0  0  0  0  0  0
    5.2455   -2.5543    0.7042 O   0  0  0  0  0  0  0  0  0  0  0  0
    0.7006   -6.3649    5.1688 C   0  0  0  0  0  0  0  0  0  0  0  0
    0.3434   -7.2618    3.9986 C   0  0  1  0  0  0  0  0  0  0  0  0
   -2.8861   -7.4693    3.1373 H   0  0  0  0  0  0  0  0  0  0  0  0
   -2.2254   -6.5524    4.4887 H   0  0  0  0  0  0  0  0  0  0  0  0
   -2.0680   -8.3093    4.4598 H   0  0  0  0  0  0  0  0  0  0  0  0
   -1.0174   -9.3369    2.6646 H   0  0  0  0  0  0  0  0  0  0  0  0
   -0.7611   -8.2853    1.2798 H   0  0  0  0  0  0  0  0  0  0  0  0
    1.2479   -9.5848    3.0979 H   0  0  0  0  0  0  0  0  0  0  0  0
    1.5553   -8.9379    1.5030 H   0  0  0  0  0  0  0  0  0  0  0  0
    2.7312   -6.0990    7.3742 H   0  0  0  0  0  0  0  0  0  0  0  0
    5.1318   -6.6693    6.9941 H   0  0  0  0  0  0  0  0  0  0  0  0
    6.4651   -7.5471    3.8718 H   0  0  0  0  0  0  0  0  0  0  0  0
    3.5792   -7.2900    0.6520 H   0  0  0  0  0  0  0  0  0  0  0  0
    3.6203   -5.0227    0.5405 H   0  0  0  0  0  0  0  0  0  0  0  0
    5.2765   -4.7974    3.0690 H   0  0  0  0  0  0  0  0  0  0  0  0
    8.0025   -5.6861   -0.1552 H   0  0  0  0  0  0  0  0  0  0  0  0
    8.8579   -6.6930    1.0191 H   0  0  0  0  0  0  0  0  0  0  0  0
    2.9312   -1.6934    1.9072 H   0  0  0  0  0  0  0  0  0  0  0  0
    1.2505   -3.3685    2.3551 H   0  0  0  0  0  0  0  0  0  0  0  0
    3.0395   -5.0537    3.5610 H   0  0  0  0  0  0  0  0  0  0  0  0
    1.0049   -7.1321    0.6546 H   0  0  0  0  0  0  0  0  0  0  0  0
    5.3176   -0.2945    2.9338 H   0  0  0  0  0  0  0  0  0  0  0  0
    6.8850   -0.9858    2.4790 H   0  0  0  0  0  0  0  0  0  0  0  0
    4.4237   -0.6730    0.7624 H   0  0  0  0  0  0  0  0  0  0  0  0
    6.1119   -0.7012    0.2447 H   0  0  0  0  0  0  0  0  0  0  0  0
    0.0683   -6.5208    6.0447 H   0  0  0  0  0  0  0  0  0  0  0  0
    0.6972   -5.3130    4.8831 H   0  0  0  0  0  0  0  0  0  0  0  0
    0.2213   -8.2014    4.5492 H   0  0  0  0  0  0  0  0  0  0  0  0
  1  2  1  0
  1 33  1  0
  1 34  1  0
  1 35  1  0
  2 32  1  0
  2  3  1  0
  3  4  1  0
  3 36  1  0
  3 37  1  0
  5  4  1  6
  4 38  1  0
  4 39  1  0
  5 25  1  0
  5 32  1  0
  5  6  1  0
  6 12  1  0
  6  7  2  0
  7  8  1  0
  7 31  1  0
  8  9  2  0
  8 40  1  0
  9 10  1  0
  9 41  1  0
 10 11  1  0
 10 12  2  0
 11 42  1  0
 12 13  1  0
 13 14  1  0
 14 25  1  0
 14 15  1  0
 14 43  1  6
 15 24  1  0
 15 16  1  0
 15 44  1  6
 16 17  1  0
 16 21  1  0
 16 45  1  1
 17 18  1  0
 18 19  1  0
 18 20  2  0
 19 46  1  0
 19 47  1  0
 21 30  1  0
 21 22  1  0
 21 27  1  0
 22 23  2  0
 22 48  1  0
 23 24  1  0
 23 49  1  0
 24 25  1  0
 24 50  1  1
 25 26  1  6
 26 51  1  0
 27 28  1  0
 28 29  1  0
 28 52  1  0
 28 53  1  0
 29 30  1  0
 29 54  1  0
 29 55  1  0
 31 32  1  0
 31 56  1  0
 31 57  1  0
 32 58  1  1
M  END
>  <i_m_ct_stereo_status>  (403) 
1

>  <s_m_source_file>  (403) 
/var/tmp/pbs.5076255.sched01/tmp54n2b71h/144k2pf1zoq.sdf

>  <i_m_source_file_index>  (403) 
29

>  <i_lp_mmshare_version>  (403) 
48012

>  <i_f3d_flags>  (403) 
0

>  <s_epik_input>  (403) 
W0NIMl0xW0NIMl1OKFtDSDNdKVtDQEBIXTJbQ0gyXWMoYzNbQ0BAXTEyNClbY0hdW2NIXWMoW09IXSljM09bQ0BASF01W0NASF02W0NASF0oW0NAXTQ1W09IXSlbQ0hdPVtDSF1DNyhPW0NIMl1bQ0gyXU83KVtDQEBIXTZPQyg9TylbTkgyXQ==

>  <s_epik_cmdline>  (403) 
J2VwaWtfcHl0aG9uJywgJy1waHQnLCAnMi4wJywgJy1waCcsICc3LjAnLCAnLXRuJywgJzgnLCAnLW1hJywgJzIwMCcsICctaW1hZScsICc8aW5maWxlLm1hZT4nLCAnLW9tYWUnLCAnPG91dGZpbGUubWFlPic=

>  <r_lp_tautomer_probability>  (403) 
1

>  <r_epik_Ionization_Penalty>  (403) 
2.29775

>  <r_epik_Ionization_Penalty_Charging>  (403) 
0

>  <r_epik_Ionization_Penalty_Neutral>  (403) 
2.29775

>  <r_epik_State_Penalty>  (403) 
2.44814

>  <r_epik_Charging_Adjusted_Penalty>  (403) 
2.44814

>  <i_epik_Tot_Q>  (403) 
0

>  <i_epik_Tot_abs_Q>  (403) 
0

>  <s_epik_Chemistry_Notes>  (403) 
This compound has an ester and may undergo hydrolysis at high or low pH.

>  <s_lp_Force_Field>  (403) 
OPLS3e

>  <r_lp_Energy>  (403) 
76.0973

>  <b_lp_Chiralities_Consistent>  (403) 
1

>  <s_lp_Variant>  (403) 
112:0-2

>  <s_i_glide_gridfile>  (403) 
pfpi4k_grid

>  <i_i_glide_lignum>  (403) 
29

>  <i_i_glide_rotatable_bonds>  (403) 
4

>  <r_i_docking_score>  (403) 
-3.62101

>  <r_i_glide_ligand_efficiency>  (403) 
-0.113157

>  <r_i_glide_ligand_efficiency_sa>  (403) 
-0.35925

>  <r_i_glide_ligand_efficiency_ln>  (403) 
-0.810844

>  <r_i_glide_gscore>  (403) 
-3.62101

>  <r_i_glide_lipo>  (403) 
-0.311319

>  <r_i_glide_hbond>  (403) 
-0.265377

>  <r_i_glide_metal>  (403) 
-0

>  <r_i_glide_rewards>  (403) 
-1.02685

>  <r_i_glide_evdw>  (403) 
-23.3502

>  <r_i_glide_ecoul>  (403) 
-6.25495

>  <r_i_glide_erotb>  (403) 
0.102075

>  <r_i_glide_esite>  (403) 
-0.0137952

>  <r_i_glide_emodel>  (403) 
-41.129

>  <r_i_glide_energy>  (403) 
-29.6051

>  <r_i_glide_einternal>  (403) 
1.14176

>  <r_i_glide_intrahb_reward>  (403) 
-0.5

>  <i_i_glide_confnum>  (403) 
4

>  <i_i_glide_posenum>  (403) 
40

>  <r_i_glide_eff_state_penalty>  (403) 
0

>  <ligand_id>  (403) 
112

>  <original_smiles>  (403) 
CN1CCC23c4c(ccc(O)c4OC4C5C(OC(N)=O)C6(C=CC5C42O)OCCO6)CC13

>  <smiles>  (403) 
[H]Oc1c([H])c([H])c2c3c1OC1([H])C4([H])C([H])(OC(=O)N([H])[H])C5(OC([H])([H])C([H])([H])O5)C([H])=C([H])C4([H])C1(O[H])C31C([H])([H])C([H])([H])N(C([H])([H])[H])C1([H])C2([H])[H]

$$$$
112:1:1
     RDKit          3D

 58 64  0  0  1  0  0  0  0  0999 V2000
   -1.5907   -7.0804    4.2177 C   0  0  0  0  0  0  0  0  0  0  0  0
   -0.4909   -7.7513    3.5430 N   0  0  0  0  0  0  0  0  0  0  0  0
   -0.9420   -8.9570    2.8097 C   0  0  0  0  0  0  0  0  0  0  0  0
    0.1362  -10.0781    3.0197 C   0  0  0  0  0  0  0  0  0  0  0  0
    1.2918   -9.3097    3.6716 C   0  0  1  0  0  0  0  0  0  0  0  0
    2.1475   -9.8259    4.8029 C   0  0  0  0  0  0  0  0  0  0  0  0
    2.0814   -9.0273    5.9644 C   0  0  0  0  0  0  0  0  0  0  0  0
    2.9433   -9.3241    7.0294 C   0  0  0  0  0  0  0  0  0  0  0  0
    3.8650  -10.3866    6.8649 C   0  0  0  0  0  0  0  0  0  0  0  0
    3.9849  -11.0727    5.6246 C   0  0  0  0  0  0  0  0  0  0  0  0
    5.0062  -11.9602    5.4564 O   0  0  0  0  0  0  0  0  0  0  0  0
    3.1365  -10.7726    4.5333 C   0  0  0  0  0  0  0  0  0  0  0  0
    3.4359  -11.1240    3.2324 O   0  0  0  0  0  0  0  0  0  0  0  0
    3.2534  -10.0682    2.2539 C   0  0  2  0  0  0  0  0  0  0  0  0
    4.4238   -9.0973    2.1651 C   0  0  2  0  0  0  0  0  0  0  0  0
    5.8523   -9.1963    2.6525 C   0  0  1  0  0  0  0  0  0  0  0  0
    6.4838  -10.2283    1.9022 O   0  0  0  0  0  0  0  0  0  0  0  0
    6.8862  -11.3143    2.5669 C   0  0  0  0  0  0  0  0  0  0  0  0
    6.2256  -12.4124    2.0548 N   0  0  0  0  0  0  0  0  0  0  0  0
    7.6806  -11.3192    3.5003 O   0  0  0  0  0  0  0  0  0  0  0  0
    6.4945   -7.7638    2.4734 C   0  0  0  0  0  0  0  0  0  0  0  0
    5.4379   -6.6023    2.4893 C   0  0  0  0  0  0  0  0  0  0  0  0
    4.1135   -6.7596    2.6730 C   0  0  0  0  0  0  0  0  0  0  0  0
    3.6472   -8.1416    3.0334 C   0  0  1  0  0  0  0  0  0  0  0  0
    2.3322   -8.8398    2.6156 C   0  0  2  0  0  0  0  0  0  0  0  0
    1.7148   -8.2412    1.4941 O   0  0  0  0  0  0  0  0  0  0  0  0
    7.4324   -7.5772    3.4776 O   0  0  0  0  0  0  0  0  0  0  0  0
    8.4994   -6.8243    2.9178 C   0  0  0  0  0  0  0  0  0  0  0  0
    8.1608   -6.7000    1.4290 C   0  0  0  0  0  0  0  0  0  0  0  0
    7.1988   -7.7296    1.2804 O   0  0  0  0  0  0  0  0  0  0  0  0
    1.2037   -7.8282    5.6334 C   0  0  0  0  0  0  0  0  0  0  0  0
    0.4022   -8.3941    4.4759 C   0  0  1  0  0  0  0  0  0  0  0  0
   -2.2665   -6.6690    3.4755 H   0  0  0  0  0  0  0  0  0  0  0  0
   -1.2211   -6.2554    4.8271 H   0  0  0  0  0  0  0  0  0  0  0  0
   -2.1548   -7.7544    4.8693 H   0  0  0  0  0  0  0  0  0  0  0  0
   -1.9140   -9.3128    3.1597 H   0  0  0  0  0  0  0  0  0  0  0  0
   -1.0612   -8.6991    1.7571 H   0  0  0  0  0  0  0  0  0  0  0  0
   -0.2306  -10.8320    3.7050 H   0  0  0  0  0  0  0  0  0  0  0  0
    0.4048  -10.5833    2.0926 H   0  0  0  0  0  0  0  0  0  0  0  0
    2.9511   -8.7212    7.9304 H   0  0  0  0  0  0  0  0  0  0  0  0
    4.5697  -10.6156    7.6502 H   0  0  0  0  0  0  0  0  0  0  0  0
    4.9832  -12.3585    4.5968 H   0  0  0  0  0  0  0  0  0  0  0  0
    2.9788  -10.4688    1.2811 H   0  0  0  0  0  0  0  0  0  0  0  0
    4.3994   -8.7448    1.1386 H   0  0  0  0  0  0  0  0  0  0  0  0
    5.8367   -9.4241    3.7252 H   0  0  0  0  0  0  0  0  0  0  0  0
    5.4862  -12.2621    1.3674 H   0  0  0  0  0  0  0  0  0  0  0  0
    6.4194  -13.3184    2.4673 H   0  0  0  0  0  0  0  0  0  0  0  0
    5.8047   -5.6088    2.3502 H   0  0  0  0  0  0  0  0  0  0  0  0
    3.4304   -5.9174    2.7002 H   0  0  0  0  0  0  0  0  0  0  0  0
    3.8932   -8.2623    4.0818 H   0  0  0  0  0  0  0  0  0  0  0  0
    1.1583   -8.9028    1.1006 H   0  0  0  0  0  0  0  0  0  0  0  0
    8.5751   -5.8553    3.4084 H   0  0  0  0  0  0  0  0  0  0  0  0
    9.4281   -7.3716    3.0719 H   0  0  0  0  0  0  0  0  0  0  0  0
    7.7104   -5.7362    1.1935 H   0  0  0  0  0  0  0  0  0  0  0  0
    9.0151   -6.7919    0.7544 H   0  0  0  0  0  0  0  0  0  0  0  0
    0.5914   -7.5368    6.4863 H   0  0  0  0  0  0  0  0  0  0  0  0
    1.8362   -7.0012    5.3092 H   0  0  0  0  0  0  0  0  0  0  0  0
   -0.2698   -9.0407    5.0473 H   0  0  0  0  0  0  0  0  0  0  0  0
  1  2  1  0
  1 33  1  0
  1 34  1  0
  1 35  1  0
  2 32  1  0
  2  3  1  0
  3  4  1  0
  3 36  1  0
  3 37  1  0
  5  4  1  6
  4 38  1  0
  4 39  1  0
  5 25  1  0
  5 32  1  0
  5  6  1  0
  6 12  1  0
  6  7  2  0
  7  8  1  0
  7 31  1  0
  8  9  2  0
  8 40  1  0
  9 10  1  0
  9 41  1  0
 10 11  1  0
 10 12  2  0
 11 42  1  0
 12 13  1  0
 13 14  1  0
 14 25  1  0
 14 15  1  0
 14 43  1  6
 15 24  1  0
 15 16  1  0
 15 44  1  6
 16 17  1  0
 16 21  1  0
 16 45  1  1
 17 18  1  0
 18 19  1  0
 18 20  2  0
 19 46  1  0
 19 47  1  0
 21 30  1  0
 21 22  1  0
 21 27  1  0
 22 23  2  0
 22 48  1  0
 23 24  1  0
 23 49  1  0
 24 25  1  0
 24 50  1  1
 25 26  1  6
 26 51  1  0
 27 28  1  0
 28 29  1  0
 28 52  1  0
 28 53  1  0
 29 30  1  0
 29 54  1  0
 29 55  1  0
 31 32  1  0
 31 56  1  0
 31 57  1  0
 32 58  1  1
M  END
>  <i_m_ct_stereo_status>  (404) 
1

>  <s_m_source_file>  (404) 
/var/tmp/pbs.5076255.sched01/tmp54n2b71h/144k2pf1zoq.sdf

>  <i_m_source_file_index>  (404) 
29

>  <i_lp_mmshare_version>  (404) 
48012

>  <i_f3d_flags>  (404) 
0

>  <s_epik_input>  (404) 
W0NIMl0xW0NIMl1OKFtDSDNdKVtDQEBIXTJbQ0gyXWMoYzNbQ0BAXTEyNClbY0hdW2NIXWMoW09IXSljM09bQ0BASF01W0NASF02W0NASF0oW0NAXTQ1W09IXSlbQ0hdPVtDSF1DNyhPW0NIMl1bQ0gyXU83KVtDQEBIXTZPQyg9TylbTkgyXQ==

>  <s_epik_cmdline>  (404) 
J2VwaWtfcHl0aG9uJywgJy1waHQnLCAnMi4wJywgJy1waCcsICc3LjAnLCAnLXRuJywgJzgnLCAnLW1hJywgJzIwMCcsICctaW1hZScsICc8aW5maWxlLm1hZT4nLCAnLW9tYWUnLCAnPG91dGZpbGUubWFlPic=

>  <r_lp_tautomer_probability>  (404) 
1

>  <r_epik_Ionization_Penalty>  (404) 
2.29775

>  <r_epik_Ionization_Penalty_Charging>  (404) 
0

>  <r_epik_Ionization_Penalty_Neutral>  (404) 
2.29775

>  <r_epik_State_Penalty>  (404) 
2.44814

>  <r_epik_Charging_Adjusted_Penalty>  (404) 
2.44814

>  <i_epik_Tot_Q>  (404) 
0

>  <i_epik_Tot_abs_Q>  (404) 
0

>  <s_epik_Chemistry_Notes>  (404) 
This compound has an ester and may undergo hydrolysis at high or low pH.

>  <s_lp_Force_Field>  (404) 
OPLS3e

>  <r_lp_Energy>  (404) 
76.0973

>  <b_lp_Chiralities_Consistent>  (404) 
1

>  <s_lp_Variant>  (404) 
112:0-2

>  <s_i_glide_gridfile>  (404) 
pfpi4k_grid

>  <i_i_glide_lignum>  (404) 
29

>  <i_i_glide_rotatable_bonds>  (404) 
4

>  <r_i_docking_score>  (404) 
-3.49523

>  <r_i_glide_ligand_efficiency>  (404) 
-0.109226

>  <r_i_glide_ligand_efficiency_sa>  (404) 
-0.346771

>  <r_i_glide_ligand_efficiency_ln>  (404) 
-0.782678

>  <r_i_glide_gscore>  (404) 
-3.49523

>  <r_i_glide_lipo>  (404) 
-0.00533435

>  <r_i_glide_hbond>  (404) 
-0.456

>  <r_i_glide_metal>  (404) 
-0

>  <r_i_glide_rewards>  (404) 
-0.437374

>  <r_i_glide_evdw>  (404) 
-25.9454

>  <r_i_glide_ecoul>  (404) 
-8.45802

>  <r_i_glide_erotb>  (404) 
0.102075

>  <r_i_glide_esite>  (404) 
-0.132629

>  <r_i_glide_emodel>  (404) 
-37.7853

>  <r_i_glide_energy>  (404) 
-34.4034

>  <r_i_glide_einternal>  (404) 
8.31011

>  <r_i_glide_intrahb_reward>  (404) 
-0

>  <i_i_glide_confnum>  (404) 
4

>  <i_i_glide_posenum>  (404) 
4

>  <r_i_glide_eff_state_penalty>  (404) 
0

>  <ligand_id>  (404) 
112

>  <original_smiles>  (404) 
CN1CCC23c4c(ccc(O)c4OC4C5C(OC(N)=O)C6(C=CC5C42O)OCCO6)CC13

>  <smiles>  (404) 
[H]Oc1c([H])c([H])c2c3c1OC1([H])C4([H])C([H])(OC(=O)N([H])[H])C5(OC([H])([H])C([H])([H])O5)C([H])=C([H])C4([H])C1(O[H])C31C([H])([H])C([H])([H])N(C([H])([H])[H])C1([H])C2([H])[H]

$$$$
112:1:2
     RDKit          3D

 58 64  0  0  1  0  0  0  0  0999 V2000
   -2.0792   -7.3734    4.0679 C   0  0  0  0  0  0  0  0  0  0  0  0
   -0.8502   -7.4900    3.2976 N   0  0  0  0  0  0  0  0  0  0  0  0
   -0.6858   -8.8552    2.7401 C   0  0  0  0  0  0  0  0  0  0  0  0
    0.8264   -9.2566    2.8793 C   0  0  0  0  0  0  0  0  0  0  0  0
    1.4841   -7.9284    3.2765 C   0  0  1  0  0  0  0  0  0  0  0  0
    2.5823   -7.7978    4.3107 C   0  0  0  0  0  0  0  0  0  0  0  0
    2.2274   -6.9749    5.3918 C   0  0  0  0  0  0  0  0  0  0  0  0
    3.2112   -6.6501    6.3438 C   0  0  0  0  0  0  0  0  0  0  0  0
    4.5271   -7.1251    6.1281 C   0  0  0  0  0  0  0  0  0  0  0  0
    4.8692   -7.8187    4.9382 C   0  0  0  0  0  0  0  0  0  0  0  0
    6.1825   -8.0901    4.6793 O   0  0  0  0  0  0  0  0  0  0  0  0
    3.8949   -8.1311    3.9611 C   0  0  0  0  0  0  0  0  0  0  0  0
    4.2195   -8.4689    2.6712 O   0  0  0  0  0  0  0  0  0  0  0  0
    3.4314   -7.8161    1.6408 C   0  0  2  0  0  0  0  0  0  0  0  0
    3.9172   -6.4126    1.2991 C   0  0  2  0  0  0  0  0  0  0  0  0
    5.2312   -5.7203    1.5871 C   0  0  1  0  0  0  0  0  0  0  0  0
    6.2593   -6.3883    0.8805 O   0  0  0  0  0  0  0  0  0  0  0  0
    7.5322   -6.3166    1.2879 C   0  0  0  0  0  0  0  0  0  0  0  0
    8.2159   -7.3781    0.7667 N   0  0  0  0  0  0  0  0  0  0  0  0
    7.9918   -5.4520    2.0351 O   0  0  0  0  0  0  0  0  0  0  0  0
    5.0432   -4.2017    1.1839 C   0  0  0  0  0  0  0  0  0  0  0  0
    3.5653   -3.7247    1.2687 C   0  0  0  0  0  0  0  0  0  0  0  0
    2.5292   -4.4826    1.6803 C   0  0  0  0  0  0  0  0  0  0  0  0
    2.8458   -5.8551    2.2051 C   0  0  1  0  0  0  0  0  0  0  0  0
    2.0401   -7.1648    2.0371 C   0  0  2  0  0  0  0  0  0  0  0  0
    1.0781   -7.1009    0.9938 O   0  0  0  0  0  0  0  0  0  0  0  0
    5.8163   -3.4217    2.0301 O   0  0  0  0  0  0  0  0  0  0  0  0
    6.3090   -2.3391    1.2528 C   0  0  0  0  0  0  0  0  0  0  0  0
    5.8190   -2.6172   -0.1710 C   0  0  0  0  0  0  0  0  0  0  0  0
    5.5169   -4.0005   -0.1084 O   0  0  0  0  0  0  0  0  0  0  0  0
    0.8370   -6.4207    5.1130 C   0  0  0  0  0  0  0  0  0  0  0  0
    0.3264   -7.4664    4.1375 C   0  0  1  0  0  0  0  0  0  0  0  0
   -2.9484   -7.4706    3.4195 H   0  0  0  0  0  0  0  0  0  0  0  0
   -2.1297   -6.4004    4.5541 H   0  0  0  0  0  0  0  0  0  0  0  0
   -2.1480   -8.1361    4.8444 H   0  0  0  0  0  0  0  0  0  0  0  0
   -1.3086   -9.5890    3.2593 H   0  0  0  0  0  0  0  0  0  0  0  0
   -1.0140   -8.8488    1.7013 H   0  0  0  0  0  0  0  0  0  0  0  0
    0.9348  -10.0018    3.6672 H   0  0  0  0  0  0  0  0  0  0  0  0
    1.2326   -9.6914    1.9651 H   0  0  0  0  0  0  0  0  0  0  0  0
    2.9902   -5.9925    7.1778 H   0  0  0  0  0  0  0  0  0  0  0  0
    5.3135   -6.8514    6.8115 H   0  0  0  0  0  0  0  0  0  0  0  0
    6.3078   -8.5183    3.8451 H   0  0  0  0  0  0  0  0  0  0  0  0
    3.3645   -8.4542    0.7644 H   0  0  0  0  0  0  0  0  0  0  0  0
    3.6338   -6.2677    0.2574 H   0  0  0  0  0  0  0  0  0  0  0  0
    5.4226   -5.7706    2.6632 H   0  0  0  0  0  0  0  0  0  0  0  0
    7.7159   -8.0395    0.1990 H   0  0  0  0  0  0  0  0  0  0  0  0
    9.2114   -7.4663    0.9769 H   0  0  0  0  0  0  0  0  0  0  0  0
    3.3468   -2.7067    0.9968 H   0  0  0  0  0  0  0  0  0  0  0  0
    1.5373   -4.0803    1.7702 H   0  0  0  0  0  0  0  0  0  0  0  0
    3.2095   -5.6867    3.2123 H   0  0  0  0  0  0  0  0  0  0  0  0
    0.8327   -7.9980    0.8071 H   0  0  0  0  0  0  0  0  0  0  0  0
    5.9360   -1.3950    1.6537 H   0  0  0  0  0  0  0  0  0  0  0  0
    7.4000   -2.3390    1.2801 H   0  0  0  0  0  0  0  0  0  0  0  0
    4.9156   -2.0545   -0.4044 H   0  0  0  0  0  0  0  0  0  0  0  0
    6.5523   -2.3748   -0.9436 H   0  0  0  0  0  0  0  0  0  0  0  0
    0.2332   -6.3453    6.0191 H   0  0  0  0  0  0  0  0  0  0  0  0
    0.9240   -5.4462    4.6296 H   0  0  0  0  0  0  0  0  0  0  0  0
    0.1298   -8.2730    4.8549 H   0  0  0  0  0  0  0  0  0  0  0  0
  1  2  1  0
  1 33  1  0
  1 34  1  0
  1 35  1  0
  2 32  1  0
  2  3  1  0
  3  4  1  0
  3 36  1  0
  3 37  1  0
  5  4  1  6
  4 38  1  0
  4 39  1  0
  5 25  1  0
  5 32  1  0
  5  6  1  0
  6 12  1  0
  6  7  2  0
  7  8  1  0
  7 31  1  0
  8  9  2  0
  8 40  1  0
  9 10  1  0
  9 41  1  0
 10 11  1  0
 10 12  2  0
 11 42  1  0
 12 13  1  0
 13 14  1  0
 14 25  1  0
 14 15  1  0
 14 43  1  6
 15 24  1  0
 15 16  1  0
 15 44  1  6
 16 17  1  0
 16 21  1  0
 16 45  1  1
 17 18  1  0
 18 19  1  0
 18 20  2  0
 19 46  1  0
 19 47  1  0
 21 30  1  0
 21 22  1  0
 21 27  1  0
 22 23  2  0
 22 48  1  0
 23 24  1  0
 23 49  1  0
 24 25  1  0
 24 50  1  1
 25 26  1  6
 26 51  1  0
 27 28  1  0
 28 29  1  0
 28 52  1  0
 28 53  1  0
 29 30  1  0
 29 54  1  0
 29 55  1  0
 31 32  1  0
 31 56  1  0
 31 57  1  0
 32 58  1  1
M  END
>  <i_m_ct_stereo_status>  (405) 
1

>  <s_m_source_file>  (405) 
/var/tmp/pbs.5076255.sched01/tmp54n2b71h/144k2pf1zoq.sdf

>  <i_m_source_file_index>  (405) 
29

>  <i_lp_mmshare_version>  (405) 
48012

>  <i_f3d_flags>  (405) 
0

>  <s_epik_input>  (405) 
W0NIMl0xW0NIMl1OKFtDSDNdKVtDQEBIXTJbQ0gyXWMoYzNbQ0BAXTEyNClbY0hdW2NIXWMoW09IXSljM09bQ0BASF01W0NASF02W0NASF0oW0NAXTQ1W09IXSlbQ0hdPVtDSF1DNyhPW0NIMl1bQ0gyXU83KVtDQEBIXTZPQyg9TylbTkgyXQ==

>  <s_epik_cmdline>  (405) 
J2VwaWtfcHl0aG9uJywgJy1waHQnLCAnMi4wJywgJy1waCcsICc3LjAnLCAnLXRuJywgJzgnLCAnLW1hJywgJzIwMCcsICctaW1hZScsICc8aW5maWxlLm1hZT4nLCAnLW9tYWUnLCAnPG91dGZpbGUubWFlPic=

>  <r_lp_tautomer_probability>  (405) 
1

>  <r_epik_Ionization_Penalty>  (405) 
2.29775

>  <r_epik_Ionization_Penalty_Charging>  (405) 
0

>  <r_epik_Ionization_Penalty_Neutral>  (405) 
2.29775

>  <r_epik_State_Penalty>  (405) 
2.44814

>  <r_epik_Charging_Adjusted_Penalty>  (405) 
2.44814

>  <i_epik_Tot_Q>  (405) 
0

>  <i_epik_Tot_abs_Q>  (405) 
0

>  <s_epik_Chemistry_Notes>  (405) 
This compound has an ester and may undergo hydrolysis at high or low pH.

>  <s_lp_Force_Field>  (405) 
OPLS3e

>  <r_lp_Energy>  (405) 
76.0973

>  <b_lp_Chiralities_Consistent>  (405) 
1

>  <s_lp_Variant>  (405) 
112:0-2

>  <s_i_glide_gridfile>  (405) 
pfpi4k_grid

>  <i_i_glide_lignum>  (405) 
29

>  <i_i_glide_rotatable_bonds>  (405) 
4

>  <r_i_docking_score>  (405) 
-3.18139

>  <r_i_glide_ligand_efficiency>  (405) 
-0.0994184

>  <r_i_glide_ligand_efficiency_sa>  (405) 
-0.315634

>  <r_i_glide_ligand_efficiency_ln>  (405) 
-0.7124

>  <r_i_glide_gscore>  (405) 
-3.18139

>  <r_i_glide_lipo>  (405) 
-0.233695

>  <r_i_glide_hbond>  (405) 
-0.288819

>  <r_i_glide_metal>  (405) 
-0

>  <r_i_glide_rewards>  (405) 
-0.440835

>  <r_i_glide_evdw>  (405) 
-22.4122

>  <r_i_glide_ecoul>  (405) 
-7.50651

>  <r_i_glide_erotb>  (405) 
0.102075

>  <r_i_glide_esite>  (405) 
-0.0735286

>  <r_i_glide_emodel>  (405) 
-36.0293

>  <r_i_glide_energy>  (405) 
-29.9187

>  <r_i_glide_einternal>  (405) 
1.84179

>  <r_i_glide_intrahb_reward>  (405) 
-0

>  <i_i_glide_confnum>  (405) 
2

>  <i_i_glide_posenum>  (405) 
19

>  <r_i_glide_eff_state_penalty>  (405) 
0

>  <ligand_id>  (405) 
112

>  <original_smiles>  (405) 
CN1CCC23c4c(ccc(O)c4OC4C5C(OC(N)=O)C6(C=CC5C42O)OCCO6)CC13

>  <smiles>  (405) 
[H]Oc1c([H])c([H])c2c3c1OC1([H])C4([H])C([H])(OC(=O)N([H])[H])C5(OC([H])([H])C([H])([H])O5)C([H])=C([H])C4([H])C1(O[H])C31C([H])([H])C([H])([H])N(C([H])([H])[H])C1([H])C2([H])[H]

$$$$
113:0:0
     RDKit          3D

 32 34  0  0  1  0  0  0  0  0999 V2000
    2.2369    4.5689    3.2009 C   0  0  0  0  0  0  0  0  0  0  0  0
    1.2681    3.5040    3.3881 N   0  0  0  0  0  0  0  0  0  0  0  0
    0.0576    3.8143    3.9318 N   0  0  0  0  0  0  0  0  0  0  0  0
   -0.6256    2.6956    3.9486 C   0  0  0  0  0  0  0  0  0  0  0  0
    0.1402    1.5937    3.4566 C   0  0  0  0  0  0  0  0  0  0  0  0
   -0.0398    0.2045    3.2839 C   0  0  0  0  0  0  0  0  0  0  0  0
    0.9878   -0.6050    2.7492 C   0  0  0  0  0  0  0  0  0  0  0  0
    2.2022   -0.0087    2.3683 C   0  0  0  0  0  0  0  0  0  0  0  0
    3.5152   -1.0260    1.7367 S   0  0  0  0  0  0  0  0  0  0  0  0
    4.7319   -0.2103    1.6597 O   0  0  0  0  0  0  0  0  0  0  0  0
    3.5182   -2.3101    2.4489 O   0  0  0  0  0  0  0  0  0  0  0  0
    3.0648   -1.3869    0.0973 N   0  0  0  0  0  0  0  0  0  0  0  0
    3.8998   -1.9624   -0.8703 C   0  0  0  0  0  0  0  0  0  0  0  0
    3.3835   -2.4924   -2.0741 C   0  0  0  0  0  0  0  0  0  0  0  0
    4.2819   -3.0552   -3.0109 C   0  0  0  0  0  0  0  0  0  0  0  0
    5.6594   -3.0578   -2.7086 C   0  0  0  0  0  0  0  0  0  0  0  0
    6.1612   -2.5454   -1.5705 N   0  0  0  0  0  0  0  0  0  0  0  0
    5.3010   -2.0421   -0.6675 C   0  0  0  0  0  0  0  0  0  0  0  0
    2.4127    1.3672    2.5348 C   0  0  0  0  0  0  0  0  0  0  0  0
    1.3866    2.1560    3.0760 C   0  0  0  0  0  0  0  0  0  0  0  0
    3.1707    4.1589    2.8063 H   0  0  0  0  0  0  0  0  0  0  0  0
    2.4405    5.0568    4.1544 H   0  0  0  0  0  0  0  0  0  0  0  0
    1.8489    5.2990    2.4889 H   0  0  0  0  0  0  0  0  0  0  0  0
   -1.6396    2.7005    4.3214 H   0  0  0  0  0  0  0  0  0  0  0  0
   -0.9764   -0.2468    3.5747 H   0  0  0  0  0  0  0  0  0  0  0  0
    0.8571   -1.6731    2.6275 H   0  0  0  0  0  0  0  0  0  0  0  0
    2.0902   -1.1926   -0.1834 H   0  0  0  0  0  0  0  0  0  0  0  0
    2.3186   -2.4725   -2.2872 H   0  0  0  0  0  0  0  0  0  0  0  0
    3.9354   -3.4896   -3.9369 H   0  0  0  0  0  0  0  0  0  0  0  0
    6.3872   -3.4704   -3.3818 H   0  0  0  0  0  0  0  0  0  0  0  0
    5.7895   -1.6895    0.2284 H   0  0  0  0  0  0  0  0  0  0  0  0
    3.3592    1.8105    2.2744 H   0  0  0  0  0  0  0  0  0  0  0  0
  1  2  1  0
  1 21  1  0
  1 22  1  0
  1 23  1  0
  2 20  1  0
  2  3  1  0
  3  4  2  0
  4  5  1  0
  4 24  1  0
  5 20  2  0
  5  6  1  0
  6  7  2  0
  6 25  1  0
  7  8  1  0
  7 26  1  0
  8  9  1  0
  8 19  2  0
  9 10  2  0
  9 11  2  0
  9 12  1  0
 12 13  1  0
 12 27  1  0
 13 18  1  0
 13 14  2  0
 14 15  1  0
 14 28  1  0
 15 16  2  0
 15 29  1  0
 16 17  1  0
 16 30  1  0
 17 18  2  0
 18 31  1  0
 19 20  1  0
 19 32  1  0
M  END
>  <i_m_ct_stereo_status>  (406) 
1

>  <s_m_source_file>  (406) 
/var/tmp/pbs.5076255.sched01/tmp54n2b71h/144k2pf1zoq.sdf

>  <i_m_source_file_index>  (406) 
30

>  <i_lp_mmshare_version>  (406) 
48012

>  <i_f3d_flags>  (406) 
0

>  <s_epik_input>  (406) 
W2NIXTFubihbQ0gzXSljKGMxMilbY0hdYyhbY0hdW2NIXTIpUyg9TykoPU8pW05IXWMzW2NIXVtjSF1bY0hdbltjSF0z

>  <s_epik_cmdline>  (406) 
J2VwaWtfcHl0aG9uJywgJy1waHQnLCAnMi4wJywgJy1waCcsICc3LjAnLCAnLXRuJywgJzgnLCAnLW1hJywgJzIwMCcsICctaW1hZScsICc8aW5maWxlLm1hZT4nLCAnLW9tYWUnLCAnPG91dGZpbGUubWFlPic=

>  <r_lp_tautomer_probability>  (406) 
1

>  <r_epik_Ionization_Penalty>  (406) 
0.161998

>  <r_epik_Ionization_Penalty_Charging>  (406) 
0

>  <r_epik_Ionization_Penalty_Neutral>  (406) 
0.161998

>  <r_epik_State_Penalty>  (406) 
0.184314

>  <r_epik_Charging_Adjusted_Penalty>  (406) 
0.184314

>  <i_epik_Tot_Q>  (406) 
0

>  <i_epik_Tot_abs_Q>  (406) 
0

>  <s_lp_Force_Field>  (406) 
OPLS3e

>  <r_lp_Energy>  (406) 
25.9416

>  <b_lp_Chiralities_Consistent>  (406) 
1

>  <s_lp_Variant>  (406) 
113:0-1

>  <s_i_glide_gridfile>  (406) 
pfpi4k_grid

>  <i_i_glide_lignum>  (406) 
30

>  <i_i_glide_rotatable_bonds>  (406) 
3

>  <r_i_docking_score>  (406) 
-3.92664

>  <r_i_glide_ligand_efficiency>  (406) 
-0.196332

>  <r_i_glide_ligand_efficiency_sa>  (406) 
-0.532927

>  <r_i_glide_ligand_efficiency_ln>  (406) 
-0.982709

>  <r_i_glide_gscore>  (406) 
-3.92664

>  <r_i_glide_lipo>  (406) 
-0.294847

>  <r_i_glide_hbond>  (406) 
-0.151989

>  <r_i_glide_metal>  (406) 
-0

>  <r_i_glide_rewards>  (406) 
-1.44323

>  <r_i_glide_evdw>  (406) 
-24.0429

>  <r_i_glide_ecoul>  (406) 
-8.67931

>  <r_i_glide_erotb>  (406) 
0.656458

>  <r_i_glide_esite>  (406) 
-0.188988

>  <r_i_glide_emodel>  (406) 
-40.3452

>  <r_i_glide_energy>  (406) 
-32.7222

>  <r_i_glide_einternal>  (406) 
2.86871

>  <r_i_glide_intrahb_reward>  (406) 
-0

>  <i_i_glide_confnum>  (406) 
3

>  <i_i_glide_posenum>  (406) 
28

>  <r_i_glide_eff_state_penalty>  (406) 
0

>  <ligand_id>  (406) 
113

>  <original_smiles>  (406) 
Cn1ncc2ccc(S(=O)(=O)Nc3cccnc3)cc21

>  <smiles>  (406) 
[H]c1nc([H])c(N([H])S(=O)(=O)c2c([H])c([H])c3c([H])nn(C([H])([H])[H])c3c2[H])c([H])c1[H]

$$$$
113:0:1
     RDKit          3D

 32 34  0  0  1  0  0  0  0  0999 V2000
   -0.3930   -2.5918    6.0580 C   0  0  0  0  0  0  0  0  0  0  0  0
   -0.5456   -1.4078    5.2354 N   0  0  0  0  0  0  0  0  0  0  0  0
   -1.6046   -0.5847    5.4722 N   0  0  0  0  0  0  0  0  0  0  0  0
   -1.4922    0.3973    4.6082 C   0  0  0  0  0  0  0  0  0  0  0  0
   -0.3538    0.2400    3.7596 C   0  0  0  0  0  0  0  0  0  0  0  0
    0.2428    0.9396    2.6859 C   0  0  0  0  0  0  0  0  0  0  0  0
    1.4124    0.4514    2.0668 C   0  0  0  0  0  0  0  0  0  0  0  0
    1.9826   -0.7560    2.5125 C   0  0  0  0  0  0  0  0  0  0  0  0
    3.4686   -1.3522    1.7407 S   0  0  0  0  0  0  0  0  0  0  0  0
    4.4412   -0.2530    1.6830 O   0  0  0  0  0  0  0  0  0  0  0  0
    3.8349   -2.6531    2.3198 O   0  0  0  0  0  0  0  0  0  0  0  0
    3.0243   -1.6883    0.0979 N   0  0  0  0  0  0  0  0  0  0  0  0
    3.9066   -2.1380   -0.8923 C   0  0  0  0  0  0  0  0  0  0  0  0
    3.4465   -2.5820   -2.1493 C   0  0  0  0  0  0  0  0  0  0  0  0
    4.3933   -3.0555   -3.0828 C   0  0  0  0  0  0  0  0  0  0  0  0
    5.7563   -3.0593   -2.7221 C   0  0  0  0  0  0  0  0  0  0  0  0
    6.2098   -2.5915   -1.5477 N   0  0  0  0  0  0  0  0  0  0  0  0
    5.3009   -2.1689   -0.6506 C   0  0  0  0  0  0  0  0  0  0  0  0
    1.4205   -1.4682    3.5840 C   0  0  0  0  0  0  0  0  0  0  0  0
    0.2584   -0.9676    4.1921 C   0  0  0  0  0  0  0  0  0  0  0  0
    0.4742   -3.1683    5.7275 H   0  0  0  0  0  0  0  0  0  0  0  0
   -1.2829   -3.2156    5.9790 H   0  0  0  0  0  0  0  0  0  0  0  0
   -0.2437   -2.3020    7.0982 H   0  0  0  0  0  0  0  0  0  0  0  0
   -2.2305    1.1864    4.5953 H   0  0  0  0  0  0  0  0  0  0  0  0
   -0.1978    1.8570    2.3211 H   0  0  0  0  0  0  0  0  0  0  0  0
    1.8675    0.9944    1.2512 H   0  0  0  0  0  0  0  0  0  0  0  0
    2.0662   -1.4514   -0.2009 H   0  0  0  0  0  0  0  0  0  0  0  0
    2.3913   -2.5815   -2.3891 H   0  0  0  0  0  0  0  0  0  0  0  0
    4.0857   -3.4340   -4.0408 H   0  0  0  0  0  0  0  0  0  0  0  0
    6.5081   -3.4200   -3.4024 H   0  0  0  0  0  0  0  0  0  0  0  0
    5.7327   -1.8459    0.2843 H   0  0  0  0  0  0  0  0  0  0  0  0
    1.8856   -2.3742    3.9358 H   0  0  0  0  0  0  0  0  0  0  0  0
  1  2  1  0
  1 21  1  0
  1 22  1  0
  1 23  1  0
  2 20  1  0
  2  3  1  0
  3  4  2  0
  4  5  1  0
  4 24  1  0
  5 20  2  0
  5  6  1  0
  6  7  2  0
  6 25  1  0
  7  8  1  0
  7 26  1  0
  8  9  1  0
  8 19  2  0
  9 10  2  0
  9 11  2  0
  9 12  1  0
 12 13  1  0
 12 27  1  0
 13 18  1  0
 13 14  2  0
 14 15  1  0
 14 28  1  0
 15 16  2  0
 15 29  1  0
 16 17  1  0
 16 30  1  0
 17 18  2  0
 18 31  1  0
 19 20  1  0
 19 32  1  0
M  END
>  <i_m_ct_stereo_status>  (407) 
1

>  <s_m_source_file>  (407) 
/var/tmp/pbs.5076255.sched01/tmp54n2b71h/144k2pf1zoq.sdf

>  <i_m_source_file_index>  (407) 
30

>  <i_lp_mmshare_version>  (407) 
48012

>  <i_f3d_flags>  (407) 
0

>  <s_epik_input>  (407) 
W2NIXTFubihbQ0gzXSljKGMxMilbY0hdYyhbY0hdW2NIXTIpUyg9TykoPU8pW05IXWMzW2NIXVtjSF1bY0hdbltjSF0z

>  <s_epik_cmdline>  (407) 
J2VwaWtfcHl0aG9uJywgJy1waHQnLCAnMi4wJywgJy1waCcsICc3LjAnLCAnLXRuJywgJzgnLCAnLW1hJywgJzIwMCcsICctaW1hZScsICc8aW5maWxlLm1hZT4nLCAnLW9tYWUnLCAnPG91dGZpbGUubWFlPic=

>  <r_lp_tautomer_probability>  (407) 
1

>  <r_epik_Ionization_Penalty>  (407) 
0.161998

>  <r_epik_Ionization_Penalty_Charging>  (407) 
0

>  <r_epik_Ionization_Penalty_Neutral>  (407) 
0.161998

>  <r_epik_State_Penalty>  (407) 
0.184314

>  <r_epik_Charging_Adjusted_Penalty>  (407) 
0.184314

>  <i_epik_Tot_Q>  (407) 
0

>  <i_epik_Tot_abs_Q>  (407) 
0

>  <s_lp_Force_Field>  (407) 
OPLS3e

>  <r_lp_Energy>  (407) 
25.9416

>  <b_lp_Chiralities_Consistent>  (407) 
1

>  <s_lp_Variant>  (407) 
113:0-1

>  <s_i_glide_gridfile>  (407) 
pfpi4k_grid

>  <i_i_glide_lignum>  (407) 
30

>  <i_i_glide_rotatable_bonds>  (407) 
3

>  <r_i_docking_score>  (407) 
-3.90763

>  <r_i_glide_ligand_efficiency>  (407) 
-0.195382

>  <r_i_glide_ligand_efficiency_sa>  (407) 
-0.530347

>  <r_i_glide_ligand_efficiency_ln>  (407) 
-0.977952

>  <r_i_glide_gscore>  (407) 
-3.90763

>  <r_i_glide_lipo>  (407) 
-0.300022

>  <r_i_glide_hbond>  (407) 
-0.16

>  <r_i_glide_metal>  (407) 
-0

>  <r_i_glide_rewards>  (407) 
-1.44323

>  <r_i_glide_evdw>  (407) 
-25.4263

>  <r_i_glide_ecoul>  (407) 
-8.36357

>  <r_i_glide_erotb>  (407) 
0.656458

>  <r_i_glide_esite>  (407) 
-0.134987

>  <r_i_glide_emodel>  (407) 
-41.376

>  <r_i_glide_energy>  (407) 
-33.7899

>  <r_i_glide_einternal>  (407) 
2.91335

>  <r_i_glide_intrahb_reward>  (407) 
-0

>  <i_i_glide_confnum>  (407) 
1

>  <i_i_glide_posenum>  (407) 
19

>  <r_i_glide_eff_state_penalty>  (407) 
0

>  <ligand_id>  (407) 
113

>  <original_smiles>  (407) 
Cn1ncc2ccc(S(=O)(=O)Nc3cccnc3)cc21

>  <smiles>  (407) 
[H]c1nc([H])c(N([H])S(=O)(=O)c2c([H])c([H])c3c([H])nn(C([H])([H])[H])c3c2[H])c([H])c1[H]

$$$$
113:0:2
     RDKit          3D

 32 34  0  0  1  0  0  0  0  0999 V2000
    1.7978   -6.5124    1.3768 C   0  0  0  0  0  0  0  0  0  0  0  0
    3.2460   -6.3848    1.3480 N   0  0  0  0  0  0  0  0  0  0  0  0
    3.9932   -7.5206    1.2706 N   0  0  0  0  0  0  0  0  0  0  0  0
    5.2458   -7.1277    1.2627 C   0  0  0  0  0  0  0  0  0  0  0  0
    5.3620   -5.6957    1.2731 C   0  0  0  0  0  0  0  0  0  0  0  0
    6.3845   -4.7225    1.2191 C   0  0  0  0  0  0  0  0  0  0  0  0
    6.0980   -3.3314    1.2480 C   0  0  0  0  0  0  0  0  0  0  0  0
    4.7557   -2.9088    1.3745 C   0  0  0  0  0  0  0  0  0  0  0  0
    4.3696   -1.1502    1.2732 S   0  0  0  0  0  0  0  0  0  0  0  0
    2.9622   -0.9303    1.5978 O   0  0  0  0  0  0  0  0  0  0  0  0
    5.4219   -0.3836    1.9758 O   0  0  0  0  0  0  0  0  0  0  0  0
    4.5608   -0.7427   -0.4147 N   0  0  0  0  0  0  0  0  0  0  0  0
    4.0016   -1.3328   -1.5620 C   0  0  0  0  0  0  0  0  0  0  0  0
    3.1196   -2.4429   -1.4567 C   0  0  0  0  0  0  0  0  0  0  0  0
    2.6537   -3.0695   -2.6198 C   0  0  0  0  0  0  0  0  0  0  0  0
    3.0116   -2.5463   -3.8701 C   0  0  0  0  0  0  0  0  0  0  0  0
    3.7861   -1.4425   -4.0024 N   0  0  0  0  0  0  0  0  0  0  0  0
    4.2478   -0.8505   -2.8688 C   0  0  0  0  0  0  0  0  0  0  0  0
    3.7221   -3.8618    1.4831 C   0  0  0  0  0  0  0  0  0  0  0  0
    4.0149   -5.2319    1.3865 C   0  0  0  0  0  0  0  0  0  0  0  0
    1.3459   -5.5208    1.4276 H   0  0  0  0  0  0  0  0  0  0  0  0
    1.5070   -7.0725    2.2614 H   0  0  0  0  0  0  0  0  0  0  0  0
    1.4225   -7.0248    0.4883 H   0  0  0  0  0  0  0  0  0  0  0  0
    6.0306   -7.8706    1.2320 H   0  0  0  0  0  0  0  0  0  0  0  0
    7.4059   -5.0467    1.1551 H   0  0  0  0  0  0  0  0  0  0  0  0
    6.8884   -2.5929    1.1579 H   0  0  0  0  0  0  0  0  0  0  0  0
    4.9853    0.1745   -0.5347 H   0  0  0  0  0  0  0  0  0  0  0  0
    2.7244   -2.7866   -0.5172 H   0  0  0  0  0  0  0  0  0  0  0  0
    2.0266   -3.9330   -2.4938 H   0  0  0  0  0  0  0  0  0  0  0  0
    2.6198   -3.0396   -4.7456 H   0  0  0  0  0  0  0  0  0  0  0  0
    4.8467    0.0428   -3.0062 H   0  0  0  0  0  0  0  0  0  0  0  0
    2.6920   -3.5525    1.5823 H   0  0  0  0  0  0  0  0  0  0  0  0
  1  2  1  0
  1 21  1  0
  1 22  1  0
  1 23  1  0
  2 20  1  0
  2  3  1  0
  3  4  2  0
  4  5  1  0
  4 24  1  0
  5 20  2  0
  5  6  1  0
  6  7  2  0
  6 25  1  0
  7  8  1  0
  7 26  1  0
  8  9  1  0
  8 19  2  0
  9 10  2  0
  9 11  2  0
  9 12  1  0
 12 13  1  0
 12 27  1  0
 13 18  1  0
 13 14  2  0
 14 15  1  0
 14 28  1  0
 15 16  2  0
 15 29  1  0
 16 17  1  0
 16 30  1  0
 17 18  2  0
 18 31  1  0
 19 20  1  0
 19 32  1  0
M  END
>  <i_m_ct_stereo_status>  (408) 
1

>  <s_m_source_file>  (408) 
/var/tmp/pbs.5076255.sched01/tmp54n2b71h/144k2pf1zoq.sdf

>  <i_m_source_file_index>  (408) 
30

>  <i_lp_mmshare_version>  (408) 
48012

>  <i_f3d_flags>  (408) 
0

>  <s_epik_input>  (408) 
W2NIXTFubihbQ0gzXSljKGMxMilbY0hdYyhbY0hdW2NIXTIpUyg9TykoPU8pW05IXWMzW2NIXVtjSF1bY0hdbltjSF0z

>  <s_epik_cmdline>  (408) 
J2VwaWtfcHl0aG9uJywgJy1waHQnLCAnMi4wJywgJy1waCcsICc3LjAnLCAnLXRuJywgJzgnLCAnLW1hJywgJzIwMCcsICctaW1hZScsICc8aW5maWxlLm1hZT4nLCAnLW9tYWUnLCAnPG91dGZpbGUubWFlPic=

>  <r_lp_tautomer_probability>  (408) 
1

>  <r_epik_Ionization_Penalty>  (408) 
0.161998

>  <r_epik_Ionization_Penalty_Charging>  (408) 
0

>  <r_epik_Ionization_Penalty_Neutral>  (408) 
0.161998

>  <r_epik_State_Penalty>  (408) 
0.184314

>  <r_epik_Charging_Adjusted_Penalty>  (408) 
0.184314

>  <i_epik_Tot_Q>  (408) 
0

>  <i_epik_Tot_abs_Q>  (408) 
0

>  <s_lp_Force_Field>  (408) 
OPLS3e

>  <r_lp_Energy>  (408) 
25.9416

>  <b_lp_Chiralities_Consistent>  (408) 
1

>  <s_lp_Variant>  (408) 
113:0-1

>  <s_i_glide_gridfile>  (408) 
pfpi4k_grid

>  <i_i_glide_lignum>  (408) 
30

>  <i_i_glide_rotatable_bonds>  (408) 
3

>  <r_i_docking_score>  (408) 
-3.80931

>  <r_i_glide_ligand_efficiency>  (408) 
-0.190465

>  <r_i_glide_ligand_efficiency_sa>  (408) 
-0.517003

>  <r_i_glide_ligand_efficiency_ln>  (408) 
-0.953344

>  <r_i_glide_gscore>  (408) 
-3.80931

>  <r_i_glide_lipo>  (408) 
-0.603065

>  <r_i_glide_hbond>  (408) 
-0.357835

>  <r_i_glide_metal>  (408) 
-0

>  <r_i_glide_rewards>  (408) 
-1.55296

>  <r_i_glide_evdw>  (408) 
-27.1833

>  <r_i_glide_ecoul>  (408) 
-3.54023

>  <r_i_glide_erotb>  (408) 
0.656458

>  <r_i_glide_esite>  (408) 
-0.0617049

>  <r_i_glide_emodel>  (408) 
-39.3231

>  <r_i_glide_energy>  (408) 
-30.7235

>  <r_i_glide_einternal>  (408) 
0.125416

>  <r_i_glide_intrahb_reward>  (408) 
-0

>  <i_i_glide_confnum>  (408) 
2

>  <i_i_glide_posenum>  (408) 
23

>  <r_i_glide_eff_state_penalty>  (408) 
0

>  <ligand_id>  (408) 
113

>  <original_smiles>  (408) 
Cn1ncc2ccc(S(=O)(=O)Nc3cccnc3)cc21

>  <smiles>  (408) 
[H]c1nc([H])c(N([H])S(=O)(=O)c2c([H])c([H])c3c([H])nn(C([H])([H])[H])c3c2[H])c([H])c1[H]

$$$$
113:1:0
     RDKit          3D

 31 33  0  0  1  0  0  0  0  0999 V2000
    4.5323   -8.1287    0.4897 C   0  0  0  0  0  0  0  0  0  0  0  0
    4.0201   -6.9444    1.1537 N   0  0  0  0  0  0  0  0  0  0  0  0
    2.9398   -7.0637    1.9745 N   0  0  0  0  0  0  0  0  0  0  0  0
    2.7140   -5.8626    2.4526 C   0  0  0  0  0  0  0  0  0  0  0  0
    3.6500   -4.9070    1.9413 C   0  0  0  0  0  0  0  0  0  0  0  0
    3.8952   -3.5220    2.0831 C   0  0  0  0  0  0  0  0  0  0  0  0
    4.9740   -2.9040    1.4152 C   0  0  0  0  0  0  0  0  0  0  0  0
    5.8238   -3.6710    0.5880 C   0  0  0  0  0  0  0  0  0  0  0  0
    7.1689   -2.8765   -0.3041 S   0  0  0  0  0  0  0  0  0  0  0  0
    7.1569   -1.4511    0.0543 O   0  0  0  0  0  0  0  0  0  0  0  0
    8.3841   -3.6422    0.0077 O   0  0  0  0  0  0  0  0  0  0  0  0
    6.6198   -3.1507   -1.8026 N   0  0  0  0  0  0  0  0  0  0  0  0
    5.4491   -2.7551   -2.3352 C   0  0  0  0  0  0  0  0  0  0  0  0
    4.6237   -1.7556   -1.7713 C   0  0  0  0  0  0  0  0  0  0  0  0
    3.4087   -1.4250   -2.3828 C   0  0  0  0  0  0  0  0  0  0  0  0
    3.0302   -2.1074   -3.5502 C   0  0  0  0  0  0  0  0  0  0  0  0
    3.8049   -3.0546   -4.1174 N   0  0  0  0  0  0  0  0  0  0  0  0
    4.9668   -3.3709   -3.5102 C   0  0  0  0  0  0  0  0  0  0  0  0
    5.5849   -5.0476    0.4148 C   0  0  0  0  0  0  0  0  0  0  0  0
    4.5104   -5.6501    1.0911 C   0  0  0  0  0  0  0  0  0  0  0  0
    4.6086   -7.9294   -0.5785 H   0  0  0  0  0  0  0  0  0  0  0  0
    3.8716   -8.9865    0.6478 H   0  0  0  0  0  0  0  0  0  0  0  0
    5.5237   -8.3644    0.8805 H   0  0  0  0  0  0  0  0  0  0  0  0
    1.9047   -5.7109    3.1531 H   0  0  0  0  0  0  0  0  0  0  0  0
    3.2537   -2.9287    2.7110 H   0  0  0  0  0  0  0  0  0  0  0  0
    5.1364   -1.8420    1.5118 H   0  0  0  0  0  0  0  0  0  0  0  0
    4.8883   -1.2320   -0.8635 H   0  0  0  0  0  0  0  0  0  0  0  0
    2.7553   -0.6854   -1.9379 H   0  0  0  0  0  0  0  0  0  0  0  0
    2.0935   -1.8769   -4.0420 H   0  0  0  0  0  0  0  0  0  0  0  0
    5.5173   -4.1493   -4.0031 H   0  0  0  0  0  0  0  0  0  0  0  0
    6.2110   -5.6130   -0.2539 H   0  0  0  0  0  0  0  0  0  0  0  0
  1  2  1  0
  1 21  1  0
  1 22  1  0
  1 23  1  0
  2 20  1  0
  2  3  1  0
  3  4  2  0
  4  5  1  0
  4 24  1  0
  5 20  2  0
  5  6  1  0
  6  7  2  0
  6 25  1  0
  7  8  1  0
  7 26  1  0
  8  9  1  0
  8 19  2  0
  9 10  2  0
  9 11  2  0
  9 12  1  0
 12 13  1  0
 13 18  1  0
 13 14  2  0
 14 15  1  0
 14 27  1  0
 15 16  2  0
 15 28  1  0
 16 17  1  0
 16 29  1  0
 17 18  2  0
 18 30  1  0
 19 20  1  0
 19 31  1  0
M  CHG  1  12  -1
M  END
>  <i_m_ct_stereo_status>  (409) 
1

>  <s_m_source_file>  (409) 
/var/tmp/pbs.5076255.sched01/tmp54n2b71h/144k2pf1zoq.sdf

>  <i_m_source_file_index>  (409) 
31

>  <i_lp_mmshare_version>  (409) 
48012

>  <i_f3d_flags>  (409) 
0

>  <s_epik_input>  (409) 
W2NIXTFubihbQ0gzXSljKGMxMilbY0hdYyhbY0hdW2NIXTIpUyg9TykoPU8pW05IXWMzW2NIXVtjSF1bY0hdbltjSF0z

>  <s_epik_cmdline>  (409) 
J2VwaWtfcHl0aG9uJywgJy1waHQnLCAnMi4wJywgJy1waCcsICc3LjAnLCAnLXRuJywgJzgnLCAnLW1hJywgJzIwMCcsICctaW1hZScsICc8aW5maWxlLm1hZT4nLCAnLW9tYWUnLCAnPG91dGZpbGUubWFlPic=

>  <r_lp_tautomer_probability>  (409) 
1

>  <r_epik_Ionization_Penalty>  (409) 
0.992339

>  <r_epik_Ionization_Penalty_Charging>  (409) 
0.847463

>  <r_epik_Ionization_Penalty_Neutral>  (409) 
0.144876

>  <r_epik_State_Penalty>  (409) 
0.915763

>  <r_epik_Charging_Adjusted_Penalty>  (409) 
1.76323

>  <i_epik_Tot_Q>  (409) 
-1

>  <i_epik_Tot_abs_Q>  (409) 
1

>  <s_lp_Force_Field>  (409) 
OPLS3e

>  <r_lp_Energy>  (409) 
29.6288

>  <b_lp_Chiralities_Consistent>  (409) 
1

>  <s_lp_Variant>  (409) 
113:0-2

>  <s_i_glide_gridfile>  (409) 
pfpi4k_grid

>  <i_i_glide_lignum>  (409) 
31

>  <i_i_glide_rotatable_bonds>  (409) 
3

>  <r_i_docking_score>  (409) 
-4.00379

>  <r_i_glide_ligand_efficiency>  (409) 
-0.200189

>  <r_i_glide_ligand_efficiency_sa>  (409) 
-0.543398

>  <r_i_glide_ligand_efficiency_ln>  (409) 
-1.00202

>  <r_i_glide_gscore>  (409) 
-4.00379

>  <r_i_glide_lipo>  (409) 
-0.881806

>  <r_i_glide_hbond>  (409) 
-0.181885

>  <r_i_glide_metal>  (409) 
-0

>  <r_i_glide_rewards>  (409) 
-1.65245

>  <r_i_glide_evdw>  (409) 
-27.8109

>  <r_i_glide_ecoul>  (409) 
-3.23648

>  <r_i_glide_erotb>  (409) 
0.660476

>  <r_i_glide_esite>  (409) 
-0.0721058

>  <r_i_glide_emodel>  (409) 
-39.3082

>  <r_i_glide_energy>  (409) 
-31.0473

>  <r_i_glide_einternal>  (409) 
1.44313

>  <r_i_glide_intrahb_reward>  (409) 
-0

>  <i_i_glide_confnum>  (409) 
1

>  <i_i_glide_posenum>  (409) 
19

>  <r_i_glide_eff_state_penalty>  (409) 
0

>  <ligand_id>  (409) 
113

>  <original_smiles>  (409) 
Cn1ncc2ccc(S(=O)(=O)Nc3cccnc3)cc21

>  <smiles>  (409) 
[H]c1nc([H])c([N-]S(=O)(=O)c2c([H])c([H])c3c([H])nn(C([H])([H])[H])c3c2[H])c([H])c1[H]

$$$$
113:1:1
     RDKit          3D

 31 33  0  0  1  0  0  0  0  0999 V2000
    2.1688   -0.1107    2.0186 C   0  0  0  0  0  0  0  0  0  0  0  0
    2.5803   -1.4006    2.5507 N   0  0  0  0  0  0  0  0  0  0  0  0
    1.8650   -1.9557    3.5693 N   0  0  0  0  0  0  0  0  0  0  0  0
    2.4556   -3.0968    3.8417 C   0  0  0  0  0  0  0  0  0  0  0  0
    3.5852   -3.3289    2.9916 C   0  0  0  0  0  0  0  0  0  0  0  0
    4.5636   -4.3329    2.8183 C   0  0  0  0  0  0  0  0  0  0  0  0
    5.5707   -4.1978    1.8412 C   0  0  0  0  0  0  0  0  0  0  0  0
    5.6192   -3.0421    1.0316 C   0  0  0  0  0  0  0  0  0  0  0  0
    6.9338   -2.8930   -0.1887 S   0  0  0  0  0  0  0  0  0  0  0  0
    7.2940   -1.4718   -0.2318 O   0  0  0  0  0  0  0  0  0  0  0  0
    7.9756   -3.8554    0.1985 O   0  0  0  0  0  0  0  0  0  0  0  0
    6.1029   -3.3746   -1.4888 N   0  0  0  0  0  0  0  0  0  0  0  0
    5.2501   -2.6642   -2.2517 C   0  0  0  0  0  0  0  0  0  0  0  0
    4.9693   -1.2912   -2.0502 C   0  0  0  0  0  0  0  0  0  0  0  0
    4.0993   -0.6149   -2.9169 C   0  0  0  0  0  0  0  0  0  0  0  0
    3.5127   -1.3258   -3.9751 C   0  0  0  0  0  0  0  0  0  0  0  0
    3.7656   -2.6342   -4.1971 N   0  0  0  0  0  0  0  0  0  0  0  0
    4.5923   -3.2806   -3.3441 C   0  0  0  0  0  0  0  0  0  0  0  0
    4.6525   -2.0286    1.1883 C   0  0  0  0  0  0  0  0  0  0  0  0
    3.6485   -2.1844    2.1530 C   0  0  0  0  0  0  0  0  0  0  0  0
    3.0203    0.5725    2.0143 H   0  0  0  0  0  0  0  0  0  0  0  0
    1.3667    0.3246    2.6177 H   0  0  0  0  0  0  0  0  0  0  0  0
    1.8131   -0.2351    0.9946 H   0  0  0  0  0  0  0  0  0  0  0  0
    2.0667   -3.7254    4.6315 H   0  0  0  0  0  0  0  0  0  0  0  0
    4.5482   -5.2072    3.4471 H   0  0  0  0  0  0  0  0  0  0  0  0
    6.3096   -4.9709    1.7086 H   0  0  0  0  0  0  0  0  0  0  0  0
    5.4301   -0.7155   -1.2645 H   0  0  0  0  0  0  0  0  0  0  0  0
    3.9111    0.4331   -2.7592 H   0  0  0  0  0  0  0  0  0  0  0  0
    2.8443   -0.8092   -4.6571 H   0  0  0  0  0  0  0  0  0  0  0  0
    4.7442   -4.3227   -3.5756 H   0  0  0  0  0  0  0  0  0  0  0  0
    4.6677   -1.1368    0.5891 H   0  0  0  0  0  0  0  0  0  0  0  0
  1  2  1  0
  1 21  1  0
  1 22  1  0
  1 23  1  0
  2 20  1  0
  2  3  1  0
  3  4  2  0
  4  5  1  0
  4 24  1  0
  5 20  2  0
  5  6  1  0
  6  7  2  0
  6 25  1  0
  7  8  1  0
  7 26  1  0
  8  9  1  0
  8 19  2  0
  9 10  2  0
  9 11  2  0
  9 12  1  0
 12 13  1  0
 13 18  1  0
 13 14  2  0
 14 15  1  0
 14 27  1  0
 15 16  2  0
 15 28  1  0
 16 17  1  0
 16 29  1  0
 17 18  2  0
 18 30  1  0
 19 20  1  0
 19 31  1  0
M  CHG  1  12  -1
M  END
>  <i_m_ct_stereo_status>  (410) 
1

>  <s_m_source_file>  (410) 
/var/tmp/pbs.5076255.sched01/tmp54n2b71h/144k2pf1zoq.sdf

>  <i_m_source_file_index>  (410) 
31

>  <i_lp_mmshare_version>  (410) 
48012

>  <i_f3d_flags>  (410) 
0

>  <s_epik_input>  (410) 
W2NIXTFubihbQ0gzXSljKGMxMilbY0hdYyhbY0hdW2NIXTIpUyg9TykoPU8pW05IXWMzW2NIXVtjSF1bY0hdbltjSF0z

>  <s_epik_cmdline>  (410) 
J2VwaWtfcHl0aG9uJywgJy1waHQnLCAnMi4wJywgJy1waCcsICc3LjAnLCAnLXRuJywgJzgnLCAnLW1hJywgJzIwMCcsICctaW1hZScsICc8aW5maWxlLm1hZT4nLCAnLW9tYWUnLCAnPG91dGZpbGUubWFlPic=

>  <r_lp_tautomer_probability>  (410) 
1

>  <r_epik_Ionization_Penalty>  (410) 
0.992339

>  <r_epik_Ionization_Penalty_Charging>  (410) 
0.847463

>  <r_epik_Ionization_Penalty_Neutral>  (410) 
0.144876

>  <r_epik_State_Penalty>  (410) 
0.915763

>  <r_epik_Charging_Adjusted_Penalty>  (410) 
1.76323

>  <i_epik_Tot_Q>  (410) 
-1

>  <i_epik_Tot_abs_Q>  (410) 
1

>  <s_lp_Force_Field>  (410) 
OPLS3e

>  <r_lp_Energy>  (410) 
29.6288

>  <b_lp_Chiralities_Consistent>  (410) 
1

>  <s_lp_Variant>  (410) 
113:0-2

>  <s_i_glide_gridfile>  (410) 
pfpi4k_grid

>  <i_i_glide_lignum>  (410) 
31

>  <i_i_glide_rotatable_bonds>  (410) 
3

>  <r_i_docking_score>  (410) 
-4.00268

>  <r_i_glide_ligand_efficiency>  (410) 
-0.200134

>  <r_i_glide_ligand_efficiency_sa>  (410) 
-0.543247

>  <r_i_glide_ligand_efficiency_ln>  (410) 
-1.00174

>  <r_i_glide_gscore>  (410) 
-4.00268

>  <r_i_glide_lipo>  (410) 
-0.673506

>  <r_i_glide_hbond>  (410) 
-0.32

>  <r_i_glide_metal>  (410) 
-0

>  <r_i_glide_rewards>  (410) 
-1.53398

>  <r_i_glide_evdw>  (410) 
-23.2013

>  <r_i_glide_ecoul>  (410) 
-5.78682

>  <r_i_glide_erotb>  (410) 
0.660476

>  <r_i_glide_esite>  (410) 
-0.10758

>  <r_i_glide_emodel>  (410) 
-37.8482

>  <r_i_glide_energy>  (410) 
-28.9882

>  <r_i_glide_einternal>  (410) 
0.140243

>  <r_i_glide_intrahb_reward>  (410) 
-0

>  <i_i_glide_confnum>  (410) 
2

>  <i_i_glide_posenum>  (410) 
1

>  <r_i_glide_eff_state_penalty>  (410) 
0

>  <ligand_id>  (410) 
113

>  <original_smiles>  (410) 
Cn1ncc2ccc(S(=O)(=O)Nc3cccnc3)cc21

>  <smiles>  (410) 
[H]c1nc([H])c([N-]S(=O)(=O)c2c([H])c([H])c3c([H])nn(C([H])([H])[H])c3c2[H])c([H])c1[H]

$$$$
113:1:2
     RDKit          3D

 31 33  0  0  1  0  0  0  0  0999 V2000
    4.5121   -4.0128   -4.0667 C   0  0  0  0  0  0  0  0  0  0  0  0
    4.3813   -2.8483   -3.2119 N   0  0  0  0  0  0  0  0  0  0  0  0
    4.1877   -1.6226   -3.7742 N   0  0  0  0  0  0  0  0  0  0  0  0
    4.1244   -0.7765   -2.7696 C   0  0  0  0  0  0  0  0  0  0  0  0
    4.2539   -1.4341   -1.5058 C   0  0  0  0  0  0  0  0  0  0  0  0
    4.2515   -1.0700   -0.1393 C   0  0  0  0  0  0  0  0  0  0  0  0
    4.4109   -2.0448    0.8689 C   0  0  0  0  0  0  0  0  0  0  0  0
    4.5855   -3.3992    0.5134 C   0  0  0  0  0  0  0  0  0  0  0  0
    4.8691   -4.6087    1.7905 S   0  0  0  0  0  0  0  0  0  0  0  0
    5.3317   -5.8190    1.0981 O   0  0  0  0  0  0  0  0  0  0  0  0
    5.8147   -3.9714    2.7282 O   0  0  0  0  0  0  0  0  0  0  0  0
    3.3621   -4.6806    2.3882 N   0  0  0  0  0  0  0  0  0  0  0  0
    2.4437   -5.6617    2.3015 C   0  0  0  0  0  0  0  0  0  0  0  0
    2.6830   -6.9183    1.6971 C   0  0  0  0  0  0  0  0  0  0  0  0
    1.6754   -7.8925    1.6872 C   0  0  0  0  0  0  0  0  0  0  0  0
    0.4394   -7.5979    2.2752 C   0  0  0  0  0  0  0  0  0  0  0  0
    0.1718   -6.4054    2.8508 N   0  0  0  0  0  0  0  0  0  0  0  0
    1.1618   -5.4790    2.8748 C   0  0  0  0  0  0  0  0  0  0  0  0
    4.5785   -3.7879   -0.8381 C   0  0  0  0  0  0  0  0  0  0  0  0
    4.4173   -2.8084   -1.8289 C   0  0  0  0  0  0  0  0  0  0  0  0
    5.4077   -4.5648   -3.7834 H   0  0  0  0  0  0  0  0  0  0  0  0
    4.5790   -3.7459   -5.1173 H   0  0  0  0  0  0  0  0  0  0  0  0
    3.6409   -4.6486   -3.9363 H   0  0  0  0  0  0  0  0  0  0  0  0
    3.9777    0.2769   -2.9640 H   0  0  0  0  0  0  0  0  0  0  0  0
    4.1273   -0.0334    0.1333 H   0  0  0  0  0  0  0  0  0  0  0  0
    4.4100   -1.7674    1.9104 H   0  0  0  0  0  0  0  0  0  0  0  0
    3.6332   -7.1718    1.2478 H   0  0  0  0  0  0  0  0  0  0  0  0
    1.8852   -8.8451    1.2326 H   0  0  0  0  0  0  0  0  0  0  0  0
   -0.3416   -8.3518    2.2759 H   0  0  0  0  0  0  0  0  0  0  0  0
    0.8859   -4.5573    3.3662 H   0  0  0  0  0  0  0  0  0  0  0  0
    4.7055   -4.8260   -1.1067 H   0  0  0  0  0  0  0  0  0  0  0  0
  1  2  1  0
  1 21  1  0
  1 22  1  0
  1 23  1  0
  2 20  1  0
  2  3  1  0
  3  4  2  0
  4  5  1  0
  4 24  1  0
  5 20  2  0
  5  6  1  0
  6  7  2  0
  6 25  1  0
  7  8  1  0
  7 26  1  0
  8  9  1  0
  8 19  2  0
  9 10  2  0
  9 11  2  0
  9 12  1  0
 12 13  1  0
 13 18  1  0
 13 14  2  0
 14 15  1  0
 14 27  1  0
 15 16  2  0
 15 28  1  0
 16 17  1  0
 16 29  1  0
 17 18  2  0
 18 30  1  0
 19 20  1  0
 19 31  1  0
M  CHG  1  12  -1
M  END
>  <i_m_ct_stereo_status>  (411) 
1

>  <s_m_source_file>  (411) 
/var/tmp/pbs.5076255.sched01/tmp54n2b71h/144k2pf1zoq.sdf

>  <i_m_source_file_index>  (411) 
31

>  <i_lp_mmshare_version>  (411) 
48012

>  <i_f3d_flags>  (411) 
0

>  <s_epik_input>  (411) 
W2NIXTFubihbQ0gzXSljKGMxMilbY0hdYyhbY0hdW2NIXTIpUyg9TykoPU8pW05IXWMzW2NIXVtjSF1bY0hdbltjSF0z

>  <s_epik_cmdline>  (411) 
J2VwaWtfcHl0aG9uJywgJy1waHQnLCAnMi4wJywgJy1waCcsICc3LjAnLCAnLXRuJywgJzgnLCAnLW1hJywgJzIwMCcsICctaW1hZScsICc8aW5maWxlLm1hZT4nLCAnLW9tYWUnLCAnPG91dGZpbGUubWFlPic=

>  <r_lp_tautomer_probability>  (411) 
1

>  <r_epik_Ionization_Penalty>  (411) 
0.992339

>  <r_epik_Ionization_Penalty_Charging>  (411) 
0.847463

>  <r_epik_Ionization_Penalty_Neutral>  (411) 
0.144876

>  <r_epik_State_Penalty>  (411) 
0.915763

>  <r_epik_Charging_Adjusted_Penalty>  (411) 
1.76323

>  <i_epik_Tot_Q>  (411) 
-1

>  <i_epik_Tot_abs_Q>  (411) 
1

>  <s_lp_Force_Field>  (411) 
OPLS3e

>  <r_lp_Energy>  (411) 
29.6288

>  <b_lp_Chiralities_Consistent>  (411) 
1

>  <s_lp_Variant>  (411) 
113:0-2

>  <s_i_glide_gridfile>  (411) 
pfpi4k_grid

>  <i_i_glide_lignum>  (411) 
31

>  <i_i_glide_rotatable_bonds>  (411) 
3

>  <r_i_docking_score>  (411) 
-3.09777

>  <r_i_glide_ligand_efficiency>  (411) 
-0.154889

>  <r_i_glide_ligand_efficiency_sa>  (411) 
-0.420432

>  <r_i_glide_ligand_efficiency_ln>  (411) 
-0.77527

>  <r_i_glide_gscore>  (411) 
-3.09777

>  <r_i_glide_lipo>  (411) 
-0.124266

>  <r_i_glide_hbond>  (411) 
-0.123516

>  <r_i_glide_metal>  (411) 
-0

>  <r_i_glide_rewards>  (411) 
-1.66101

>  <r_i_glide_evdw>  (411) 
-23.9566

>  <r_i_glide_ecoul>  (411) 
-4.34415

>  <r_i_glide_erotb>  (411) 
0.660476

>  <r_i_glide_esite>  (411) 
0

>  <r_i_glide_emodel>  (411) 
-34.12

>  <r_i_glide_energy>  (411) 
-28.3007

>  <r_i_glide_einternal>  (411) 
2.0633

>  <r_i_glide_intrahb_reward>  (411) 
-0

>  <i_i_glide_confnum>  (411) 
2

>  <i_i_glide_posenum>  (411) 
28

>  <r_i_glide_eff_state_penalty>  (411) 
0

>  <ligand_id>  (411) 
113

>  <original_smiles>  (411) 
Cn1ncc2ccc(S(=O)(=O)Nc3cccnc3)cc21

>  <smiles>  (411) 
[H]c1nc([H])c([N-]S(=O)(=O)c2c([H])c([H])c3c([H])nn(C([H])([H])[H])c3c2[H])c([H])c1[H]

$$$$
113:2:0
     RDKit          3D

 32 34  0  0  1  0  0  0  0  0999 V2000
    5.3519    0.4768    4.7661 C   0  0  0  0  0  0  0  0  0  0  0  0
    4.3906   -0.4652    4.2432 N   0  0  0  0  0  0  0  0  0  0  0  0
    3.2317   -0.6891    4.9288 N   0  0  0  0  0  0  0  0  0  0  0  0
    2.5608   -1.5677    4.2235 C   0  0  0  0  0  0  0  0  0  0  0  0
    3.2797   -1.9511    3.0492 C   0  0  0  0  0  0  0  0  0  0  0  0
    3.0842   -2.8359    1.9679 C   0  0  0  0  0  0  0  0  0  0  0  0
    4.0739   -2.9987    0.9827 C   0  0  0  0  0  0  0  0  0  0  0  0
    5.2659   -2.2391    1.0292 C   0  0  0  0  0  0  0  0  0  0  0  0
    6.5279   -2.4148   -0.2402 S   0  0  0  0  0  0  0  0  0  0  0  0
    7.7487   -1.7411    0.2341 O   0  0  0  0  0  0  0  0  0  0  0  0
    6.6230   -3.8539   -0.5509 O   0  0  0  0  0  0  0  0  0  0  0  0
    5.8122   -1.5362   -1.4166 N   0  0  0  0  0  0  0  0  0  0  0  0
    4.7542   -1.8539   -2.1847 C   0  0  0  0  0  0  0  0  0  0  0  0
    4.1219   -0.8596   -2.9783 C   0  0  0  0  0  0  0  0  0  0  0  0
    3.0180   -1.1979   -3.7949 C   0  0  0  0  0  0  0  0  0  0  0  0
    2.5223   -2.5262   -3.7734 C   0  0  0  0  0  0  0  0  0  0  0  0
    3.1458   -3.4345   -3.0063 N   0  0  0  0  0  0  0  0  0  0  0  0
    4.2226   -3.1613   -2.2642 C   0  0  0  0  0  0  0  0  0  0  0  0
    5.4742   -1.3250    2.0786 C   0  0  0  0  0  0  0  0  0  0  0  0
    4.4911   -1.2077    3.0777 C   0  0  0  0  0  0  0  0  0  0  0  0
    6.3351    0.0075    4.8169 H   0  0  0  0  0  0  0  0  0  0  0  0
    5.0560    0.8123    5.7596 H   0  0  0  0  0  0  0  0  0  0  0  0
    5.4000    1.3314    4.0940 H   0  0  0  0  0  0  0  0  0  0  0  0
    1.5951   -1.9146    4.5592 H   0  0  0  0  0  0  0  0  0  0  0  0
    2.1784   -3.4206    1.9076 H   0  0  0  0  0  0  0  0  0  0  0  0
    3.8732   -3.7230    0.2161 H   0  0  0  0  0  0  0  0  0  0  0  0
    4.4752    0.1614   -2.9637 H   0  0  0  0  0  0  0  0  0  0  0  0
    2.5302   -0.4602   -4.4169 H   0  0  0  0  0  0  0  0  0  0  0  0
    1.6679   -2.9000   -4.3255 H   0  0  0  0  0  0  0  0  0  0  0  0
    4.5934   -4.0422   -1.7613 H   0  0  0  0  0  0  0  0  0  0  0  0
    6.3887   -0.7492    2.1173 H   0  0  0  0  0  0  0  0  0  0  0  0
    2.8043   -4.4119   -2.9613 H   0  0  0  0  0  0  0  0  0  0  0  0
  1  2  1  0
  1 21  1  0
  1 22  1  0
  1 23  1  0
  2 20  1  0
  2  3  1  0
  3  4  2  0
  4  5  1  0
  4 24  1  0
  5 20  2  0
  5  6  1  0
  6  7  2  0
  6 25  1  0
  7  8  1  0
  7 26  1  0
  8  9  1  0
  8 19  2  0
  9 10  2  0
  9 11  2  0
  9 12  1  0
 12 13  1  0
 13 18  1  0
 13 14  2  0
 14 15  1  0
 14 27  1  0
 15 16  2  0
 15 28  1  0
 16 17  1  0
 16 29  1  0
 17 18  2  0
 17 32  1  0
 18 30  1  0
 19 20  1  0
 19 31  1  0
M  CHG  2  12  -1  17   1
M  END
>  <i_m_ct_stereo_status>  (412) 
1

>  <s_m_source_file>  (412) 
/var/tmp/pbs.5076255.sched01/tmp54n2b71h/144k2pf1zoq.sdf

>  <i_m_source_file_index>  (412) 
32

>  <i_lp_mmshare_version>  (412) 
48012

>  <i_f3d_flags>  (412) 
0

>  <s_epik_input>  (412) 
W2NIXTFubihbQ0gzXSljKGMxMilbY0hdYyhbY0hdW2NIXTIpUyg9TykoPU8pW05IXWMzW2NIXVtjSF1bY0hdbltjSF0z

>  <s_epik_cmdline>  (412) 
J2VwaWtfcHl0aG9uJywgJy1waHQnLCAnMi4wJywgJy1waCcsICc3LjAnLCAnLXRuJywgJzgnLCAnLW1hJywgJzIwMCcsICctaW1hZScsICc8aW5maWxlLm1hZT4nLCAnLW9tYWUnLCAnPG91dGZpbGUubWFlPic=

>  <r_epik_Ionization_Penalty>  (412) 
0.918557

>  <r_epik_Ionization_Penalty_Charging>  (412) 
0.918538

>  <r_epik_Ionization_Penalty_Neutral>  (412) 
1.92414e-05

>  <r_epik_State_Penalty>  (412) 
1.72746

>  <r_epik_Charging_Adjusted_Penalty>  (412) 
2.646

>  <i_epik_Tot_Q>  (412) 
0

>  <i_epik_Tot_abs_Q>  (412) 
2

>  <s_lp_Force_Field>  (412) 
OPLS3e

>  <r_lp_Energy>  (412) 
28.0751

>  <b_lp_Chiralities_Consistent>  (412) 
1

>  <s_lp_Variant>  (412) 
113:0-3

>  <s_i_glide_gridfile>  (412) 
pfpi4k_grid

>  <i_i_glide_lignum>  (412) 
32

>  <i_i_glide_rotatable_bonds>  (412) 
3

>  <r_i_docking_score>  (412) 
-4.15354

>  <r_i_glide_ligand_efficiency>  (412) 
-0.207677

>  <r_i_glide_ligand_efficiency_sa>  (412) 
-0.563722

>  <r_i_glide_ligand_efficiency_ln>  (412) 
-1.03949

>  <r_i_glide_gscore>  (412) 
-4.15354

>  <r_i_glide_lipo>  (412) 
-0.823174

>  <r_i_glide_hbond>  (412) 
-0.0878735

>  <r_i_glide_metal>  (412) 
-0

>  <r_i_glide_rewards>  (412) 
-1.48141

>  <r_i_glide_evdw>  (412) 
-22.8463

>  <r_i_glide_ecoul>  (412) 
-8.29612

>  <r_i_glide_erotb>  (412) 
0.656458

>  <r_i_glide_esite>  (412) 
-0.0308014

>  <r_i_glide_emodel>  (412) 
-42.1161

>  <r_i_glide_energy>  (412) 
-31.1425

>  <r_i_glide_einternal>  (412) 
0.126364

>  <r_i_glide_intrahb_reward>  (412) 
-0

>  <i_i_glide_confnum>  (412) 
1

>  <i_i_glide_posenum>  (412) 
28

>  <r_i_glide_eff_state_penalty>  (412) 
0

>  <ligand_id>  (412) 
113

>  <original_smiles>  (412) 
Cn1ncc2ccc(S(=O)(=O)Nc3cccnc3)cc21

>  <smiles>  (412) 
[H]c1c([H])c([H])[n+]([H])c([H])c1[N-]S(=O)(=O)c1c([H])c([H])c2c([H])nn(C([H])([H])[H])c2c1[H]

$$$$
113:2:1
     RDKit          3D

 32 34  0  0  1  0  0  0  0  0999 V2000
    3.8884   -3.7884   -0.7228 C   0  0  0  0  0  0  0  0  0  0  0  0
    4.5083   -4.6875    0.2356 N   0  0  0  0  0  0  0  0  0  0  0  0
    5.8314   -4.9753    0.0976 N   0  0  0  0  0  0  0  0  0  0  0  0
    6.1244   -5.7906    1.0867 C   0  0  0  0  0  0  0  0  0  0  0  0
    4.9942   -6.0391    1.9217 C   0  0  0  0  0  0  0  0  0  0  0  0
    4.7084   -6.7773    3.0905 C   0  0  0  0  0  0  0  0  0  0  0  0
    3.4280   -6.7616    3.6751 C   0  0  0  0  0  0  0  0  0  0  0  0
    2.3829   -6.0260    3.0646 C   0  0  0  0  0  0  0  0  0  0  0  0
    0.7058   -6.0333    3.7226 S   0  0  0  0  0  0  0  0  0  0  0  0
    0.5616   -4.7904    4.4915 O   0  0  0  0  0  0  0  0  0  0  0  0
   -0.1734   -6.2138    2.5485 O   0  0  0  0  0  0  0  0  0  0  0  0
    0.7643   -7.3437    4.6691 N   0  0  0  0  0  0  0  0  0  0  0  0
    0.8103   -8.6060    4.2264 C   0  0  0  0  0  0  0  0  0  0  0  0
    1.1792   -9.6422    5.1171 C   0  0  0  0  0  0  0  0  0  0  0  0
    1.2663  -10.9797    4.6728 C   0  0  0  0  0  0  0  0  0  0  0  0
    0.9652  -11.2803    3.3280 C   0  0  0  0  0  0  0  0  0  0  0  0
    0.6384  -10.2706    2.4886 N   0  0  0  0  0  0  0  0  0  0  0  0
    0.5668   -8.9861    2.8789 C   0  0  0  0  0  0  0  0  0  0  0  0
    2.6408   -5.2826    1.8965 C   0  0  0  0  0  0  0  0  0  0  0  0
    3.9320   -5.2930    1.3401 C   0  0  0  0  0  0  0  0  0  0  0  0
    2.9863   -4.2579   -1.1174 H   0  0  0  0  0  0  0  0  0  0  0  0
    4.5745   -3.5757   -1.5476 H   0  0  0  0  0  0  0  0  0  0  0  0
    3.6154   -2.8531   -0.2239 H   0  0  0  0  0  0  0  0  0  0  0  0
    7.1301   -6.1664    1.1926 H   0  0  0  0  0  0  0  0  0  0  0  0
    5.4955   -7.3558    3.5447 H   0  0  0  0  0  0  0  0  0  0  0  0
    3.2750   -7.3299    4.5808 H   0  0  0  0  0  0  0  0  0  0  0  0
    1.4309   -9.4144    6.1372 H   0  0  0  0  0  0  0  0  0  0  0  0
    1.5335  -11.7782    5.3512 H   0  0  0  0  0  0  0  0  0  0  0  0
    0.9661  -12.2775    2.8874 H   0  0  0  0  0  0  0  0  0  0  0  0
    0.3403   -8.3294    2.0506 H   0  0  0  0  0  0  0  0  0  0  0  0
    1.8442   -4.7144    1.4426 H   0  0  0  0  0  0  0  0  0  0  0  0
    0.4206  -10.4595    1.5116 H   0  0  0  0  0  0  0  0  0  0  0  0
  1  2  1  0
  1 21  1  0
  1 22  1  0
  1 23  1  0
  2 20  1  0
  2  3  1  0
  3  4  2  0
  4  5  1  0
  4 24  1  0
  5 20  2  0
  5  6  1  0
  6  7  2  0
  6 25  1  0
  7  8  1  0
  7 26  1  0
  8  9  1  0
  8 19  2  0
  9 10  2  0
  9 11  2  0
  9 12  1  0
 12 13  1  0
 13 18  1  0
 13 14  2  0
 14 15  1  0
 14 27  1  0
 15 16  2  0
 15 28  1  0
 16 17  1  0
 16 29  1  0
 17 18  2  0
 17 32  1  0
 18 30  1  0
 19 20  1  0
 19 31  1  0
M  CHG  2  12  -1  17   1
M  END
>  <i_m_ct_stereo_status>  (413) 
1

>  <s_m_source_file>  (413) 
/var/tmp/pbs.5076255.sched01/tmp54n2b71h/144k2pf1zoq.sdf

>  <i_m_source_file_index>  (413) 
32

>  <i_lp_mmshare_version>  (413) 
48012

>  <i_f3d_flags>  (413) 
0

>  <s_epik_input>  (413) 
W2NIXTFubihbQ0gzXSljKGMxMilbY0hdYyhbY0hdW2NIXTIpUyg9TykoPU8pW05IXWMzW2NIXVtjSF1bY0hdbltjSF0z

>  <s_epik_cmdline>  (413) 
J2VwaWtfcHl0aG9uJywgJy1waHQnLCAnMi4wJywgJy1waCcsICc3LjAnLCAnLXRuJywgJzgnLCAnLW1hJywgJzIwMCcsICctaW1hZScsICc8aW5maWxlLm1hZT4nLCAnLW9tYWUnLCAnPG91dGZpbGUubWFlPic=

>  <r_epik_Ionization_Penalty>  (413) 
0.918557

>  <r_epik_Ionization_Penalty_Charging>  (413) 
0.918538

>  <r_epik_Ionization_Penalty_Neutral>  (413) 
1.92414e-05

>  <r_epik_State_Penalty>  (413) 
1.72746

>  <r_epik_Charging_Adjusted_Penalty>  (413) 
2.646

>  <i_epik_Tot_Q>  (413) 
0

>  <i_epik_Tot_abs_Q>  (413) 
2

>  <s_lp_Force_Field>  (413) 
OPLS3e

>  <r_lp_Energy>  (413) 
28.0751

>  <b_lp_Chiralities_Consistent>  (413) 
1

>  <s_lp_Variant>  (413) 
113:0-3

>  <s_i_glide_gridfile>  (413) 
pfpi4k_grid

>  <i_i_glide_lignum>  (413) 
32

>  <i_i_glide_rotatable_bonds>  (413) 
3

>  <r_i_docking_score>  (413) 
-3.70727

>  <r_i_glide_ligand_efficiency>  (413) 
-0.185364

>  <r_i_glide_ligand_efficiency_sa>  (413) 
-0.503154

>  <r_i_glide_ligand_efficiency_ln>  (413) 
-0.927808

>  <r_i_glide_gscore>  (413) 
-3.70727

>  <r_i_glide_lipo>  (413) 
-0.350235

>  <r_i_glide_hbond>  (413) 
0

>  <r_i_glide_metal>  (413) 
-0

>  <r_i_glide_rewards>  (413) 
-1.48293

>  <r_i_glide_evdw>  (413) 
-16.423

>  <r_i_glide_ecoul>  (413) 
-10.4721

>  <r_i_glide_erotb>  (413) 
0.656458

>  <r_i_glide_esite>  (413) 
-0.138596

>  <r_i_glide_emodel>  (413) 
-35.1745

>  <r_i_glide_energy>  (413) 
-26.8951

>  <r_i_glide_einternal>  (413) 
3.14402

>  <r_i_glide_intrahb_reward>  (413) 
-0

>  <i_i_glide_confnum>  (413) 
4

>  <i_i_glide_posenum>  (413) 
39

>  <r_i_glide_eff_state_penalty>  (413) 
0

>  <ligand_id>  (413) 
113

>  <original_smiles>  (413) 
Cn1ncc2ccc(S(=O)(=O)Nc3cccnc3)cc21

>  <smiles>  (413) 
[H]c1c([H])c([H])[n+]([H])c([H])c1[N-]S(=O)(=O)c1c([H])c([H])c2c([H])nn(C([H])([H])[H])c2c1[H]

$$$$
113:2:2
     RDKit          3D

 32 34  0  0  1  0  0  0  0  0999 V2000
    2.1885   -6.1211    0.7927 C   0  0  0  0  0  0  0  0  0  0  0  0
    2.4586   -5.0790    1.7726 N   0  0  0  0  0  0  0  0  0  0  0  0
    1.7205   -5.0124    2.9117 N   0  0  0  0  0  0  0  0  0  0  0  0
    2.2004   -3.9857    3.5807 C   0  0  0  0  0  0  0  0  0  0  0  0
    3.2638   -3.3261    2.8851 C   0  0  0  0  0  0  0  0  0  0  0  0
    4.1381   -2.2232    3.0760 C   0  0  0  0  0  0  0  0  0  0  0  0
    5.1113   -1.8736    2.1087 C   0  0  0  0  0  0  0  0  0  0  0  0
    5.2473   -2.6794    0.9558 C   0  0  0  0  0  0  0  0  0  0  0  0
    6.4862   -2.2393   -0.2713 S   0  0  0  0  0  0  0  0  0  0  0  0
    7.5307   -1.4619    0.4160 O   0  0  0  0  0  0  0  0  0  0  0  0
    6.9035   -3.4723   -0.9493 O   0  0  0  0  0  0  0  0  0  0  0  0
    5.5588   -1.3019   -1.2314 N   0  0  0  0  0  0  0  0  0  0  0  0
    4.6177   -1.7119   -2.0931 C   0  0  0  0  0  0  0  0  0  0  0  0
    3.9805   -0.7714   -2.9343 C   0  0  0  0  0  0  0  0  0  0  0  0
    3.0039   -1.2285   -3.8527 C   0  0  0  0  0  0  0  0  0  0  0  0
    2.5976   -2.5874   -3.8527 C   0  0  0  0  0  0  0  0  0  0  0  0
    3.2303   -3.4554   -3.0370 N   0  0  0  0  0  0  0  0  0  0  0  0
    4.2411   -3.0624   -2.2476 C   0  0  0  0  0  0  0  0  0  0  0  0
    4.4332   -3.8243    0.7912 C   0  0  0  0  0  0  0  0  0  0  0  0
    3.4288   -4.0981    1.7109 C   0  0  0  0  0  0  0  0  0  0  0  0
    2.0343   -5.6906   -0.1984 H   0  0  0  0  0  0  0  0  0  0  0  0
    1.2972   -6.6840    1.0712 H   0  0  0  0  0  0  0  0  0  0  0  0
    3.0318   -6.8107    0.7404 H   0  0  0  0  0  0  0  0  0  0  0  0
    1.7986   -3.7297    4.5474 H   0  0  0  0  0  0  0  0  0  0  0  0
    4.0660   -1.6370    3.9874 H   0  0  0  0  0  0  0  0  0  0  0  0
    5.7795   -1.0275    2.2609 H   0  0  0  0  0  0  0  0  0  0  0  0
    4.2782    0.2740   -2.9143 H   0  0  0  0  0  0  0  0  0  0  0  0
    2.5204   -0.5172   -4.5296 H   0  0  0  0  0  0  0  0  0  0  0  0
    1.8375   -3.0284   -4.4959 H   0  0  0  0  0  0  0  0  0  0  0  0
    4.7373   -3.9042   -1.8052 H   0  0  0  0  0  0  0  0  0  0  0  0
    4.5380   -4.5590    0.0127 H   0  0  0  0  0  0  0  0  0  0  0  0
    2.9802   -4.4503   -3.0220 H   0  0  0  0  0  0  0  0  0  0  0  0
  1  2  1  0
  1 21  1  0
  1 22  1  0
  1 23  1  0
  2 20  1  0
  2  3  1  0
  3  4  2  0
  4  5  1  0
  4 24  1  0
  5 20  2  0
  5  6  1  0
  6  7  2  0
  6 25  1  0
  7  8  1  0
  7 26  1  0
  8  9  1  0
  8 19  2  0
  9 10  2  0
  9 11  2  0
  9 12  1  0
 12 13  1  0
 13 18  1  0
 13 14  2  0
 14 15  1  0
 14 27  1  0
 15 16  2  0
 15 28  1  0
 16 17  1  0
 16 29  1  0
 17 18  2  0
 17 32  1  0
 18 30  1  0
 19 20  1  0
 19 31  1  0
M  CHG  2  12  -1  17   1
M  END
>  <i_m_ct_stereo_status>  (414) 
1

>  <s_m_source_file>  (414) 
/var/tmp/pbs.5076255.sched01/tmp54n2b71h/144k2pf1zoq.sdf

>  <i_m_source_file_index>  (414) 
32

>  <i_lp_mmshare_version>  (414) 
48012

>  <i_f3d_flags>  (414) 
0

>  <s_epik_input>  (414) 
W2NIXTFubihbQ0gzXSljKGMxMilbY0hdYyhbY0hdW2NIXTIpUyg9TykoPU8pW05IXWMzW2NIXVtjSF1bY0hdbltjSF0z

>  <s_epik_cmdline>  (414) 
J2VwaWtfcHl0aG9uJywgJy1waHQnLCAnMi4wJywgJy1waCcsICc3LjAnLCAnLXRuJywgJzgnLCAnLW1hJywgJzIwMCcsICctaW1hZScsICc8aW5maWxlLm1hZT4nLCAnLW9tYWUnLCAnPG91dGZpbGUubWFlPic=

>  <r_epik_Ionization_Penalty>  (414) 
0.918557

>  <r_epik_Ionization_Penalty_Charging>  (414) 
0.918538

>  <r_epik_Ionization_Penalty_Neutral>  (414) 
1.92414e-05

>  <r_epik_State_Penalty>  (414) 
1.72746

>  <r_epik_Charging_Adjusted_Penalty>  (414) 
2.646

>  <i_epik_Tot_Q>  (414) 
0

>  <i_epik_Tot_abs_Q>  (414) 
2

>  <s_lp_Force_Field>  (414) 
OPLS3e

>  <r_lp_Energy>  (414) 
28.0751

>  <b_lp_Chiralities_Consistent>  (414) 
1

>  <s_lp_Variant>  (414) 
113:0-3

>  <s_i_glide_gridfile>  (414) 
pfpi4k_grid

>  <i_i_glide_lignum>  (414) 
32

>  <i_i_glide_rotatable_bonds>  (414) 
3

>  <r_i_docking_score>  (414) 
-3.67404

>  <r_i_glide_ligand_efficiency>  (414) 
-0.183702

>  <r_i_glide_ligand_efficiency_sa>  (414) 
-0.498644

>  <r_i_glide_ligand_efficiency_ln>  (414) 
-0.919491

>  <r_i_glide_gscore>  (414) 
-3.67404

>  <r_i_glide_lipo>  (414) 
-0.577712

>  <r_i_glide_hbond>  (414) 
-0.0242066

>  <r_i_glide_metal>  (414) 
-0

>  <r_i_glide_rewards>  (414) 
-1.44323

>  <r_i_glide_evdw>  (414) 
-24.1226

>  <r_i_glide_ecoul>  (414) 
-6.67792

>  <r_i_glide_erotb>  (414) 
0.656458

>  <r_i_glide_esite>  (414) 
-0.0775298

>  <r_i_glide_emodel>  (414) 
-39.9552

>  <r_i_glide_energy>  (414) 
-30.8005

>  <r_i_glide_einternal>  (414) 
0.12075

>  <r_i_glide_intrahb_reward>  (414) 
-0

>  <i_i_glide_confnum>  (414) 
2

>  <i_i_glide_posenum>  (414) 
24

>  <r_i_glide_eff_state_penalty>  (414) 
0

>  <ligand_id>  (414) 
113

>  <original_smiles>  (414) 
Cn1ncc2ccc(S(=O)(=O)Nc3cccnc3)cc21

>  <smiles>  (414) 
[H]c1c([H])c([H])[n+]([H])c([H])c1[N-]S(=O)(=O)c1c([H])c([H])c2c([H])nn(C([H])([H])[H])c2c1[H]

$$$$
114:0:0
     RDKit          3D

 35 37  0  0  1  0  0  0  0  0999 V2000
    4.9582   -3.9184   -1.9627 C   0  0  0  0  0  0  0  0  0  0  0  0
    3.7993   -3.8336   -1.0379 N   0  0  0  0  0  0  0  0  0  0  0  0
    3.6145   -2.4429   -0.5458 C   0  0  0  0  0  0  0  0  0  0  0  0
    3.8633   -4.8497    0.0484 C   0  0  0  0  0  0  0  0  0  0  0  0
    2.6875   -4.7388    1.0336 C   0  0  0  0  0  0  0  0  0  0  0  0
    2.3339   -6.0131    1.6273 N   0  0  0  0  0  0  0  0  0  0  0  0
    3.0977   -6.7318    2.5624 C   0  0  0  0  0  0  0  0  0  0  0  0
    2.3158   -7.8260    2.7992 C   0  0  0  0  0  0  0  0  0  0  0  0
    1.1540   -7.8772    2.1573 C   0  0  0  0  0  0  0  0  0  0  0  0
    0.4313   -9.0241    2.4789 N   0  0  0  0  0  0  0  0  0  0  0  0
    1.2231   -9.7715    3.3849 C   0  0  0  0  0  0  0  0  0  0  0  0
    1.0973  -10.9933    4.0645 C   0  0  0  0  0  0  0  0  0  0  0  0
    2.0716  -11.4123    4.8986 N   0  0  0  0  0  0  0  0  0  0  0  0
    3.1969  -10.6927    5.1231 C   0  0  0  0  0  0  0  0  0  0  0  0
    3.4039   -9.4527    4.4668 C   0  0  0  0  0  0  0  0  0  0  0  0
    2.4025   -8.9871    3.5838 C   0  0  0  0  0  0  0  0  0  0  0  0
    1.1620   -6.7586    1.4188 C   0  0  0  0  0  0  0  0  0  0  0  0
    0.2141   -6.3403    0.5577 O   0  0  0  0  0  0  0  0  0  0  0  0
   -0.4493   -9.2776    2.0485 H   0  0  0  0  0  0  0  0  0  0  0  0
    5.9047   -3.7673   -1.4385 H   0  0  0  0  0  0  0  0  0  0  0  0
    4.8928   -3.1535   -2.7400 H   0  0  0  0  0  0  0  0  0  0  0  0
    5.0129   -4.8855   -2.4646 H   0  0  0  0  0  0  0  0  0  0  0  0
    4.4639   -2.1451    0.0757 H   0  0  0  0  0  0  0  0  0  0  0  0
    2.7088   -2.3228    0.0480 H   0  0  0  0  0  0  0  0  0  0  0  0
    3.5182   -1.7396   -1.3756 H   0  0  0  0  0  0  0  0  0  0  0  0
    3.8702   -5.8394   -0.4003 H   0  0  0  0  0  0  0  0  0  0  0  0
    4.8032   -4.7581    0.5908 H   0  0  0  0  0  0  0  0  0  0  0  0
    2.9481   -4.0563    1.8407 H   0  0  0  0  0  0  0  0  0  0  0  0
    1.8174   -4.3157    0.5465 H   0  0  0  0  0  0  0  0  0  0  0  0
    4.0580   -6.3932    2.9288 H   0  0  0  0  0  0  0  0  0  0  0  0
    0.2339  -11.6284    3.9916 H   0  0  0  0  0  0  0  0  0  0  0  0
    3.8826  -11.1173    5.8372 H   0  0  0  0  0  0  0  0  0  0  0  0
    4.2989   -8.8713    4.6445 H   0  0  0  0  0  0  0  0  0  0  0  0
    2.9905   -4.0780   -1.6015 H   0  0  0  0  0  0  0  0  0  0  0  0
    1.9304  -12.2732    5.4413 H   0  0  0  0  0  0  0  0  0  0  0  0
  1  2  1  0
  1 20  1  0
  1 21  1  0
  1 22  1  0
  2  3  1  0
  2  4  1  0
  2 34  1  0
  3 23  1  0
  3 24  1  0
  3 25  1  0
  4  5  1  0
  4 26  1  0
  4 27  1  0
  5  6  1  0
  5 28  1  0
  5 29  1  0
  6 17  1  0
  6  7  1  0
  7  8  2  0
  7 30  1  0
  8 16  1  0
  8  9  1  0
  9 10  1  0
  9 17  2  0
 10 19  1  0
 10 11  1  0
 11 16  2  0
 11 12  1  0
 12 13  2  0
 12 31  1  0
 13 14  1  0
 13 35  1  0
 14 15  2  0
 14 32  1  0
 15 16  1  0
 15 33  1  0
 17 18  1  0
M  CHG  3   2   1  13   1  18  -1
M  END
>  <i_m_ct_stereo_status>  (415) 
1

>  <s_m_source_file>  (415) 
/var/tmp/pbs.5076255.sched01/tmp54n2b71h/144k2pf1zoq.sdf

>  <i_m_source_file_index>  (415) 
33

>  <i_lp_mmshare_version>  (415) 
48012

>  <i_f3d_flags>  (415) 
0

>  <s_epik_input>  (415) 
W0NIM11OKFtDSDNdKVtDSDJdW0NIMl1uKFtjSF0xKWMoW09IXSljKGMxMilbbkhdYzNjMltjSF1bY0hdbltjSF0z

>  <s_epik_cmdline>  (415) 
J2VwaWtfcHl0aG9uJywgJy1waHQnLCAnMi4wJywgJy1waCcsICc3LjAnLCAnLXRuJywgJzgnLCAnLW1hJywgJzIwMCcsICctaW1hZScsICc8aW5maWxlLm1hZT4nLCAnLW9tYWUnLCAnPG91dGZpbGUubWFlPic=

>  <r_epik_Ionization_Penalty>  (415) 
0.442567

>  <r_epik_Ionization_Penalty_Charging>  (415) 
0.442567

>  <r_epik_Ionization_Penalty_Neutral>  (415) 
2.28992e-09

>  <r_epik_State_Penalty>  (415) 
0.0143254

>  <r_epik_Charging_Adjusted_Penalty>  (415) 
0.456892

>  <i_epik_Tot_Q>  (415) 
1

>  <i_epik_Tot_abs_Q>  (415) 
3

>  <s_lp_Force_Field>  (415) 
OPLS3e

>  <r_lp_Energy>  (415) 
26.9838

>  <b_lp_Chiralities_Consistent>  (415) 
1

>  <s_lp_Variant>  (415) 
114:0-1

>  <s_i_glide_gridfile>  (415) 
pfpi4k_grid

>  <i_i_glide_lignum>  (415) 
33

>  <i_i_glide_rotatable_bonds>  (415) 
3

>  <r_i_docking_score>  (415) 
-4.5786

>  <r_i_glide_ligand_efficiency>  (415) 
-0.254367

>  <r_i_glide_ligand_efficiency_sa>  (415) 
-0.666629

>  <r_i_glide_ligand_efficiency_ln>  (415) 
-1.17691

>  <r_i_glide_gscore>  (415) 
-4.5786

>  <r_i_glide_lipo>  (415) 
-0.138978

>  <r_i_glide_hbond>  (415) 
-0.265377

>  <r_i_glide_metal>  (415) 
-0

>  <r_i_glide_rewards>  (415) 
-2.56659

>  <r_i_glide_evdw>  (415) 
-17.1614

>  <r_i_glide_ecoul>  (415) 
-5.46115

>  <r_i_glide_erotb>  (415) 
0.202474

>  <r_i_glide_esite>  (415) 
-0.13289

>  <r_i_glide_emodel>  (415) 
-35.339

>  <r_i_glide_energy>  (415) 
-22.6225

>  <r_i_glide_einternal>  (415) 
2.82152

>  <r_i_glide_intrahb_reward>  (415) 
-0

>  <i_i_glide_confnum>  (415) 
1

>  <i_i_glide_posenum>  (415) 
8

>  <r_i_glide_eff_state_penalty>  (415) 
0

>  <ligand_id>  (415) 
114

>  <original_smiles>  (415) 
CN(C)CCn1cc2c([nH]c3cnccc32)c1O

>  <smiles>  (415) 
[H]c1c([H])[n+]([H])c([H])c2c1c1c([H])n(C([H])([H])C([H])([H])[N+]([H])(C([H])([H])[H])C([H])([H])[H])c([O-])c1n2[H]

$$$$
114:0:1
     RDKit          3D

 35 37  0  0  1  0  0  0  0  0999 V2000
    5.1607   -3.3180    2.3504 C   0  0  0  0  0  0  0  0  0  0  0  0
    5.4381   -4.5330    1.5457 N   0  0  0  0  0  0  0  0  0  0  0  0
    6.8809   -4.6796    1.2520 C   0  0  0  0  0  0  0  0  0  0  0  0
    4.6118   -4.6147    0.3148 C   0  0  0  0  0  0  0  0  0  0  0  0
    3.1576   -4.9935    0.6292 C   0  0  0  0  0  0  0  0  0  0  0  0
    3.0419   -6.1495    1.5143 N   0  0  0  0  0  0  0  0  0  0  0  0
    2.2073   -6.2136    2.6533 C   0  0  0  0  0  0  0  0  0  0  0  0
    2.4521   -7.4772    3.1179 C   0  0  0  0  0  0  0  0  0  0  0  0
    3.3023   -8.2130    2.4206 C   0  0  0  0  0  0  0  0  0  0  0  0
    3.5002   -9.4790    2.9491 N   0  0  0  0  0  0  0  0  0  0  0  0
    2.6848   -9.5499    4.1008 C   0  0  0  0  0  0  0  0  0  0  0  0
    2.4152  -10.5178    5.0706 C   0  0  0  0  0  0  0  0  0  0  0  0
    1.5601  -10.2534    6.0812 N   0  0  0  0  0  0  0  0  0  0  0  0
    0.9140   -9.0621    6.1926 C   0  0  0  0  0  0  0  0  0  0  0  0
    1.1334   -8.0316    5.2524 C   0  0  0  0  0  0  0  0  0  0  0  0
    2.0325   -8.2778    4.1885 C   0  0  0  0  0  0  0  0  0  0  0  0
    3.6710   -7.4064    1.4257 C   0  0  0  0  0  0  0  0  0  0  0  0
    4.5501   -7.7229    0.4700 O   0  0  0  0  0  0  0  0  0  0  0  0
    4.1048  -10.1827    2.5394 H   0  0  0  0  0  0  0  0  0  0  0  0
    5.3371   -2.4161    1.7618 H   0  0  0  0  0  0  0  0  0  0  0  0
    5.8020   -3.2728    3.2285 H   0  0  0  0  0  0  0  0  0  0  0  0
    4.1335   -3.3025    2.7029 H   0  0  0  0  0  0  0  0  0  0  0  0
    7.2306   -3.8640    0.6172 H   0  0  0  0  0  0  0  0  0  0  0  0
    7.0832   -5.6198    0.7443 H   0  0  0  0  0  0  0  0  0  0  0  0
    7.4757   -4.6718    2.1614 H   0  0  0  0  0  0  0  0  0  0  0  0
    4.6711   -3.6906   -0.2622 H   0  0  0  0  0  0  0  0  0  0  0  0
    5.0352   -5.3597   -0.3499 H   0  0  0  0  0  0  0  0  0  0  0  0
    2.6482   -4.1514    1.0988 H   0  0  0  0  0  0  0  0  0  0  0  0
    2.6050   -5.1920   -0.2878 H   0  0  0  0  0  0  0  0  0  0  0  0
    1.5803   -5.3989    2.9891 H   0  0  0  0  0  0  0  0  0  0  0  0
    2.8575  -11.5032    5.0858 H   0  0  0  0  0  0  0  0  0  0  0  0
    0.2480   -8.9802    7.0404 H   0  0  0  0  0  0  0  0  0  0  0  0
    0.6304   -7.0822    5.3420 H   0  0  0  0  0  0  0  0  0  0  0  0
    5.1638   -5.3418    2.1006 H   0  0  0  0  0  0  0  0  0  0  0  0
    1.4094  -11.0005    6.7742 H   0  0  0  0  0  0  0  0  0  0  0  0
  1  2  1  0
  1 20  1  0
  1 21  1  0
  1 22  1  0
  2  3  1  0
  2  4  1  0
  2 34  1  0
  3 23  1  0
  3 24  1  0
  3 25  1  0
  4  5  1  0
  4 26  1  0
  4 27  1  0
  5  6  1  0
  5 28  1  0
  5 29  1  0
  6 17  1  0
  6  7  1  0
  7  8  2  0
  7 30  1  0
  8 16  1  0
  8  9  1  0
  9 10  1  0
  9 17  2  0
 10 19  1  0
 10 11  1  0
 11 16  2  0
 11 12  1  0
 12 13  2  0
 12 31  1  0
 13 14  1  0
 13 35  1  0
 14 15  2  0
 14 32  1  0
 15 16  1  0
 15 33  1  0
 17 18  1  0
M  CHG  3   2   1  13   1  18  -1
M  END
>  <i_m_ct_stereo_status>  (416) 
1

>  <s_m_source_file>  (416) 
/var/tmp/pbs.5076255.sched01/tmp54n2b71h/144k2pf1zoq.sdf

>  <i_m_source_file_index>  (416) 
33

>  <i_lp_mmshare_version>  (416) 
48012

>  <i_f3d_flags>  (416) 
0

>  <s_epik_input>  (416) 
W0NIM11OKFtDSDNdKVtDSDJdW0NIMl1uKFtjSF0xKWMoW09IXSljKGMxMilbbkhdYzNjMltjSF1bY0hdbltjSF0z

>  <s_epik_cmdline>  (416) 
J2VwaWtfcHl0aG9uJywgJy1waHQnLCAnMi4wJywgJy1waCcsICc3LjAnLCAnLXRuJywgJzgnLCAnLW1hJywgJzIwMCcsICctaW1hZScsICc8aW5maWxlLm1hZT4nLCAnLW9tYWUnLCAnPG91dGZpbGUubWFlPic=

>  <r_epik_Ionization_Penalty>  (416) 
0.442567

>  <r_epik_Ionization_Penalty_Charging>  (416) 
0.442567

>  <r_epik_Ionization_Penalty_Neutral>  (416) 
2.28992e-09

>  <r_epik_State_Penalty>  (416) 
0.0143254

>  <r_epik_Charging_Adjusted_Penalty>  (416) 
0.456892

>  <i_epik_Tot_Q>  (416) 
1

>  <i_epik_Tot_abs_Q>  (416) 
3

>  <s_lp_Force_Field>  (416) 
OPLS3e

>  <r_lp_Energy>  (416) 
26.9838

>  <b_lp_Chiralities_Consistent>  (416) 
1

>  <s_lp_Variant>  (416) 
114:0-1

>  <s_i_glide_gridfile>  (416) 
pfpi4k_grid

>  <i_i_glide_lignum>  (416) 
33

>  <i_i_glide_rotatable_bonds>  (416) 
3

>  <r_i_docking_score>  (416) 
-3.86747

>  <r_i_glide_ligand_efficiency>  (416) 
-0.214859

>  <r_i_glide_ligand_efficiency_sa>  (416) 
-0.563091

>  <r_i_glide_ligand_efficiency_ln>  (416) 
-0.994113

>  <r_i_glide_gscore>  (416) 
-3.86747

>  <r_i_glide_lipo>  (416) 
-0.266567

>  <r_i_glide_hbond>  (416) 
-0.2

>  <r_i_glide_metal>  (416) 
-0

>  <r_i_glide_rewards>  (416) 
-1.77531

>  <r_i_glide_evdw>  (416) 
-13.6784

>  <r_i_glide_ecoul>  (416) 
-7.40662

>  <r_i_glide_erotb>  (416) 
0.289248

>  <r_i_glide_esite>  (416) 
-0.119927

>  <r_i_glide_emodel>  (416) 
-30.9755

>  <r_i_glide_energy>  (416) 
-21.085

>  <r_i_glide_einternal>  (416) 
4.06511

>  <r_i_glide_intrahb_reward>  (416) 
-0

>  <i_i_glide_confnum>  (416) 
1

>  <i_i_glide_posenum>  (416) 
28

>  <r_i_glide_eff_state_penalty>  (416) 
0

>  <ligand_id>  (416) 
114

>  <original_smiles>  (416) 
CN(C)CCn1cc2c([nH]c3cnccc32)c1O

>  <smiles>  (416) 
[H]c1c([H])[n+]([H])c([H])c2c1c1c([H])n(C([H])([H])C([H])([H])[N+]([H])(C([H])([H])[H])C([H])([H])[H])c([O-])c1n2[H]

$$$$
114:0:2
     RDKit          3D

 35 37  0  0  1  0  0  0  0  0999 V2000
   -6.8159   -5.0760   -3.3886 C   0  0  0  0  0  0  0  0  0  0  0  0
   -5.7564   -4.9571   -4.4005 N   0  0  0  0  0  0  0  0  0  0  0  0
   -5.8562   -3.6643   -5.0492 C   0  0  0  0  0  0  0  0  0  0  0  0
   -5.6366   -6.0510   -5.3957 C   0  0  0  0  0  0  0  0  0  0  0  0
   -5.7390   -7.4554   -4.8200 C   0  0  0  0  0  0  0  0  0  0  0  0
   -6.1500   -8.4161   -5.8313 N   0  0  0  0  0  0  0  0  0  0  0  0
   -7.3332   -8.3291   -6.5966 C   0  0  0  0  0  0  0  0  0  0  0  0
   -7.2764   -9.4569   -7.3433 C   0  0  0  0  0  0  0  0  0  0  0  0
   -6.2314  -10.2516   -7.1456 C   0  0  0  0  0  0  0  0  0  0  0  0
   -6.2501  -11.3696   -7.9705 N   0  0  0  0  0  0  0  0  0  0  0  0
   -7.4086  -11.2579   -8.7777 C   0  0  0  0  0  0  0  0  0  0  0  0
   -8.0035  -12.0150   -9.7981 C   0  0  0  0  0  0  0  0  0  0  0  0
   -9.1556  -11.6037  -10.3780 N   0  0  0  0  0  0  0  0  0  0  0  0
   -9.7823  -10.4585  -10.0088 C   0  0  0  0  0  0  0  0  0  0  0  0
   -9.2423   -9.6371   -8.9876 C   0  0  0  0  0  0  0  0  0  0  0  0
   -8.0415  -10.0438   -8.3605 C   0  0  0  0  0  0  0  0  0  0  0  0
   -5.5392   -9.6264   -6.1947 C   0  0  0  0  0  0  0  0  0  0  0  0
   -4.3977  -10.0328   -5.6030 O   0  0  0  0  0  0  0  0  0  0  0  0
   -5.5409  -12.0905   -7.9604 H   0  0  0  0  0  0  0  0  0  0  0  0
   -7.7819   -5.2116   -3.8861 H   0  0  0  0  0  0  0  0  0  0  0  0
   -6.8641   -4.2062   -2.7374 H   0  0  0  0  0  0  0  0  0  0  0  0
   -6.5892   -5.8896   -2.6979 H   0  0  0  0  0  0  0  0  0  0  0  0
   -6.7948   -3.5999   -5.6029 H   0  0  0  0  0  0  0  0  0  0  0  0
   -5.0233   -3.5169   -5.7361 H   0  0  0  0  0  0  0  0  0  0  0  0
   -5.8335   -2.8704   -4.3052 H   0  0  0  0  0  0  0  0  0  0  0  0
   -6.3953   -5.8961   -6.1666 H   0  0  0  0  0  0  0  0  0  0  0  0
   -4.6678   -5.9921   -5.8877 H   0  0  0  0  0  0  0  0  0  0  0  0
   -4.8116   -7.7645   -4.3200 H   0  0  0  0  0  0  0  0  0  0  0  0
   -6.5348   -7.4449   -4.0947 H   0  0  0  0  0  0  0  0  0  0  0  0
   -8.0396   -7.5173   -6.5188 H   0  0  0  0  0  0  0  0  0  0  0  0
   -7.5911  -12.9385  -10.1652 H   0  0  0  0  0  0  0  0  0  0  0  0
  -10.6989  -10.2344  -10.5363 H   0  0  0  0  0  0  0  0  0  0  0  0
   -9.7449   -8.7242   -8.6916 H   0  0  0  0  0  0  0  0  0  0  0  0
   -4.8932   -4.9186   -3.8933 H   0  0  0  0  0  0  0  0  0  0  0  0
   -9.5692  -12.1770  -11.1137 H   0  0  0  0  0  0  0  0  0  0  0  0
  1  2  1  0
  1 20  1  0
  1 21  1  0
  1 22  1  0
  2  3  1  0
  2  4  1  0
  2 34  1  0
  3 23  1  0
  3 24  1  0
  3 25  1  0
  4  5  1  0
  4 26  1  0
  4 27  1  0
  5  6  1  0
  5 28  1  0
  5 29  1  0
  6 17  1  0
  6  7  1  0
  7  8  2  0
  7 30  1  0
  8 16  1  0
  8  9  1  0
  9 10  1  0
  9 17  2  0
 10 19  1  0
 10 11  1  0
 11 16  2  0
 11 12  1  0
 12 13  2  0
 12 31  1  0
 13 14  1  0
 13 35  1  0
 14 15  2  0
 14 32  1  0
 15 16  1  0
 15 33  1  0
 17 18  1  0
M  CHG  3   2   1  13   1  18  -1
M  END
>  <i_m_ct_stereo_status>  (417) 
1

>  <s_m_source_file>  (417) 
/var/tmp/pbs.5076255.sched01/tmp54n2b71h/144k2pf1zoq.sdf

>  <i_m_source_file_index>  (417) 
33

>  <i_lp_mmshare_version>  (417) 
48012

>  <i_f3d_flags>  (417) 
0

>  <s_epik_input>  (417) 
W0NIM11OKFtDSDNdKVtDSDJdW0NIMl1uKFtjSF0xKWMoW09IXSljKGMxMilbbkhdYzNjMltjSF1bY0hdbltjSF0z

>  <s_epik_cmdline>  (417) 
J2VwaWtfcHl0aG9uJywgJy1waHQnLCAnMi4wJywgJy1waCcsICc3LjAnLCAnLXRuJywgJzgnLCAnLW1hJywgJzIwMCcsICctaW1hZScsICc8aW5maWxlLm1hZT4nLCAnLW9tYWUnLCAnPG91dGZpbGUubWFlPic=

>  <r_epik_Ionization_Penalty>  (417) 
0.442567

>  <r_epik_Ionization_Penalty_Charging>  (417) 
0.442567

>  <r_epik_Ionization_Penalty_Neutral>  (417) 
2.28992e-09

>  <r_epik_State_Penalty>  (417) 
0.0143254

>  <r_epik_Charging_Adjusted_Penalty>  (417) 
0.456892

>  <i_epik_Tot_Q>  (417) 
1

>  <i_epik_Tot_abs_Q>  (417) 
3

>  <s_lp_Force_Field>  (417) 
OPLS3e

>  <r_lp_Energy>  (417) 
26.9838

>  <b_lp_Chiralities_Consistent>  (417) 
1

>  <s_lp_Variant>  (417) 
114:0-1

>  <s_i_glide_gridfile>  (417) 
pfpi4k_grid

>  <i_i_glide_lignum>  (417) 
33

>  <i_i_glide_rotatable_bonds>  (417) 
3

>  <r_i_docking_score>  (417) 
-3.50348

>  <r_i_glide_ligand_efficiency>  (417) 
-0.194638

>  <r_i_glide_ligand_efficiency_sa>  (417) 
-0.510096

>  <r_i_glide_ligand_efficiency_ln>  (417) 
-0.900553

>  <r_i_glide_gscore>  (417) 
-3.50348

>  <r_i_glide_lipo>  (417) 
-1.54552

>  <r_i_glide_hbond>  (417) 
0

>  <r_i_glide_metal>  (417) 
-0

>  <r_i_glide_rewards>  (417) 
-1.48979

>  <r_i_glide_evdw>  (417) 
-13.8711

>  <r_i_glide_ecoul>  (417) 
-0.42573

>  <r_i_glide_erotb>  (417) 
0.289248

>  <r_i_glide_esite>  (417) 
0

>  <r_i_glide_emodel>  (417) 
-23.3237

>  <r_i_glide_energy>  (417) 
-14.2969

>  <r_i_glide_einternal>  (417) 
2.59916

>  <r_i_glide_intrahb_reward>  (417) 
-0

>  <i_i_glide_confnum>  (417) 
2

>  <i_i_glide_posenum>  (417) 
26

>  <r_i_glide_eff_state_penalty>  (417) 
0

>  <ligand_id>  (417) 
114

>  <original_smiles>  (417) 
CN(C)CCn1cc2c([nH]c3cnccc32)c1O

>  <smiles>  (417) 
[H]c1c([H])[n+]([H])c([H])c2c1c1c([H])n(C([H])([H])C([H])([H])[N+]([H])(C([H])([H])[H])C([H])([H])[H])c([O-])c1n2[H]

$$$$
114:1:0
     RDKit          3D

 35 37  0  0  1  0  0  0  0  0999 V2000
    1.3507    1.6464    1.9176 C   0  0  0  0  0  0  0  0  0  0  0  0
    1.3248    0.2355    2.3950 N   0  0  0  0  0  0  0  0  0  0  0  0
    0.0302   -0.0919    3.0275 C   0  0  0  0  0  0  0  0  0  0  0  0
    2.4900   -0.1942    3.2367 C   0  0  0  0  0  0  0  0  0  0  0  0
    3.8691    0.2481    2.6961 C   0  0  0  0  0  0  0  0  0  0  0  0
    4.2560   -0.4886    1.4889 N   0  0  0  0  0  0  0  0  0  0  0  0
    3.4194   -0.7710    0.3895 C   0  0  0  0  0  0  0  0  0  0  0  0
    4.2053   -1.4933   -0.4313 C   0  0  0  0  0  0  0  0  0  0  0  0
    5.4472   -1.6801   -0.0433 C   0  0  0  0  0  0  0  0  0  0  0  0
    6.1626   -2.4443   -0.9517 N   0  0  0  0  0  0  0  0  0  0  0  0
    5.2584   -2.7467   -2.0099 C   0  0  0  0  0  0  0  0  0  0  0  0
    5.3251   -3.4411   -3.2101 C   0  0  0  0  0  0  0  0  0  0  0  0
    4.2724   -3.5398   -4.0575 N   0  0  0  0  0  0  0  0  0  0  0  0
    3.0970   -2.9769   -3.7097 C   0  0  0  0  0  0  0  0  0  0  0  0
    2.9191   -2.2560   -2.5202 C   0  0  0  0  0  0  0  0  0  0  0  0
    4.0257   -2.1343   -1.6552 C   0  0  0  0  0  0  0  0  0  0  0  0
    5.4952   -1.0780    1.1559 C   0  0  0  0  0  0  0  0  0  0  0  0
    6.5489   -1.0359    2.0053 O   0  0  0  0  0  0  0  0  0  0  0  0
    7.1169   -2.7421   -0.8313 H   0  0  0  0  0  0  0  0  0  0  0  0
    1.4123    2.3421    2.7582 H   0  0  0  0  0  0  0  0  0  0  0  0
    0.4755    1.8711    1.3059 H   0  0  0  0  0  0  0  0  0  0  0  0
    2.2019    1.8153    1.2566 H   0  0  0  0  0  0  0  0  0  0  0  0
   -0.1080    0.4886    3.9439 H   0  0  0  0  0  0  0  0  0  0  0  0
   -0.0278   -1.1548    3.2731 H   0  0  0  0  0  0  0  0  0  0  0  0
   -0.7822    0.1549    2.3409 H   0  0  0  0  0  0  0  0  0  0  0  0
    2.3640    0.1880    4.2549 H   0  0  0  0  0  0  0  0  0  0  0  0
    2.4796   -1.2821    3.3125 H   0  0  0  0  0  0  0  0  0  0  0  0
    3.8387    1.3171    2.4913 H   0  0  0  0  0  0  0  0  0  0  0  0
    4.6211    0.1205    3.4793 H   0  0  0  0  0  0  0  0  0  0  0  0
    2.3928   -0.4629    0.2755 H   0  0  0  0  0  0  0  0  0  0  0  0
    6.2561   -3.8581   -3.5346 H   0  0  0  0  0  0  0  0  0  0  0  0
    2.2872   -3.0958   -4.4137 H   0  0  0  0  0  0  0  0  0  0  0  0
    1.9521   -1.8345   -2.3214 H   0  0  0  0  0  0  0  0  0  0  0  0
    6.9536   -0.1819    1.8851 H   0  0  0  0  0  0  0  0  0  0  0  0
    1.3648   -0.3340    1.5425 H   0  0  0  0  0  0  0  0  0  0  0  0
  1  2  1  0
  1 20  1  0
  1 21  1  0
  1 22  1  0
  2  3  1  0
  2  4  1  0
  2 35  1  0
  3 23  1  0
  3 24  1  0
  3 25  1  0
  4  5  1  0
  4 26  1  0
  4 27  1  0
  5  6  1  0
  5 28  1  0
  5 29  1  0
  6 17  1  0
  6  7  1  0
  7  8  2  0
  7 30  1  0
  8 16  1  0
  8  9  1  0
  9 10  1  0
  9 17  2  0
 10 19  1  0
 10 11  1  0
 11 16  2  0
 11 12  1  0
 12 13  2  0
 12 31  1  0
 13 14  1  0
 14 15  2  0
 14 32  1  0
 15 16  1  0
 15 33  1  0
 17 18  1  0
 18 34  1  0
M  CHG  1   2   1
M  END
>  <i_m_ct_stereo_status>  (418) 
1

>  <s_m_source_file>  (418) 
/var/tmp/pbs.5076255.sched01/tmp54n2b71h/144k2pf1zoq.sdf

>  <i_m_source_file_index>  (418) 
34

>  <i_lp_mmshare_version>  (418) 
48012

>  <i_f3d_flags>  (418) 
0

>  <s_epik_input>  (418) 
W0NIM11OKFtDSDNdKVtDSDJdW0NIMl1uKFtjSF0xKWMoW09IXSljKGMxMilbbkhdYzNjMltjSF1bY0hdbltjSF0z

>  <s_epik_cmdline>  (418) 
J2VwaWtfcHl0aG9uJywgJy1waHQnLCAnMi4wJywgJy1waCcsICc3LjAnLCAnLXRuJywgJzgnLCAnLW1hJywgJzIwMCcsICctaW1hZScsICc8aW5maWxlLm1hZT4nLCAnLW9tYWUnLCAnPG91dGZpbGUubWFlPic=

>  <r_epik_Ionization_Penalty>  (418) 
0.484388

>  <r_epik_Ionization_Penalty_Charging>  (418) 
0.0465537

>  <r_epik_Ionization_Penalty_Neutral>  (418) 
0.437835

>  <r_epik_State_Penalty>  (418) 
2.6021

>  <r_epik_Charging_Adjusted_Penalty>  (418) 
2.64865

>  <i_epik_Tot_Q>  (418) 
1

>  <i_epik_Tot_abs_Q>  (418) 
1

>  <s_lp_Force_Field>  (418) 
OPLS3e

>  <r_lp_Energy>  (418) 
26.5692

>  <b_lp_Chiralities_Consistent>  (418) 
1

>  <s_lp_Variant>  (418) 
114:0-2

>  <s_i_glide_gridfile>  (418) 
pfpi4k_grid

>  <i_i_glide_lignum>  (418) 
34

>  <i_i_glide_rotatable_bonds>  (418) 
4

>  <r_i_docking_score>  (418) 
-4.8483

>  <r_i_glide_ligand_efficiency>  (418) 
-0.26935

>  <r_i_glide_ligand_efficiency_sa>  (418) 
-0.705897

>  <r_i_glide_ligand_efficiency_ln>  (418) 
-1.24623

>  <r_i_glide_gscore>  (418) 
-4.8483

>  <r_i_glide_lipo>  (418) 
-0.589783

>  <r_i_glide_hbond>  (418) 
-0.356198

>  <r_i_glide_metal>  (418) 
-0

>  <r_i_glide_rewards>  (418) 
-1.87135

>  <r_i_glide_evdw>  (418) 
-20.7858

>  <r_i_glide_ecoul>  (418) 
-10.0548

>  <r_i_glide_erotb>  (418) 
0.578497

>  <r_i_glide_esite>  (418) 
-0.0619646

>  <r_i_glide_emodel>  (418) 
-39.1045

>  <r_i_glide_energy>  (418) 
-30.8406

>  <r_i_glide_einternal>  (418) 
5.89439

>  <r_i_glide_intrahb_reward>  (418) 
-0

>  <i_i_glide_confnum>  (418) 
2

>  <i_i_glide_posenum>  (418) 
1

>  <r_i_glide_eff_state_penalty>  (418) 
0

>  <ligand_id>  (418) 
114

>  <original_smiles>  (418) 
CN(C)CCn1cc2c([nH]c3cnccc32)c1O

>  <smiles>  (418) 
[H]Oc1c2c(c([H])n1C([H])([H])C([H])([H])[N+]([H])(C([H])([H])[H])C([H])([H])[H])c1c([H])c([H])nc([H])c1n2[H]

$$$$
114:1:1
     RDKit          3D

 35 37  0  0  1  0  0  0  0  0999 V2000
    1.6397    2.8445    2.9480 C   0  0  0  0  0  0  0  0  0  0  0  0
    1.2846    1.5575    2.2722 N   0  0  0  0  0  0  0  0  0  0  0  0
   -0.1906    1.4025    2.1839 C   0  0  0  0  0  0  0  0  0  0  0  0
    1.9056    0.3483    2.9044 C   0  0  0  0  0  0  0  0  0  0  0  0
    3.4548    0.3433    2.8050 C   0  0  0  0  0  0  0  0  0  0  0  0
    3.9828   -0.3959    1.6582 N   0  0  0  0  0  0  0  0  0  0  0  0
    3.2814   -0.7084    0.4810 C   0  0  0  0  0  0  0  0  0  0  0  0
    4.1938   -1.3991   -0.2417 C   0  0  0  0  0  0  0  0  0  0  0  0
    5.4044   -1.5237    0.2865 C   0  0  0  0  0  0  0  0  0  0  0  0
    6.2353   -2.2710   -0.5389 N   0  0  0  0  0  0  0  0  0  0  0  0
    5.4593   -2.6293   -1.6870 C   0  0  0  0  0  0  0  0  0  0  0  0
    5.6545   -3.3398   -2.8667 C   0  0  0  0  0  0  0  0  0  0  0  0
    4.6815   -3.4886   -3.7981 N   0  0  0  0  0  0  0  0  0  0  0  0
    3.4596   -2.9708   -3.5666 C   0  0  0  0  0  0  0  0  0  0  0  0
    3.1442   -2.2455   -2.4154 C   0  0  0  0  0  0  0  0  0  0  0  0
    4.1708   -2.0670   -1.4623 C   0  0  0  0  0  0  0  0  0  0  0  0
    5.2757   -0.8959    1.4818 C   0  0  0  0  0  0  0  0  0  0  0  0
    6.2120   -0.7190    2.4588 O   0  0  0  0  0  0  0  0  0  0  0  0
    7.1841   -2.5388   -0.3100 H   0  0  0  0  0  0  0  0  0  0  0  0
    1.3791    2.7965    4.0166 H   0  0  0  0  0  0  0  0  0  0  0  0
    1.0951    3.6803    2.4931 H   0  0  0  0  0  0  0  0  0  0  0  0
    2.6997    3.1067    2.8602 H   0  0  0  0  0  0  0  0  0  0  0  0
   -0.6332    1.3060    3.1855 H   0  0  0  0  0  0  0  0  0  0  0  0
   -0.4623    0.5175    1.5983 H   0  0  0  0  0  0  0  0  0  0  0  0
   -0.6424    2.2719    1.6966 H   0  0  0  0  0  0  0  0  0  0  0  0
    1.6043    0.2807    3.9596 H   0  0  0  0  0  0  0  0  0  0  0  0
    1.4783   -0.5564    2.4559 H   0  0  0  0  0  0  0  0  0  0  0  0
    3.8397    1.3508    2.7223 H   0  0  0  0  0  0  0  0  0  0  0  0
    3.8715   -0.0608    3.7335 H   0  0  0  0  0  0  0  0  0  0  0  0
    2.2542   -0.4185    0.3126 H   0  0  0  0  0  0  0  0  0  0  0  0
    6.6063   -3.7717   -3.0957 H   0  0  0  0  0  0  0  0  0  0  0  0
    2.7303   -3.1336   -4.3420 H   0  0  0  0  0  0  0  0  0  0  0  0
    2.1530   -1.8410   -2.3084 H   0  0  0  0  0  0  0  0  0  0  0  0
    7.0040   -0.4522    2.0201 H   0  0  0  0  0  0  0  0  0  0  0  0
    1.6022    1.6297    1.3057 H   0  0  0  0  0  0  0  0  0  0  0  0
  1  2  1  0
  1 20  1  0
  1 21  1  0
  1 22  1  0
  2  3  1  0
  2  4  1  0
  2 35  1  0
  3 23  1  0
  3 24  1  0
  3 25  1  0
  4  5  1  0
  4 26  1  0
  4 27  1  0
  5  6  1  0
  5 28  1  0
  5 29  1  0
  6 17  1  0
  6  7  1  0
  7  8  2  0
  7 30  1  0
  8 16  1  0
  8  9  1  0
  9 10  1  0
  9 17  2  0
 10 19  1  0
 10 11  1  0
 11 16  2  0
 11 12  1  0
 12 13  2  0
 12 31  1  0
 13 14  1  0
 14 15  2  0
 14 32  1  0
 15 16  1  0
 15 33  1  0
 17 18  1  0
 18 34  1  0
M  CHG  1   2   1
M  END
>  <i_m_ct_stereo_status>  (419) 
1

>  <s_m_source_file>  (419) 
/var/tmp/pbs.5076255.sched01/tmp54n2b71h/144k2pf1zoq.sdf

>  <i_m_source_file_index>  (419) 
34

>  <i_lp_mmshare_version>  (419) 
48012

>  <i_f3d_flags>  (419) 
0

>  <s_epik_input>  (419) 
W0NIM11OKFtDSDNdKVtDSDJdW0NIMl1uKFtjSF0xKWMoW09IXSljKGMxMilbbkhdYzNjMltjSF1bY0hdbltjSF0z

>  <s_epik_cmdline>  (419) 
J2VwaWtfcHl0aG9uJywgJy1waHQnLCAnMi4wJywgJy1waCcsICc3LjAnLCAnLXRuJywgJzgnLCAnLW1hJywgJzIwMCcsICctaW1hZScsICc8aW5maWxlLm1hZT4nLCAnLW9tYWUnLCAnPG91dGZpbGUubWFlPic=

>  <r_epik_Ionization_Penalty>  (419) 
0.484388

>  <r_epik_Ionization_Penalty_Charging>  (419) 
0.0465537

>  <r_epik_Ionization_Penalty_Neutral>  (419) 
0.437835

>  <r_epik_State_Penalty>  (419) 
2.6021

>  <r_epik_Charging_Adjusted_Penalty>  (419) 
2.64865

>  <i_epik_Tot_Q>  (419) 
1

>  <i_epik_Tot_abs_Q>  (419) 
1

>  <s_lp_Force_Field>  (419) 
OPLS3e

>  <r_lp_Energy>  (419) 
26.5692

>  <b_lp_Chiralities_Consistent>  (419) 
1

>  <s_lp_Variant>  (419) 
114:0-2

>  <s_i_glide_gridfile>  (419) 
pfpi4k_grid

>  <i_i_glide_lignum>  (419) 
34

>  <i_i_glide_rotatable_bonds>  (419) 
4

>  <r_i_docking_score>  (419) 
-4.49993

>  <r_i_glide_ligand_efficiency>  (419) 
-0.249996

>  <r_i_glide_ligand_efficiency_sa>  (419) 
-0.655174

>  <r_i_glide_ligand_efficiency_ln>  (419) 
-1.15668

>  <r_i_glide_gscore>  (419) 
-4.49993

>  <r_i_glide_lipo>  (419) 
-0.646373

>  <r_i_glide_hbond>  (419) 
-0.219444

>  <r_i_glide_metal>  (419) 
-0

>  <r_i_glide_rewards>  (419) 
-1.82642

>  <r_i_glide_evdw>  (419) 
-22.0978

>  <r_i_glide_ecoul>  (419) 
-8.10958

>  <r_i_glide_erotb>  (419) 
0.578497

>  <r_i_glide_esite>  (419) 
-0.0648545

>  <r_i_glide_emodel>  (419) 
-36.8588

>  <r_i_glide_energy>  (419) 
-30.2074

>  <r_i_glide_einternal>  (419) 
6.92356

>  <r_i_glide_intrahb_reward>  (419) 
-0

>  <i_i_glide_confnum>  (419) 
2

>  <i_i_glide_posenum>  (419) 
24

>  <r_i_glide_eff_state_penalty>  (419) 
0

>  <ligand_id>  (419) 
114

>  <original_smiles>  (419) 
CN(C)CCn1cc2c([nH]c3cnccc32)c1O

>  <smiles>  (419) 
[H]Oc1c2c(c([H])n1C([H])([H])C([H])([H])[N+]([H])(C([H])([H])[H])C([H])([H])[H])c1c([H])c([H])nc([H])c1n2[H]

$$$$
114:1:2
     RDKit          3D

 35 37  0  0  1  0  0  0  0  0999 V2000
    2.4020   -3.0369   -3.6199 C   0  0  0  0  0  0  0  0  0  0  0  0
    3.3126   -1.9487   -3.1881 N   0  0  0  0  0  0  0  0  0  0  0  0
    3.2620   -0.7906   -4.1148 C   0  0  0  0  0  0  0  0  0  0  0  0
    4.7056   -2.4164   -2.9346 C   0  0  0  0  0  0  0  0  0  0  0  0
    4.8443   -3.2674   -1.6620 C   0  0  0  0  0  0  0  0  0  0  0  0
    4.6977   -2.4431   -0.4688 N   0  0  0  0  0  0  0  0  0  0  0  0
    3.5361   -1.7701   -0.0647 C   0  0  0  0  0  0  0  0  0  0  0  0
    3.9187   -1.1395    1.0689 C   0  0  0  0  0  0  0  0  0  0  0  0
    5.1640   -1.3613    1.4758 C   0  0  0  0  0  0  0  0  0  0  0  0
    5.4297   -0.6820    2.6653 N   0  0  0  0  0  0  0  0  0  0  0  0
    4.2373    0.0097    3.0201 C   0  0  0  0  0  0  0  0  0  0  0  0
    3.8252    0.8503    4.0630 C   0  0  0  0  0  0  0  0  0  0  0  0
    2.5818    1.3794    4.1081 N   0  0  0  0  0  0  0  0  0  0  0  0
    1.7070    1.1030    3.1210 C   0  0  0  0  0  0  0  0  0  0  0  0
    2.0092    0.2635    2.0323 C   0  0  0  0  0  0  0  0  0  0  0  0
    3.3046   -0.2919    1.9868 C   0  0  0  0  0  0  0  0  0  0  0  0
    5.6617   -2.1659    0.5148 C   0  0  0  0  0  0  0  0  0  0  0  0
    6.9104   -2.6899    0.4003 O   0  0  0  0  0  0  0  0  0  0  0  0
    6.3177   -0.7057    3.1555 H   0  0  0  0  0  0  0  0  0  0  0  0
    2.7506   -3.4918   -4.5458 H   0  0  0  0  0  0  0  0  0  0  0  0
    1.3991   -2.6524   -3.8004 H   0  0  0  0  0  0  0  0  0  0  0  0
    2.3043   -3.8176   -2.8640 H   0  0  0  0  0  0  0  0  0  0  0  0
    3.6430   -1.0522   -5.1018 H   0  0  0  0  0  0  0  0  0  0  0  0
    3.8539    0.0414   -3.7281 H   0  0  0  0  0  0  0  0  0  0  0  0
    2.2405   -0.4308   -4.2425 H   0  0  0  0  0  0  0  0  0  0  0  0
    5.0814   -2.9578   -3.8025 H   0  0  0  0  0  0  0  0  0  0  0  0
    5.3560   -1.5506   -2.8106 H   0  0  0  0  0  0  0  0  0  0  0  0
    4.1204   -4.0747   -1.6075 H   0  0  0  0  0  0  0  0  0  0  0  0
    5.8179   -3.7565   -1.6851 H   0  0  0  0  0  0  0  0  0  0  0  0
    2.6116   -1.7989   -0.5948 H   0  0  0  0  0  0  0  0  0  0  0  0
    4.4908    1.1170    4.8561 H   0  0  0  0  0  0  0  0  0  0  0  0
    0.7374    1.5598    3.2233 H   0  0  0  0  0  0  0  0  0  0  0  0
    1.2686    0.0745    1.2722 H   0  0  0  0  0  0  0  0  0  0  0  0
    7.3495   -2.5491    1.2277 H   0  0  0  0  0  0  0  0  0  0  0  0
    2.9500   -1.5986   -2.3099 H   0  0  0  0  0  0  0  0  0  0  0  0
  1  2  1  0
  1 20  1  0
  1 21  1  0
  1 22  1  0
  2  3  1  0
  2  4  1  0
  2 35  1  0
  3 23  1  0
  3 24  1  0
  3 25  1  0
  4  5  1  0
  4 26  1  0
  4 27  1  0
  5  6  1  0
  5 28  1  0
  5 29  1  0
  6 17  1  0
  6  7  1  0
  7  8  2  0
  7 30  1  0
  8 16  1  0
  8  9  1  0
  9 10  1  0
  9 17  2  0
 10 19  1  0
 10 11  1  0
 11 16  2  0
 11 12  1  0
 12 13  2  0
 12 31  1  0
 13 14  1  0
 14 15  2  0
 14 32  1  0
 15 16  1  0
 15 33  1  0
 17 18  1  0
 18 34  1  0
M  CHG  1   2   1
M  END
>  <i_m_ct_stereo_status>  (420) 
1

>  <s_m_source_file>  (420) 
/var/tmp/pbs.5076255.sched01/tmp54n2b71h/144k2pf1zoq.sdf

>  <i_m_source_file_index>  (420) 
34

>  <i_lp_mmshare_version>  (420) 
48012

>  <i_f3d_flags>  (420) 
0

>  <s_epik_input>  (420) 
W0NIM11OKFtDSDNdKVtDSDJdW0NIMl1uKFtjSF0xKWMoW09IXSljKGMxMilbbkhdYzNjMltjSF1bY0hdbltjSF0z

>  <s_epik_cmdline>  (420) 
J2VwaWtfcHl0aG9uJywgJy1waHQnLCAnMi4wJywgJy1waCcsICc3LjAnLCAnLXRuJywgJzgnLCAnLW1hJywgJzIwMCcsICctaW1hZScsICc8aW5maWxlLm1hZT4nLCAnLW9tYWUnLCAnPG91dGZpbGUubWFlPic=

>  <r_epik_Ionization_Penalty>  (420) 
0.484388

>  <r_epik_Ionization_Penalty_Charging>  (420) 
0.0465537

>  <r_epik_Ionization_Penalty_Neutral>  (420) 
0.437835

>  <r_epik_State_Penalty>  (420) 
2.6021

>  <r_epik_Charging_Adjusted_Penalty>  (420) 
2.64865

>  <i_epik_Tot_Q>  (420) 
1

>  <i_epik_Tot_abs_Q>  (420) 
1

>  <s_lp_Force_Field>  (420) 
OPLS3e

>  <r_lp_Energy>  (420) 
26.5692

>  <b_lp_Chiralities_Consistent>  (420) 
1

>  <s_lp_Variant>  (420) 
114:0-2

>  <s_i_glide_gridfile>  (420) 
pfpi4k_grid

>  <i_i_glide_lignum>  (420) 
34

>  <i_i_glide_rotatable_bonds>  (420) 
4

>  <r_i_docking_score>  (420) 
-3.76141

>  <r_i_glide_ligand_efficiency>  (420) 
-0.208967

>  <r_i_glide_ligand_efficiency_sa>  (420) 
-0.547649

>  <r_i_glide_ligand_efficiency_ln>  (420) 
-0.966852

>  <r_i_glide_gscore>  (420) 
-3.76141

>  <r_i_glide_lipo>  (420) 
-0.769698

>  <r_i_glide_hbond>  (420) 
0

>  <r_i_glide_metal>  (420) 
-0

>  <r_i_glide_rewards>  (420) 
-1.73659

>  <r_i_glide_evdw>  (420) 
-23.5047

>  <r_i_glide_ecoul>  (420) 
-4.31721

>  <r_i_glide_erotb>  (420) 
0.578497

>  <r_i_glide_esite>  (420) 
-0.0108078

>  <r_i_glide_emodel>  (420) 
-35.8913

>  <r_i_glide_energy>  (420) 
-27.8219

>  <r_i_glide_einternal>  (420) 
1.91393

>  <r_i_glide_intrahb_reward>  (420) 
-0

>  <i_i_glide_confnum>  (420) 
2

>  <i_i_glide_posenum>  (420) 
3

>  <r_i_glide_eff_state_penalty>  (420) 
0

>  <ligand_id>  (420) 
114

>  <original_smiles>  (420) 
CN(C)CCn1cc2c([nH]c3cnccc32)c1O

>  <smiles>  (420) 
[H]Oc1c2c(c([H])n1C([H])([H])C([H])([H])[N+]([H])(C([H])([H])[H])C([H])([H])[H])c1c([H])c([H])nc([H])c1n2[H]

$$$$
114:2:0
     RDKit          3D

 36 38  0  0  1  0  0  0  0  0999 V2000
  -11.0117  -11.6023   -8.4981 C   0  0  0  0  0  0  0  0  0  0  0  0
  -11.3005  -10.1569   -8.5546 N   0  0  0  0  0  0  0  0  0  0  0  0
  -12.6951   -9.8647   -8.1798 C   0  0  0  0  0  0  0  0  0  0  0  0
  -10.9404   -9.5462   -9.8559 C   0  0  0  0  0  0  0  0  0  0  0  0
   -9.4119   -9.4541  -10.0653 C   0  0  0  0  0  0  0  0  0  0  0  0
   -8.7762   -8.6476   -9.0258 N   0  0  0  0  0  0  0  0  0  0  0  0
   -9.2517   -7.4102   -8.5585 C   0  0  0  0  0  0  0  0  0  0  0  0
   -8.3305   -7.0908   -7.6122 C   0  0  0  0  0  0  0  0  0  0  0  0
   -7.3347   -7.9368   -7.4205 C   0  0  0  0  0  0  0  0  0  0  0  0
   -6.4641   -7.5283   -6.4304 N   0  0  0  0  0  0  0  0  0  0  0  0
   -6.9723   -6.2959   -5.9314 C   0  0  0  0  0  0  0  0  0  0  0  0
   -6.6001   -5.3648   -4.9543 C   0  0  0  0  0  0  0  0  0  0  0  0
   -7.3511   -4.2621   -4.7271 N   0  0  0  0  0  0  0  0  0  0  0  0
   -8.4843   -3.9964   -5.4346 C   0  0  0  0  0  0  0  0  0  0  0  0
   -8.9230   -4.8861   -6.4421 C   0  0  0  0  0  0  0  0  0  0  0  0
   -8.1573   -6.0489   -6.7061 C   0  0  0  0  0  0  0  0  0  0  0  0
   -7.5997   -8.9055   -8.3158 C   0  0  0  0  0  0  0  0  0  0  0  0
   -6.8797  -10.0226   -8.5390 O   0  0  0  0  0  0  0  0  0  0  0  0
   -5.6309   -8.0323   -6.1355 H   0  0  0  0  0  0  0  0  0  0  0  0
  -11.5452  -12.1433   -9.2778 H   0  0  0  0  0  0  0  0  0  0  0  0
  -11.3102  -12.0227   -7.5409 H   0  0  0  0  0  0  0  0  0  0  0  0
   -9.9512  -11.8113   -8.6123 H   0  0  0  0  0  0  0  0  0  0  0  0
  -13.3935  -10.2923   -8.8963 H   0  0  0  0  0  0  0  0  0  0  0  0
  -12.8818   -8.7944   -8.1309 H   0  0  0  0  0  0  0  0  0  0  0  0
  -12.9344  -10.2697   -7.2001 H   0  0  0  0  0  0  0  0  0  0  0  0
  -11.4037  -10.0763  -10.6865 H   0  0  0  0  0  0  0  0  0  0  0  0
  -11.3565   -8.5448   -9.9144 H   0  0  0  0  0  0  0  0  0  0  0  0
   -8.9651  -10.4510  -10.1144 H   0  0  0  0  0  0  0  0  0  0  0  0
   -9.1911   -8.9882  -11.0302 H   0  0  0  0  0  0  0  0  0  0  0  0
  -10.1386   -6.9026   -8.8950 H   0  0  0  0  0  0  0  0  0  0  0  0
   -5.7233   -5.4580   -4.3350 H   0  0  0  0  0  0  0  0  0  0  0  0
   -9.0035   -3.0844   -5.1667 H   0  0  0  0  0  0  0  0  0  0  0  0
   -9.8363   -4.6684   -6.9804 H   0  0  0  0  0  0  0  0  0  0  0  0
   -7.3147  -10.4882   -9.2356 H   0  0  0  0  0  0  0  0  0  0  0  0
  -10.7281   -9.7144   -7.8518 H   0  0  0  0  0  0  0  0  0  0  0  0
   -7.0498   -3.5947   -4.0101 H   0  0  0  0  0  0  0  0  0  0  0  0
  1  2  1  0
  1 20  1  0
  1 21  1  0
  1 22  1  0
  2  3  1  0
  2  4  1  0
  2 35  1  0
  3 23  1  0
  3 24  1  0
  3 25  1  0
  4  5  1  0
  4 26  1  0
  4 27  1  0
  5  6  1  0
  5 28  1  0
  5 29  1  0
  6 17  1  0
  6  7  1  0
  7  8  2  0
  7 30  1  0
  8 16  1  0
  8  9  1  0
  9 10  1  0
  9 17  2  0
 10 19  1  0
 10 11  1  0
 11 16  2  0
 11 12  1  0
 12 13  2  0
 12 31  1  0
 13 14  1  0
 13 36  1  0
 14 15  2  0
 14 32  1  0
 15 16  1  0
 15 33  1  0
 17 18  1  0
 18 34  1  0
M  CHG  2   2   1  13   1
M  END
>  <i_m_ct_stereo_status>  (421) 
1

>  <s_m_source_file>  (421) 
/var/tmp/pbs.5076255.sched01/tmp54n2b71h/144k2pf1zoq.sdf

>  <i_m_source_file_index>  (421) 
35

>  <i_lp_mmshare_version>  (421) 
48012

>  <i_f3d_flags>  (421) 
0

>  <s_epik_input>  (421) 
W0NIM11OKFtDSDNdKVtDSDJdW0NIMl1uKFtjSF0xKWMoW09IXSljKGMxMilbbkhdYzNjMltjSF1bY0hdbltjSF0z

>  <s_epik_cmdline>  (421) 
J2VwaWtfcHl0aG9uJywgJy1waHQnLCAnMi4wJywgJy1waCcsICc3LjAnLCAnLXRuJywgJzgnLCAnLW1hJywgJzIwMCcsICctaW1hZScsICc8aW5maWxlLm1hZT4nLCAnLW9tYWUnLCAnPG91dGZpbGUubWFlPic=

>  <r_epik_Ionization_Penalty>  (421) 
2.95249

>  <r_epik_Ionization_Penalty_Charging>  (421) 
0.477749

>  <r_epik_Ionization_Penalty_Neutral>  (421) 
2.47474

>  <r_epik_State_Penalty>  (421) 
2.64515

>  <r_epik_Charging_Adjusted_Penalty>  (421) 
3.1229

>  <i_epik_Tot_Q>  (421) 
2

>  <i_epik_Tot_abs_Q>  (421) 
2

>  <s_lp_Force_Field>  (421) 
OPLS3e

>  <r_lp_Energy>  (421) 
34.9344

>  <b_lp_Chiralities_Consistent>  (421) 
1

>  <s_lp_Variant>  (421) 
114:0-3

>  <s_i_glide_gridfile>  (421) 
pfpi4k_grid

>  <i_i_glide_lignum>  (421) 
35

>  <i_i_glide_rotatable_bonds>  (421) 
4

>  <r_i_docking_score>  (421) 
-5.01743

>  <r_i_glide_ligand_efficiency>  (421) 
-0.278746

>  <r_i_glide_ligand_efficiency_sa>  (421) 
-0.730521

>  <r_i_glide_ligand_efficiency_ln>  (421) 
-1.2897

>  <r_i_glide_gscore>  (421) 
-5.01743

>  <r_i_glide_lipo>  (421) 
-1.96297

>  <r_i_glide_hbond>  (421) 
0

>  <r_i_glide_metal>  (421) 
-0

>  <r_i_glide_rewards>  (421) 
-2.04321

>  <r_i_glide_evdw>  (421) 
-23.2603

>  <r_i_glide_ecoul>  (421) 
-2.76063

>  <r_i_glide_erotb>  (421) 
0.574453

>  <r_i_glide_esite>  (421) 
-0.0085923

>  <r_i_glide_emodel>  (421) 
-39.327

>  <r_i_glide_energy>  (421) 
-26.0209

>  <r_i_glide_einternal>  (421) 
2.20502

>  <r_i_glide_intrahb_reward>  (421) 
-0

>  <i_i_glide_confnum>  (421) 
1

>  <i_i_glide_posenum>  (421) 
6

>  <r_i_glide_eff_state_penalty>  (421) 
0

>  <ligand_id>  (421) 
114

>  <original_smiles>  (421) 
CN(C)CCn1cc2c([nH]c3cnccc32)c1O

>  <smiles>  (421) 
[H]Oc1c2c(c([H])n1C([H])([H])C([H])([H])[N+]([H])(C([H])([H])[H])C([H])([H])[H])c1c([H])c([H])[n+]([H])c([H])c1n2[H]

$$$$
114:2:1
     RDKit          3D

 36 38  0  0  1  0  0  0  0  0999 V2000
    1.5848   -3.6138   -1.5514 C   0  0  0  0  0  0  0  0  0  0  0  0
    2.5932   -2.8523   -2.3316 N   0  0  0  0  0  0  0  0  0  0  0  0
    2.2664   -2.9493   -3.7667 C   0  0  0  0  0  0  0  0  0  0  0  0
    4.0307   -3.1644   -2.0511 C   0  0  0  0  0  0  0  0  0  0  0  0
    4.3887   -3.4041   -0.5617 C   0  0  0  0  0  0  0  0  0  0  0  0
    3.9013   -2.3554    0.3184 N   0  0  0  0  0  0  0  0  0  0  0  0
    2.9090   -2.4663    1.3183 C   0  0  0  0  0  0  0  0  0  0  0  0
    2.7340   -1.1834    1.7093 C   0  0  0  0  0  0  0  0  0  0  0  0
    3.5558   -0.2959    1.1775 C   0  0  0  0  0  0  0  0  0  0  0  0
    3.3122    0.9436    1.7142 N   0  0  0  0  0  0  0  0  0  0  0  0
    2.2336    0.8535    2.6187 C   0  0  0  0  0  0  0  0  0  0  0  0
    1.5354    1.7123    3.4860 C   0  0  0  0  0  0  0  0  0  0  0  0
    0.5265    1.2411    4.2466 N   0  0  0  0  0  0  0  0  0  0  0  0
    0.1235   -0.0461    4.2121 C   0  0  0  0  0  0  0  0  0  0  0  0
    0.7738   -0.9845    3.3780 C   0  0  0  0  0  0  0  0  0  0  0  0
    1.8720   -0.5213    2.5780 C   0  0  0  0  0  0  0  0  0  0  0  0
    4.3111   -1.0155    0.3168 C   0  0  0  0  0  0  0  0  0  0  0  0
    5.3096   -0.6484   -0.5225 O   0  0  0  0  0  0  0  0  0  0  0  0
    3.8872    1.7903    1.5233 H   0  0  0  0  0  0  0  0  0  0  0  0
    1.7391   -4.6771   -1.6534 H   0  0  0  0  0  0  0  0  0  0  0  0
    0.5593   -3.3475   -1.8421 H   0  0  0  0  0  0  0  0  0  0  0  0
    1.6570   -3.4091   -0.5103 H   0  0  0  0  0  0  0  0  0  0  0  0
    2.3385   -4.0033   -4.0821 H   0  0  0  0  0  0  0  0  0  0  0  0
    2.9186   -2.3295   -4.3962 H   0  0  0  0  0  0  0  0  0  0  0  0
    1.2253   -2.6460   -3.9312 H   0  0  0  0  0  0  0  0  0  0  0  0
    4.3427   -4.0494   -2.6202 H   0  0  0  0  0  0  0  0  0  0  0  0
    4.6467   -2.3552   -2.4558 H   0  0  0  0  0  0  0  0  0  0  0  0
    3.9534   -4.3414   -0.2314 H   0  0  0  0  0  0  0  0  0  0  0  0
    5.4650   -3.5045   -0.4434 H   0  0  0  0  0  0  0  0  0  0  0  0
    2.4109   -3.3929    1.6086 H   0  0  0  0  0  0  0  0  0  0  0  0
    1.7785    2.7495    3.5968 H   0  0  0  0  0  0  0  0  0  0  0  0
   -0.7012   -0.3058    4.8531 H   0  0  0  0  0  0  0  0  0  0  0  0
    0.4732   -2.0069    3.3383 H   0  0  0  0  0  0  0  0  0  0  0  0
    5.2940    0.3191   -0.5771 H   0  0  0  0  0  0  0  0  0  0  0  0
    2.4555   -1.8720   -2.0460 H   0  0  0  0  0  0  0  0  0  0  0  0
    0.0430    1.8982    4.8728 H   0  0  0  0  0  0  0  0  0  0  0  0
  1  2  1  0
  1 20  1  0
  1 21  1  0
  1 22  1  0
  2  3  1  0
  2  4  1  0
  2 35  1  0
  3 23  1  0
  3 24  1  0
  3 25  1  0
  4  5  1  0
  4 26  1  0
  4 27  1  0
  5  6  1  0
  5 28  1  0
  5 29  1  0
  6 17  1  0
  6  7  1  0
  7  8  2  0
  7 30  1  0
  8 16  1  0
  8  9  1  0
  9 10  1  0
  9 17  2  0
 10 19  1  0
 10 11  1  0
 11 16  2  0
 11 12  1  0
 12 13  2  0
 12 31  1  0
 13 14  1  0
 13 36  1  0
 14 15  2  0
 14 32  1  0
 15 16  1  0
 15 33  1  0
 17 18  1  0
 18 34  1  0
M  CHG  2   2   1  13   1
M  END
>  <i_m_ct_stereo_status>  (422) 
1

>  <s_m_source_file>  (422) 
/var/tmp/pbs.5076255.sched01/tmp54n2b71h/144k2pf1zoq.sdf

>  <i_m_source_file_index>  (422) 
35

>  <i_lp_mmshare_version>  (422) 
48012

>  <i_f3d_flags>  (422) 
0

>  <s_epik_input>  (422) 
W0NIM11OKFtDSDNdKVtDSDJdW0NIMl1uKFtjSF0xKWMoW09IXSljKGMxMilbbkhdYzNjMltjSF1bY0hdbltjSF0z

>  <s_epik_cmdline>  (422) 
J2VwaWtfcHl0aG9uJywgJy1waHQnLCAnMi4wJywgJy1waCcsICc3LjAnLCAnLXRuJywgJzgnLCAnLW1hJywgJzIwMCcsICctaW1hZScsICc8aW5maWxlLm1hZT4nLCAnLW9tYWUnLCAnPG91dGZpbGUubWFlPic=

>  <r_epik_Ionization_Penalty>  (422) 
2.95249

>  <r_epik_Ionization_Penalty_Charging>  (422) 
0.477749

>  <r_epik_Ionization_Penalty_Neutral>  (422) 
2.47474

>  <r_epik_State_Penalty>  (422) 
2.64515

>  <r_epik_Charging_Adjusted_Penalty>  (422) 
3.1229

>  <i_epik_Tot_Q>  (422) 
2

>  <i_epik_Tot_abs_Q>  (422) 
2

>  <s_lp_Force_Field>  (422) 
OPLS3e

>  <r_lp_Energy>  (422) 
34.9344

>  <b_lp_Chiralities_Consistent>  (422) 
1

>  <s_lp_Variant>  (422) 
114:0-3

>  <s_i_glide_gridfile>  (422) 
pfpi4k_grid

>  <i_i_glide_lignum>  (422) 
35

>  <i_i_glide_rotatable_bonds>  (422) 
4

>  <r_i_docking_score>  (422) 
-4.81955

>  <r_i_glide_ligand_efficiency>  (422) 
-0.267753

>  <r_i_glide_ligand_efficiency_sa>  (422) 
-0.701711

>  <r_i_glide_ligand_efficiency_ln>  (422) 
-1.23884

>  <r_i_glide_gscore>  (422) 
-4.81955

>  <r_i_glide_lipo>  (422) 
-0.259909

>  <r_i_glide_hbond>  (422) 
-0.615414

>  <r_i_glide_metal>  (422) 
-0

>  <r_i_glide_rewards>  (422) 
-1.72972

>  <r_i_glide_evdw>  (422) 
-17.7236

>  <r_i_glide_ecoul>  (422) 
-12.3678

>  <r_i_glide_erotb>  (422) 
0.574453

>  <r_i_glide_esite>  (422) 
-0.0476133

>  <r_i_glide_emodel>  (422) 
-41.0768

>  <r_i_glide_energy>  (422) 
-30.0914

>  <r_i_glide_einternal>  (422) 
3.81252

>  <r_i_glide_intrahb_reward>  (422) 
-0

>  <i_i_glide_confnum>  (422) 
2

>  <i_i_glide_posenum>  (422) 
4

>  <r_i_glide_eff_state_penalty>  (422) 
0

>  <ligand_id>  (422) 
114

>  <original_smiles>  (422) 
CN(C)CCn1cc2c([nH]c3cnccc32)c1O

>  <smiles>  (422) 
[H]Oc1c2c(c([H])n1C([H])([H])C([H])([H])[N+]([H])(C([H])([H])[H])C([H])([H])[H])c1c([H])c([H])[n+]([H])c([H])c1n2[H]

$$$$
114:2:2
     RDKit          3D

 36 38  0  0  1  0  0  0  0  0999 V2000
    1.4316   -0.5041    2.2681 C   0  0  0  0  0  0  0  0  0  0  0  0
    1.0259    0.8583    1.8510 N   0  0  0  0  0  0  0  0  0  0  0  0
    2.2127    1.7266    1.6356 C   0  0  0  0  0  0  0  0  0  0  0  0
   -0.0269    1.4382    2.7394 C   0  0  0  0  0  0  0  0  0  0  0  0
    0.4790    2.5697    3.6726 C   0  0  0  0  0  0  0  0  0  0  0  0
   -0.2800    2.6608    4.8859 N   0  0  0  0  0  0  0  0  0  0  0  0
    0.2066    2.2816    6.1513 C   0  0  0  0  0  0  0  0  0  0  0  0
   -0.8518    2.5858    6.9518 C   0  0  0  0  0  0  0  0  0  0  0  0
   -1.9269    3.0905    6.3584 C   0  0  0  0  0  0  0  0  0  0  0  0
   -2.9413    3.3423    7.2750 N   0  0  0  0  0  0  0  0  0  0  0  0
   -2.4474    2.9810    8.5542 C   0  0  0  0  0  0  0  0  0  0  0  0
   -2.9411    2.9911    9.8622 C   0  0  0  0  0  0  0  0  0  0  0  0
   -2.1775    2.5360   10.8735 N   0  0  0  0  0  0  0  0  0  0  0  0
   -0.9231    2.0715   10.6953 C   0  0  0  0  0  0  0  0  0  0  0  0
   -0.3473    2.0252    9.4088 C   0  0  0  0  0  0  0  0  0  0  0  0
   -1.1274    2.4956    8.3250 C   0  0  0  0  0  0  0  0  0  0  0  0
   -1.5761    3.1504    5.0671 C   0  0  0  0  0  0  0  0  0  0  0  0
   -2.2939    3.6194    4.0223 O   0  0  0  0  0  0  0  0  0  0  0  0
   -3.8389    3.7414    7.0105 H   0  0  0  0  0  0  0  0  0  0  0  0
    1.8296   -0.4906    3.2928 H   0  0  0  0  0  0  0  0  0  0  0  0
    2.2093   -0.8928    1.5973 H   0  0  0  0  0  0  0  0  0  0  0  0
    0.5903   -1.2021    2.2329 H   0  0  0  0  0  0  0  0  0  0  0  0
    2.8381    1.8607    2.5311 H   0  0  0  0  0  0  0  0  0  0  0  0
    1.8596    2.7078    1.2754 H   0  0  0  0  0  0  0  0  0  0  0  0
    2.8788    1.2819    0.8807 H   0  0  0  0  0  0  0  0  0  0  0  0
   -0.8261    1.8243    2.1008 H   0  0  0  0  0  0  0  0  0  0  0  0
   -0.5049    0.6377    3.3219 H   0  0  0  0  0  0  0  0  0  0  0  0
    1.4856    2.3757    4.0471 H   0  0  0  0  0  0  0  0  0  0  0  0
    0.4929    3.5329    3.1575 H   0  0  0  0  0  0  0  0  0  0  0  0
    1.1995    1.8823    6.3366 H   0  0  0  0  0  0  0  0  0  0  0  0
   -3.9266    3.3103   10.1143 H   0  0  0  0  0  0  0  0  0  0  0  0
   -0.4594    1.7169   11.5967 H   0  0  0  0  0  0  0  0  0  0  0  0
    0.6472    1.6413    9.2796 H   0  0  0  0  0  0  0  0  0  0  0  0
   -1.7483    3.4607    3.2707 H   0  0  0  0  0  0  0  0  0  0  0  0
    0.5891    0.7276    0.9386 H   0  0  0  0  0  0  0  0  0  0  0  0
   -2.5896    2.4540   11.8366 H   0  0  0  0  0  0  0  0  0  0  0  0
  1  2  1  0
  1 20  1  0
  1 21  1  0
  1 22  1  0
  2  3  1  0
  2  4  1  0
  2 35  1  0
  3 23  1  0
  3 24  1  0
  3 25  1  0
  4  5  1  0
  4 26  1  0
  4 27  1  0
  5  6  1  0
  5 28  1  0
  5 29  1  0
  6 17  1  0
  6  7  1  0
  7  8  2  0
  7 30  1  0
  8 16  1  0
  8  9  1  0
  9 10  1  0
  9 17  2  0
 10 19  1  0
 10 11  1  0
 11 16  2  0
 11 12  1  0
 12 13  2  0
 12 31  1  0
 13 14  1  0
 13 36  1  0
 14 15  2  0
 14 32  1  0
 15 16  1  0
 15 33  1  0
 17 18  1  0
 18 34  1  0
M  CHG  2   2   1  13   1
M  END
>  <i_m_ct_stereo_status>  (423) 
1

>  <s_m_source_file>  (423) 
/var/tmp/pbs.5076255.sched01/tmp54n2b71h/144k2pf1zoq.sdf

>  <i_m_source_file_index>  (423) 
35

>  <i_lp_mmshare_version>  (423) 
48012

>  <i_f3d_flags>  (423) 
0

>  <s_epik_input>  (423) 
W0NIM11OKFtDSDNdKVtDSDJdW0NIMl1uKFtjSF0xKWMoW09IXSljKGMxMilbbkhdYzNjMltjSF1bY0hdbltjSF0z

>  <s_epik_cmdline>  (423) 
J2VwaWtfcHl0aG9uJywgJy1waHQnLCAnMi4wJywgJy1waCcsICc3LjAnLCAnLXRuJywgJzgnLCAnLW1hJywgJzIwMCcsICctaW1hZScsICc8aW5maWxlLm1hZT4nLCAnLW9tYWUnLCAnPG91dGZpbGUubWFlPic=

>  <r_epik_Ionization_Penalty>  (423) 
2.95249

>  <r_epik_Ionization_Penalty_Charging>  (423) 
0.477749

>  <r_epik_Ionization_Penalty_Neutral>  (423) 
2.47474

>  <r_epik_State_Penalty>  (423) 
2.64515

>  <r_epik_Charging_Adjusted_Penalty>  (423) 
3.1229

>  <i_epik_Tot_Q>  (423) 
2

>  <i_epik_Tot_abs_Q>  (423) 
2

>  <s_lp_Force_Field>  (423) 
OPLS3e

>  <r_lp_Energy>  (423) 
34.9344

>  <b_lp_Chiralities_Consistent>  (423) 
1

>  <s_lp_Variant>  (423) 
114:0-3

>  <s_i_glide_gridfile>  (423) 
pfpi4k_grid

>  <i_i_glide_lignum>  (423) 
35

>  <i_i_glide_rotatable_bonds>  (423) 
4

>  <r_i_docking_score>  (423) 
-4.43845

>  <r_i_glide_ligand_efficiency>  (423) 
-0.246581

>  <r_i_glide_ligand_efficiency_sa>  (423) 
-0.646224

>  <r_i_glide_ligand_efficiency_ln>  (423) 
-1.14088

>  <r_i_glide_gscore>  (423) 
-4.43845

>  <r_i_glide_lipo>  (423) 
-0.0878982

>  <r_i_glide_hbond>  (423) 
-0.204243

>  <r_i_glide_metal>  (423) 
-0

>  <r_i_glide_rewards>  (423) 
-1.72972

>  <r_i_glide_evdw>  (423) 
-16.0579

>  <r_i_glide_ecoul>  (423) 
-13.3966

>  <r_i_glide_erotb>  (423) 
0.574453

>  <r_i_glide_esite>  (423) 
-0.178663

>  <r_i_glide_emodel>  (423) 
-38.6905

>  <r_i_glide_energy>  (423) 
-29.4545

>  <r_i_glide_einternal>  (423) 
6.25863

>  <r_i_glide_intrahb_reward>  (423) 
-0

>  <i_i_glide_confnum>  (423) 
6

>  <i_i_glide_posenum>  (423) 
13

>  <r_i_glide_eff_state_penalty>  (423) 
0

>  <ligand_id>  (423) 
114

>  <original_smiles>  (423) 
CN(C)CCn1cc2c([nH]c3cnccc32)c1O

>  <smiles>  (423) 
[H]Oc1c2c(c([H])n1C([H])([H])C([H])([H])[N+]([H])(C([H])([H])[H])C([H])([H])[H])c1c([H])c([H])[n+]([H])c([H])c1n2[H]

$$$$
115:0:0
     RDKit          3D

 57 64  0  0  1  0  0  0  0  0999 V2000
   -1.4660   -7.5760    4.1894 C   0  0  0  0  0  0  0  0  0  0  0  0
   -0.5276   -8.2398    3.2006 C   0  0  0  0  0  0  0  0  0  0  0  0
   -1.0918   -9.4823    2.5378 C   0  0  0  0  0  0  0  0  0  0  0  0
    0.6904   -7.7647    2.9092 C   0  0  0  0  0  0  0  0  0  0  0  0
    1.4278   -6.5549    3.3249 C   0  0  2  0  0  0  0  0  0  0  0  0
    1.6177   -5.6118    2.1992 C   0  0  1  0  0  0  0  0  0  0  0  0
    2.9485   -4.6798    2.4686 C   0  0  1  0  0  0  0  0  0  0  0  0
    3.7003   -5.0700    3.8184 C   0  0  0  0  0  0  0  0  0  0  0  0
    3.8892   -6.6114    3.8768 C   0  0  2  0  0  0  0  0  0  0  0  0
    4.3958   -7.4312    2.7280 C   0  0  2  0  0  0  0  0  0  0  0  0
    4.4191   -6.5078    1.4565 C   0  0  2  0  0  0  0  0  0  0  0  0
    4.0629   -4.9969    1.4224 C   0  0  1  0  0  0  0  0  0  0  0  0
    3.6244   -4.7510    0.0844 O   0  0  0  0  0  0  0  0  0  0  0  0
    3.4899   -3.4030   -0.3312 C   0  0  0  0  0  0  0  0  0  0  0  0
    3.0895   -3.4294   -1.8109 C   0  0  0  0  0  0  0  0  0  0  0  0
    2.8571   -2.0845   -2.3099 N   0  0  0  0  0  0  0  0  0  0  0  0
    3.2458   -1.6475   -3.5142 C   0  0  0  0  0  0  0  0  0  0  0  0
    3.8609   -2.3498   -4.3203 O   0  0  0  0  0  0  0  0  0  0  0  0
    2.9661   -0.1735   -3.8213 C   0  0  0  0  0  0  0  0  0  0  0  0
    1.9511    0.1417   -4.9333 C   0  0  0  0  0  0  0  0  0  0  0  0
    3.1171    0.3052   -5.9086 C   0  0  0  0  0  0  0  0  0  0  0  0
    4.0059    0.5228   -4.6962 C   0  0  0  0  0  0  0  0  0  0  0  0
    3.1599   -7.1464    1.4034 C   0  0  2  0  0  0  0  0  0  0  0  0
    1.8110   -6.8915    1.2743 C   0  0  1  0  0  0  0  0  0  0  0  0
    1.6684   -8.2026    2.0661 N   0  0  0  0  0  0  0  0  0  0  0  0
    2.9869   -8.4043    2.9012 C   0  0  1  0  0  0  0  0  0  0  0  0
    2.8069   -7.0944    2.9925 C   0  0  2  0  0  0  0  0  0  0  0  0
   -1.6904   -8.2860    4.9830 H   0  0  0  0  0  0  0  0  0  0  0  0
   -2.4018   -7.3122    3.7026 H   0  0  0  0  0  0  0  0  0  0  0  0
   -1.0313   -6.6831    4.6305 H   0  0  0  0  0  0  0  0  0  0  0  0
   -1.3155  -10.2454    3.2757 H   0  0  0  0  0  0  0  0  0  0  0  0
   -0.3869   -9.9331    1.8428 H   0  0  0  0  0  0  0  0  0  0  0  0
   -2.0127   -9.2537    2.0014 H   0  0  0  0  0  0  0  0  0  0  0  0
    1.2994   -6.2120    4.3499 H   0  0  0  0  0  0  0  0  0  0  0  0
    0.6928   -5.0556    2.0737 H   0  0  0  0  0  0  0  0  0  0  0  0
    2.6884   -3.6242    2.4647 H   0  0  0  0  0  0  0  0  0  0  0  0
    4.6523   -4.5417    3.9083 H   0  0  0  0  0  0  0  0  0  0  0  0
    3.0985   -4.7227    4.6579 H   0  0  0  0  0  0  0  0  0  0  0  0
    3.9044   -7.1064    4.8552 H   0  0  0  0  0  0  0  0  0  0  0  0
    5.3065   -7.9568    2.9839 H   0  0  0  0  0  0  0  0  0  0  0  0
    5.1279   -6.8363    0.6928 H   0  0  0  0  0  0  0  0  0  0  0  0
    4.9575   -4.4043    1.6285 H   0  0  0  0  0  0  0  0  0  0  0  0
    2.7228   -2.9091    0.2643 H   0  0  0  0  0  0  0  0  0  0  0  0
    4.4312   -2.8645   -0.2023 H   0  0  0  0  0  0  0  0  0  0  0  0
    3.8684   -3.9296   -2.3815 H   0  0  0  0  0  0  0  0  0  0  0  0
    2.1720   -3.9986   -1.9431 H   0  0  0  0  0  0  0  0  0  0  0  0
    2.2788   -1.4807   -1.7314 H   0  0  0  0  0  0  0  0  0  0  0  0
    2.7738    0.3533   -2.9026 H   0  0  0  0  0  0  0  0  0  0  0  0
    1.2508   -0.6549   -5.1349 H   0  0  0  0  0  0  0  0  0  0  0  0
    1.4107    1.0745   -4.7541 H   0  0  0  0  0  0  0  0  0  0  0  0
    3.4221   -0.6034   -6.4214 H   0  0  0  0  0  0  0  0  0  0  0  0
    3.0153    1.1468   -6.5818 H   0  0  0  0  0  0  0  0  0  0  0  0
    4.1357    1.5688   -4.4222 H   0  0  0  0  0  0  0  0  0  0  0  0
    4.9164   -0.0584   -4.7640 H   0  0  0  0  0  0  0  0  0  0  0  0
    3.4021   -8.0510    0.8010 H   0  0  0  0  0  0  0  0  0  0  0  0
    1.4185   -6.8492    0.2577 H   0  0  0  0  0  0  0  0  0  0  0  0
    2.8720   -8.8828    3.8784 H   0  0  0  0  0  0  0  0  0  0  0  0
  1  2  1  0
  1 28  1  0
  1 29  1  0
  1 30  1  0
  2  3  1  0
  2  4  2  3
  3 31  1  0
  3 32  1  0
  3 33  1  0
  4 25  1  0
  4  5  1  0
  5 27  1  0
  5  6  1  0
  5 34  1  1
  6 24  1  0
  6  7  1  0
  6 35  1  6
  7 12  1  0
  7  8  1  0
  7 36  1  1
  8  9  1  0
  8 37  1  0
  8 38  1  0
 27  9  1  1
  9 10  1  0
  9 39  1  1
 10 26  1  0
 10 11  1  0
 10 40  1  1
 11 12  1  0
 11 23  1  0
 11 41  1  6
 12 13  1  0
 12 42  1  1
 13 14  1  0
 14 15  1  0
 14 43  1  0
 14 44  1  0
 15 16  1  0
 15 45  1  0
 15 46  1  0
 16 17  1  0
 16 47  1  0
 17 18  2  0
 17 19  1  0
 19 22  1  0
 19 20  1  0
 19 48  1  0
 20 21  1  0
 20 49  1  0
 20 50  1  0
 21 22  1  0
 21 51  1  0
 21 52  1  0
 22 53  1  0
 22 54  1  0
 23 27  1  0
 23 24  1  0
 23 55  1  6
 24 25  1  0
 24 56  1  6
 25 26  1  0
 26 27  1  0
 26 57  1  1
M  END
>  <i_m_ct_stereo_status>  (424) 
1

>  <s_m_source_file>  (424) 
/var/tmp/pbs.5076255.sched01/tmp54n2b71h/144k2pf1zoq.sdf

>  <i_m_source_file_index>  (424) 
36

>  <i_lp_mmshare_version>  (424) 
48012

>  <i_f3d_flags>  (424) 
0

>  <s_epik_input>  (424) 
W0NAQF0xMjNbQ0BIXTRbQ0BIXTVbQ0BIXTZbQ0gyXVtDQEBIXTFbQ0BASF03W0NAQEhdKFtDQEBIXTJbQ0BIXTVOKFtDQEhdMzcpQzQ9QyhbQ0gzXSlbQ0gzXSlbQ0BIXTZPW0NIMl1bQ0gyXVtOSF1DKD1PKVtDSF04W0NIMl1bQ0gyXVtDSDJdOA==

>  <s_epik_cmdline>  (424) 
J2VwaWtfcHl0aG9uJywgJy1waHQnLCAnMi4wJywgJy1waCcsICc3LjAnLCAnLXRuJywgJzgnLCAnLW1hJywgJzIwMCcsICctaW1hZScsICc8aW5maWxlLm1hZT4nLCAnLW9tYWUnLCAnPG91dGZpbGUubWFlPic=

>  <r_epik_Ionization_Penalty>  (424) 
0.0715511

>  <r_epik_Ionization_Penalty_Charging>  (424) 
1.37382e-09

>  <r_epik_Ionization_Penalty_Neutral>  (424) 
0.0715511

>  <r_epik_State_Penalty>  (424) 
0.185535

>  <r_epik_Charging_Adjusted_Penalty>  (424) 
0.185535

>  <i_epik_Tot_Q>  (424) 
0

>  <i_epik_Tot_abs_Q>  (424) 
0

>  <s_epik_Chemistry_Notes>  (424) 
This compound has an imine and may undergo hydrolysis.

>  <s_lp_Force_Field>  (424) 
OPLS3e

>  <r_lp_Energy>  (424) 
339.136

>  <b_lp_Chiralities_Consistent>  (424) 
1

>  <s_lp_Variant>  (424) 
115:0-1

>  <s_i_glide_gridfile>  (424) 
pfpi4k_grid

>  <i_i_glide_lignum>  (424) 
36

>  <i_i_glide_rotatable_bonds>  (424) 
6

>  <r_i_docking_score>  (424) 
-3.78266

>  <r_i_glide_ligand_efficiency>  (424) 
-0.140099

>  <r_i_glide_ligand_efficiency_sa>  (424) 
-0.420296

>  <r_i_glide_ligand_efficiency_ln>  (424) 
-0.880541

>  <r_i_glide_gscore>  (424) 
-3.78266

>  <r_i_glide_lipo>  (424) 
-0.992694

>  <r_i_glide_hbond>  (424) 
-0.456

>  <r_i_glide_metal>  (424) 
-0

>  <r_i_glide_rewards>  (424) 
-1.23137

>  <r_i_glide_evdw>  (424) 
-19.7595

>  <r_i_glide_ecoul>  (424) 
-4.93583

>  <r_i_glide_erotb>  (424) 
0.716503

>  <r_i_glide_esite>  (424) 
-0.0907515

>  <r_i_glide_emodel>  (424) 
-31.5874

>  <r_i_glide_energy>  (424) 
-24.6954

>  <r_i_glide_einternal>  (424) 
0.848093

>  <r_i_glide_intrahb_reward>  (424) 
-0

>  <i_i_glide_confnum>  (424) 
3

>  <i_i_glide_posenum>  (424) 
20

>  <r_i_glide_eff_state_penalty>  (424) 
0

>  <ligand_id>  (424) 
115

>  <original_smiles>  (424) 
CC(C)=C1C2C3C4CC5C6C(C4OCCNC(=O)C4CCC4)C4C3N1C6C524

>  <smiles>  (424) 
[H]N(C(=O)C1([H])C([H])([H])C([H])([H])C1([H])[H])C([H])([H])C([H])([H])OC1([H])C2([H])C([H])([H])C3([H])C4([H])C5([H])N6C(=C(C([H])([H])[H])C([H])([H])[H])C7([H])C2([H])C6([H])C([H])(C14[H])C753

$$$$
115:0:1
     RDKit          3D

 57 64  0  0  1  0  0  0  0  0999 V2000
   -2.4246    3.3347    6.1325 C   0  0  0  0  0  0  0  0  0  0  0  0
   -1.3380    2.4228    6.6722 C   0  0  0  0  0  0  0  0  0  0  0  0
   -1.6981    1.7017    7.9595 C   0  0  0  0  0  0  0  0  0  0  0  0
   -0.1655    2.2343    6.0571 C   0  0  0  0  0  0  0  0  0  0  0  0
    0.3915    2.7180    4.7758 C   0  0  2  0  0  0  0  0  0  0  0  0
    0.5717    1.6165    3.7967 C   0  0  1  0  0  0  0  0  0  0  0  0
    1.7696    2.0207    2.7407 C   0  0  1  0  0  0  0  0  0  0  0  0
    2.4454    3.4278    3.0796 C   0  0  0  0  0  0  0  0  0  0  0  0
    2.7947    3.4821    4.5873 C   0  0  2  0  0  0  0  0  0  0  0  0
    3.4864    2.3743    5.3295 C   0  0  2  0  0  0  0  0  0  0  0  0
    3.5102    1.1192    4.3903 C   0  0  2  0  0  0  0  0  0  0  0  0
    2.9905    1.0607    2.9374 C   0  0  1  0  0  0  0  0  0  0  0  0
    2.6381   -0.3048    2.7015 O   0  0  0  0  0  0  0  0  0  0  0  0
    2.4936   -0.6847    1.3461 C   0  0  0  0  0  0  0  0  0  0  0  0
    3.8511   -0.8320    0.6311 C   0  0  0  0  0  0  0  0  0  0  0  0
    3.6515   -1.2560   -0.7362 N   0  0  0  0  0  0  0  0  0  0  0  0
    4.6363   -1.5046   -1.6237 C   0  0  0  0  0  0  0  0  0  0  0  0
    5.8289   -1.4507   -1.3388 O   0  0  0  0  0  0  0  0  0  0  0  0
    4.2120   -1.8323   -3.0644 C   0  0  0  0  0  0  0  0  0  0  0  0
    2.8400   -1.2927   -3.5069 C   0  0  0  0  0  0  0  0  0  0  0  0
    2.2325   -2.6595   -3.1358 C   0  0  0  0  0  0  0  0  0  0  0  0
    3.6482   -3.2517   -3.2326 C   0  0  0  0  0  0  0  0  0  0  0  0
    2.3376    0.9484    5.1518 C   0  0  2  0  0  0  0  0  0  0  0  0
    0.9915    0.7036    5.0357 C   0  0  1  0  0  0  0  0  0  0  0  0
    0.9232    1.4744    6.3770 N   0  0  0  0  0  0  0  0  0  0  0  0
    2.1805    2.4121    6.4470 C   0  0  1  0  0  0  0  0  0  0  0  0
    1.8477    2.5041    5.1638 C   0  0  2  0  0  0  0  0  0  0  0  0
   -2.6411    4.1103    6.8647 H   0  0  0  0  0  0  0  0  0  0  0  0
   -3.3393    2.7742    5.9591 H   0  0  0  0  0  0  0  0  0  0  0  0
   -2.1273    3.8027    5.1995 H   0  0  0  0  0  0  0  0  0  0  0  0
   -1.9123    2.4143    8.7594 H   0  0  0  0  0  0  0  0  0  0  0  0
   -0.8955    1.0394    8.2955 H   0  0  0  0  0  0  0  0  0  0  0  0
   -2.5879    1.0972    7.7940 H   0  0  0  0  0  0  0  0  0  0  0  0
    0.1428    3.7332    4.4649 H   0  0  0  0  0  0  0  0  0  0  0  0
   -0.3788    1.3534    3.3234 H   0  0  0  0  0  0  0  0  0  0  0  0
    1.3984    2.0254    1.7172 H   0  0  0  0  0  0  0  0  0  0  0  0
    3.3222    3.6129    2.4561 H   0  0  0  0  0  0  0  0  0  0  0  0
    1.7394    4.2153    2.8044 H   0  0  0  0  0  0  0  0  0  0  0  0
    2.7829    4.4570    5.0914 H   0  0  0  0  0  0  0  0  0  0  0  0
    4.4253    2.7067    5.7469 H   0  0  0  0  0  0  0  0  0  0  0  0
    4.3170    0.4189    4.6177 H   0  0  0  0  0  0  0  0  0  0  0  0
    3.8020    1.3379    2.2714 H   0  0  0  0  0  0  0  0  0  0  0  0
    1.9730   -1.6445    1.3602 H   0  0  0  0  0  0  0  0  0  0  0  0
    1.8237    0.0225    0.8766 H   0  0  0  0  0  0  0  0  0  0  0  0
    4.3879    0.1084    0.5841 H   0  0  0  0  0  0  0  0  0  0  0  0
    4.4677   -1.5564    1.1533 H   0  0  0  0  0  0  0  0  0  0  0  0
    2.7005   -1.2911   -1.0698 H   0  0  0  0  0  0  0  0  0  0  0  0
    5.0109   -1.6062   -3.7837 H   0  0  0  0  0  0  0  0  0  0  0  0
    2.4664   -0.4340   -2.9391 H   0  0  0  0  0  0  0  0  0  0  0  0
    2.7900   -1.0887   -4.5757 H   0  0  0  0  0  0  0  0  0  0  0  0
    1.8389   -2.7023   -2.1200 H   0  0  0  0  0  0  0  0  0  0  0  0
    1.5055   -3.0545   -3.8466 H   0  0  0  0  0  0  0  0  0  0  0  0
    3.8569   -3.6812   -4.2111 H   0  0  0  0  0  0  0  0  0  0  0  0
    3.9153   -3.9463   -2.4319 H   0  0  0  0  0  0  0  0  0  0  0  0
    2.7165    0.3443    6.0076 H   0  0  0  0  0  0  0  0  0  0  0  0
    0.7087   -0.3501    5.0244 H   0  0  0  0  0  0  0  0  0  0  0  0
    2.0359    3.3845    6.9506 H   0  0  0  0  0  0  0  0  0  0  0  0
  1  2  1  0
  1 28  1  0
  1 29  1  0
  1 30  1  0
  2  3  1  0
  2  4  2  3
  3 31  1  0
  3 32  1  0
  3 33  1  0
  4 25  1  0
  4  5  1  0
  5 27  1  0
  5  6  1  0
  5 34  1  6
  6 24  1  0
  6  7  1  0
  6 35  1  6
  7 12  1  0
  7  8  1  0
  7 36  1  6
  8  9  1  0
  8 37  1  0
  8 38  1  0
 27  9  1  6
  9 10  1  0
  9 39  1  1
 10 26  1  0
 10 11  1  0
 10 40  1  1
 11 12  1  0
 11 23  1  0
 11 41  1  6
 12 13  1  0
 12 42  1  6
 13 14  1  0
 14 15  1  0
 14 43  1  0
 14 44  1  0
 15 16  1  0
 15 45  1  0
 15 46  1  0
 16 17  1  0
 16 47  1  0
 17 18  2  0
 17 19  1  0
 19 22  1  0
 19 20  1  0
 19 48  1  0
 20 21  1  0
 20 49  1  0
 20 50  1  0
 21 22  1  0
 21 51  1  0
 21 52  1  0
 22 53  1  0
 22 54  1  0
 23 27  1  0
 23 24  1  0
 23 55  1  1
 24 25  1  0
 24 56  1  1
 25 26  1  0
 26 27  1  0
 26 57  1  1
M  END
>  <i_m_ct_stereo_status>  (425) 
1

>  <s_m_source_file>  (425) 
/var/tmp/pbs.5076255.sched01/tmp54n2b71h/144k2pf1zoq.sdf

>  <i_m_source_file_index>  (425) 
36

>  <i_lp_mmshare_version>  (425) 
48012

>  <i_f3d_flags>  (425) 
0

>  <s_epik_input>  (425) 
W0NAQF0xMjNbQ0BIXTRbQ0BIXTVbQ0BIXTZbQ0gyXVtDQEBIXTFbQ0BASF03W0NAQEhdKFtDQEBIXTJbQ0BIXTVOKFtDQEhdMzcpQzQ9QyhbQ0gzXSlbQ0gzXSlbQ0BIXTZPW0NIMl1bQ0gyXVtOSF1DKD1PKVtDSF04W0NIMl1bQ0gyXVtDSDJdOA==

>  <s_epik_cmdline>  (425) 
J2VwaWtfcHl0aG9uJywgJy1waHQnLCAnMi4wJywgJy1waCcsICc3LjAnLCAnLXRuJywgJzgnLCAnLW1hJywgJzIwMCcsICctaW1hZScsICc8aW5maWxlLm1hZT4nLCAnLW9tYWUnLCAnPG91dGZpbGUubWFlPic=

>  <r_epik_Ionization_Penalty>  (425) 
0.0715511

>  <r_epik_Ionization_Penalty_Charging>  (425) 
1.37382e-09

>  <r_epik_Ionization_Penalty_Neutral>  (425) 
0.0715511

>  <r_epik_State_Penalty>  (425) 
0.185535

>  <r_epik_Charging_Adjusted_Penalty>  (425) 
0.185535

>  <i_epik_Tot_Q>  (425) 
0

>  <i_epik_Tot_abs_Q>  (425) 
0

>  <s_epik_Chemistry_Notes>  (425) 
This compound has an imine and may undergo hydrolysis.

>  <s_lp_Force_Field>  (425) 
OPLS3e

>  <r_lp_Energy>  (425) 
339.136

>  <b_lp_Chiralities_Consistent>  (425) 
1

>  <s_lp_Variant>  (425) 
115:0-1

>  <s_i_glide_gridfile>  (425) 
pfpi4k_grid

>  <i_i_glide_lignum>  (425) 
36

>  <i_i_glide_rotatable_bonds>  (425) 
6

>  <r_i_docking_score>  (425) 
-2.9883

>  <r_i_glide_ligand_efficiency>  (425) 
-0.110678

>  <r_i_glide_ligand_efficiency_sa>  (425) 
-0.332034

>  <r_i_glide_ligand_efficiency_ln>  (425) 
-0.695627

>  <r_i_glide_gscore>  (425) 
-2.9883

>  <r_i_glide_lipo>  (425) 
-0.481428

>  <r_i_glide_hbond>  (425) 
-0.236941

>  <r_i_glide_metal>  (425) 
-0

>  <r_i_glide_rewards>  (425) 
-0.910251

>  <r_i_glide_evdw>  (425) 
-24.0776

>  <r_i_glide_ecoul>  (425) 
-4.9207

>  <r_i_glide_erotb>  (425) 
0.716503

>  <r_i_glide_esite>  (425) 
-0.134197

>  <r_i_glide_emodel>  (425) 
-31.4266

>  <r_i_glide_energy>  (425) 
-28.9983

>  <r_i_glide_einternal>  (425) 
6.38178

>  <r_i_glide_intrahb_reward>  (425) 
-0

>  <i_i_glide_confnum>  (425) 
1

>  <i_i_glide_posenum>  (425) 
10

>  <r_i_glide_eff_state_penalty>  (425) 
0

>  <ligand_id>  (425) 
115

>  <original_smiles>  (425) 
CC(C)=C1C2C3C4CC5C6C(C4OCCNC(=O)C4CCC4)C4C3N1C6C524

>  <smiles>  (425) 
[H]N(C(=O)C1([H])C([H])([H])C([H])([H])C1([H])[H])C([H])([H])C([H])([H])OC1([H])C2([H])C([H])([H])C3([H])C4([H])C5([H])N6C(=C(C([H])([H])[H])C([H])([H])[H])C7([H])C2([H])C6([H])C([H])(C14[H])C753

$$$$
115:0:2
     RDKit          3D

 57 64  0  0  1  0  0  0  0  0999 V2000
   -2.6230    3.4301    5.9483 C   0  0  0  0  0  0  0  0  0  0  0  0
   -1.7242    2.4116    6.6095 C   0  0  0  0  0  0  0  0  0  0  0  0
   -2.3908    1.5806    7.6870 C   0  0  0  0  0  0  0  0  0  0  0  0
   -0.4388    2.2220    6.2650 C   0  0  0  0  0  0  0  0  0  0  0  0
    0.4090    2.8101    5.2201 C   0  0  2  0  0  0  0  0  0  0  0  0
    0.7658    1.8324    4.1721 C   0  0  1  0  0  0  0  0  0  0  0  0
    2.1716    2.2941    3.4821 C   0  0  1  0  0  0  0  0  0  0  0  0
    2.8143    3.5892    4.1271 C   0  0  0  0  0  0  0  0  0  0  0  0
    2.8126    3.4592    5.6771 C   0  0  2  0  0  0  0  0  0  0  0  0
    3.2705    2.2283    6.3950 C   0  0  2  0  0  0  0  0  0  0  0  0
    3.4768    1.0926    5.3363 C   0  0  2  0  0  0  0  0  0  0  0  0
    3.2712    1.2233    3.7839 C   0  0  1  0  0  0  0  0  0  0  0  0
    2.9112   -0.0882    3.3346 O   0  0  0  0  0  0  0  0  0  0  0  0
    2.6273   -0.3013    1.9550 C   0  0  0  0  0  0  0  0  0  0  0  0
    3.8339   -0.8772    1.2115 C   0  0  0  0  0  0  0  0  0  0  0  0
    3.4155   -1.2809   -0.1162 N   0  0  0  0  0  0  0  0  0  0  0  0
    4.2226   -1.4566   -1.1655 C   0  0  0  0  0  0  0  0  0  0  0  0
    5.4347   -1.2412   -1.1278 O   0  0  0  0  0  0  0  0  0  0  0  0
    3.5329   -1.9221   -2.4744 C   0  0  0  0  0  0  0  0  0  0  0  0
    3.7676   -3.4130   -2.7712 C   0  0  0  0  0  0  0  0  0  0  0  0
    4.9197   -3.0207   -3.6926 C   0  0  0  0  0  0  0  0  0  0  0  0
    4.3062   -1.6189   -3.7651 C   0  0  0  0  0  0  0  0  0  0  0  0
    2.1560    0.9107    5.7951 C   0  0  2  0  0  0  0  0  0  0  0  0
    0.8718    0.7528    5.3606 C   0  0  1  0  0  0  0  0  0  0  0  0
    0.5042    1.3677    6.7231 N   0  0  0  0  0  0  0  0  0  0  0  0
    1.7592    2.2221    7.2025 C   0  0  1  0  0  0  0  0  0  0  0  0
    1.7246    2.4788    5.8924 C   0  0  2  0  0  0  0  0  0  0  0  0
   -2.9810    4.1271    6.7022 H   0  0  0  0  0  0  0  0  0  0  0  0
   -3.4871    2.9460    5.5006 H   0  0  0  0  0  0  0  0  0  0  0  0
   -2.1029    3.9828    5.1713 H   0  0  0  0  0  0  0  0  0  0  0  0
   -2.7657    2.2162    8.4936 H   0  0  0  0  0  0  0  0  0  0  0  0
   -1.6871    0.8697    8.1198 H   0  0  0  0  0  0  0  0  0  0  0  0
   -3.2286    1.0378    7.2517 H   0  0  0  0  0  0  0  0  0  0  0  0
    0.2607    3.8717    4.9731 H   0  0  0  0  0  0  0  0  0  0  0  0
   -0.0497    1.6604    3.4687 H   0  0  0  0  0  0  0  0  0  0  0  0
    2.0417    2.5391    2.4169 H   0  0  0  0  0  0  0  0  0  0  0  0
    3.8127    3.7713    3.7316 H   0  0  0  0  0  0  0  0  0  0  0  0
    2.2247    4.4513    3.8024 H   0  0  0  0  0  0  0  0  0  0  0  0
    2.7138    4.3663    6.2756 H   0  0  0  0  0  0  0  0  0  0  0  0
    4.1113    2.4563    7.0556 H   0  0  0  0  0  0  0  0  0  0  0  0
    4.1832    0.3260    5.6480 H   0  0  0  0  0  0  0  0  0  0  0  0
    4.2103    1.4959    3.3169 H   0  0  0  0  0  0  0  0  0  0  0  0
    1.8076   -1.0251    1.9909 H   0  0  0  0  0  0  0  0  0  0  0  0
    2.2438    0.5444    1.4032 H   0  0  0  0  0  0  0  0  0  0  0  0
    4.6108   -0.1205    1.1457 H   0  0  0  0  0  0  0  0  0  0  0  0
    4.2372   -1.7437    1.7316 H   0  0  0  0  0  0  0  0  0  0  0  0
    2.4166   -1.3808   -0.2954 H   0  0  0  0  0  0  0  0  0  0  0  0
    2.4812   -1.6506   -2.5358 H   0  0  0  0  0  0  0  0  0  0  0  0
    4.0494   -4.0447   -1.9286 H   0  0  0  0  0  0  0  0  0  0  0  0
    2.9285   -3.8412   -3.3316 H   0  0  0  0  0  0  0  0  0  0  0  0
    5.8857   -3.0396   -3.1795 H   0  0  0  0  0  0  0  0  0  0  0  0
    4.9384   -3.5806   -4.6186 H   0  0  0  0  0  0  0  0  0  0  0  0
    3.6476   -1.4807   -4.6198 H   0  0  0  0  0  0  0  0  0  0  0  0
    5.0088   -0.7864   -3.6807 H   0  0  0  0  0  0  0  0  0  0  0  0
    2.3132    0.1840    6.6390 H   0  0  0  0  0  0  0  0  0  0  0  0
    0.5624   -0.2782    5.1509 H   0  0  0  0  0  0  0  0  0  0  0  0
    1.5219    3.1413    7.7669 H   0  0  0  0  0  0  0  0  0  0  0  0
  1  2  1  0
  1 28  1  0
  1 29  1  0
  1 30  1  0
  2  3  1  0
  2  4  2  3
  3 31  1  0
  3 32  1  0
  3 33  1  0
  4 25  1  0
  4  5  1  0
  5 27  1  0
  5  6  1  0
  5 34  1  6
  6 24  1  0
  6  7  1  0
  6 35  1  6
  7 12  1  0
  7  8  1  0
  7 36  1  6
  8  9  1  0
  8 37  1  0
  8 38  1  0
 27  9  1  1
  9 10  1  0
  9 39  1  1
 10 26  1  0
 10 11  1  0
 10 40  1  1
 11 12  1  0
 11 23  1  0
 11 41  1  6
 12 13  1  0
 12 42  1  6
 13 14  1  0
 14 15  1  0
 14 43  1  0
 14 44  1  0
 15 16  1  0
 15 45  1  0
 15 46  1  0
 16 17  1  0
 16 47  1  0
 17 18  2  0
 17 19  1  0
 19 22  1  0
 19 20  1  0
 19 48  1  0
 20 21  1  0
 20 49  1  0
 20 50  1  0
 21 22  1  0
 21 51  1  0
 21 52  1  0
 22 53  1  0
 22 54  1  0
 23 27  1  0
 23 24  1  0
 23 55  1  1
 24 25  1  0
 24 56  1  6
 25 26  1  0
 26 27  1  0
 26 57  1  1
M  END
>  <i_m_ct_stereo_status>  (426) 
1

>  <s_m_source_file>  (426) 
/var/tmp/pbs.5076255.sched01/tmp54n2b71h/144k2pf1zoq.sdf

>  <i_m_source_file_index>  (426) 
36

>  <i_lp_mmshare_version>  (426) 
48012

>  <i_f3d_flags>  (426) 
0

>  <s_epik_input>  (426) 
W0NAQF0xMjNbQ0BIXTRbQ0BIXTVbQ0BIXTZbQ0gyXVtDQEBIXTFbQ0BASF03W0NAQEhdKFtDQEBIXTJbQ0BIXTVOKFtDQEhdMzcpQzQ9QyhbQ0gzXSlbQ0gzXSlbQ0BIXTZPW0NIMl1bQ0gyXVtOSF1DKD1PKVtDSF04W0NIMl1bQ0gyXVtDSDJdOA==

>  <s_epik_cmdline>  (426) 
J2VwaWtfcHl0aG9uJywgJy1waHQnLCAnMi4wJywgJy1waCcsICc3LjAnLCAnLXRuJywgJzgnLCAnLW1hJywgJzIwMCcsICctaW1hZScsICc8aW5maWxlLm1hZT4nLCAnLW9tYWUnLCAnPG91dGZpbGUubWFlPic=

>  <r_epik_Ionization_Penalty>  (426) 
0.0715511

>  <r_epik_Ionization_Penalty_Charging>  (426) 
1.37382e-09

>  <r_epik_Ionization_Penalty_Neutral>  (426) 
0.0715511

>  <r_epik_State_Penalty>  (426) 
0.185535

>  <r_epik_Charging_Adjusted_Penalty>  (426) 
0.185535

>  <i_epik_Tot_Q>  (426) 
0

>  <i_epik_Tot_abs_Q>  (426) 
0

>  <s_epik_Chemistry_Notes>  (426) 
This compound has an imine and may undergo hydrolysis.

>  <s_lp_Force_Field>  (426) 
OPLS3e

>  <r_lp_Energy>  (426) 
339.136

>  <b_lp_Chiralities_Consistent>  (426) 
1

>  <s_lp_Variant>  (426) 
115:0-1

>  <s_i_glide_gridfile>  (426) 
pfpi4k_grid

>  <i_i_glide_lignum>  (426) 
36

>  <i_i_glide_rotatable_bonds>  (426) 
6

>  <r_i_docking_score>  (426) 
-2.68212

>  <r_i_glide_ligand_efficiency>  (426) 
-0.0993378

>  <r_i_glide_ligand_efficiency_sa>  (426) 
-0.298013

>  <r_i_glide_ligand_efficiency_ln>  (426) 
-0.624353

>  <r_i_glide_gscore>  (426) 
-2.68212

>  <r_i_glide_lipo>  (426) 
-0.342257

>  <r_i_glide_hbond>  (426) 
-0.16

>  <r_i_glide_metal>  (426) 
-0

>  <r_i_glide_rewards>  (426) 
-0.910251

>  <r_i_glide_evdw>  (426) 
-21.1457

>  <r_i_glide_ecoul>  (426) 
-5.24447

>  <r_i_glide_erotb>  (426) 
0.716503

>  <r_i_glide_esite>  (426) 
-0.142159

>  <r_i_glide_emodel>  (426) 
-29.4223

>  <r_i_glide_energy>  (426) 
-26.3902

>  <r_i_glide_einternal>  (426) 
4.31358

>  <r_i_glide_intrahb_reward>  (426) 
-0

>  <i_i_glide_confnum>  (426) 
1

>  <i_i_glide_posenum>  (426) 
16

>  <r_i_glide_eff_state_penalty>  (426) 
0

>  <ligand_id>  (426) 
115

>  <original_smiles>  (426) 
CC(C)=C1C2C3C4CC5C6C(C4OCCNC(=O)C4CCC4)C4C3N1C6C524

>  <smiles>  (426) 
[H]N(C(=O)C1([H])C([H])([H])C([H])([H])C1([H])[H])C([H])([H])C([H])([H])OC1([H])C2([H])C([H])([H])C3([H])C4([H])C5([H])N6C(=C(C([H])([H])[H])C([H])([H])[H])C7([H])C2([H])C6([H])C([H])(C14[H])C753

$$$$
115:1:0
     RDKit          3D

 58 65  0  0  1  0  0  0  0  0999 V2000
    2.7431   -2.9435    3.0970 C   0  0  0  0  0  0  0  0  0  0  0  0
    2.8043   -1.6737    2.2796 C   0  0  0  0  0  0  0  0  0  0  0  0
    3.5460   -1.7849    0.9635 C   0  0  0  0  0  0  0  0  0  0  0  0
    2.2129   -0.5284    2.6799 C   0  0  0  0  0  0  0  0  0  0  0  0
    1.4237   -0.0520    3.8384 C   0  0  2  0  0  0  0  0  0  0  0  0
    0.0264    0.3326    3.4449 C   0  0  1  0  0  0  0  0  0  0  0  0
   -0.5699    1.3643    4.5735 C   0  0  1  0  0  0  0  0  0  0  0  0
    0.4651    1.6975    5.7234 C   0  0  0  0  0  0  0  0  0  0  0  0
    1.8390    2.0804    5.0806 C   0  0  2  0  0  0  0  0  0  0  0  0
    2.0073    3.0295    3.9387 C   0  0  2  0  0  0  0  0  0  0  0  0
    0.5643    3.3197    3.3753 C   0  0  2  0  0  0  0  0  0  0  0  0
   -0.7676    2.7718    3.9891 C   0  0  1  0  0  0  0  0  0  0  0  0
   -1.8188    2.6283    3.0373 O   0  0  0  0  0  0  0  0  0  0  0  0
   -2.6653    3.7523    2.9326 C   0  0  0  0  0  0  0  0  0  0  0  0
   -3.9299    3.2999    2.1783 C   0  0  0  0  0  0  0  0  0  0  0  0
   -4.9696    4.2919    1.8808 N   0  0  0  0  0  0  0  0  0  0  0  0
   -4.7650    5.5986    1.6869 C   0  0  0  0  0  0  0  0  0  0  0  0
   -3.6795    6.1368    1.8910 O   0  0  0  0  0  0  0  0  0  0  0  0
   -5.9712    6.4167    1.1917 C   0  0  0  0  0  0  0  0  0  0  0  0
   -6.0807    6.4440   -0.3506 C   0  0  0  0  0  0  0  0  0  0  0  0
   -5.3254    7.7786   -0.3447 C   0  0  0  0  0  0  0  0  0  0  0  0
   -5.7283    7.9437    1.1296 C   0  0  0  0  0  0  0  0  0  0  0  0
    1.0402    2.2602    2.5650 C   0  0  2  0  0  0  0  0  0  0  0  0
    0.6408    1.0013    2.1270 C   0  0  1  0  0  0  0  0  0  0  0  0
    2.1838    0.7729    2.0885 N   0  0  1  0  0  0  0  0  0  0  0  0
    2.8904    1.7972    3.1159 C   0  0  1  0  0  0  0  0  0  0  0  0
    1.7929    1.4228    3.7545 C   0  0  2  0  0  0  0  0  0  0  0  0
    3.7508   -3.2768    3.3434 H   0  0  0  0  0  0  0  0  0  0  0  0
    2.2555   -3.7350    2.5283 H   0  0  0  0  0  0  0  0  0  0  0  0
    2.1955   -2.8077    4.0307 H   0  0  0  0  0  0  0  0  0  0  0  0
    3.0662   -2.5386    0.3372 H   0  0  0  0  0  0  0  0  0  0  0  0
    4.5810   -2.0865    1.1317 H   0  0  0  0  0  0  0  0  0  0  0  0
    3.5453   -0.8472    0.4046 H   0  0  0  0  0  0  0  0  0  0  0  0
    1.5841   -0.5574    4.7903 H   0  0  0  0  0  0  0  0  0  0  0  0
   -0.6041   -0.5404    3.2582 H   0  0  0  0  0  0  0  0  0  0  0  0
   -1.5212    1.0148    4.9625 H   0  0  0  0  0  0  0  0  0  0  0  0
    0.1010    2.4972    6.3763 H   0  0  0  0  0  0  0  0  0  0  0  0
    0.5633    0.8205    6.3575 H   0  0  0  0  0  0  0  0  0  0  0  0
    2.7443    1.8625    5.6480 H   0  0  0  0  0  0  0  0  0  0  0  0
    2.6081    3.9014    4.2085 H   0  0  0  0  0  0  0  0  0  0  0  0
    0.5013    4.3143    2.9180 H   0  0  0  0  0  0  0  0  0  0  0  0
   -1.0658    3.4734    4.7732 H   0  0  0  0  0  0  0  0  0  0  0  0
   -2.9608    4.0389    3.9361 H   0  0  0  0  0  0  0  0  0  0  0  0
   -2.1292    4.5820    2.4653 H   0  0  0  0  0  0  0  0  0  0  0  0
   -3.6721    2.7725    1.2658 H   0  0  0  0  0  0  0  0  0  0  0  0
   -4.4049    2.5448    2.7990 H   0  0  0  0  0  0  0  0  0  0  0  0
   -5.8851    3.9340    1.6705 H   0  0  0  0  0  0  0  0  0  0  0  0
   -6.9209    6.1461    1.6763 H   0  0  0  0  0  0  0  0  0  0  0  0
   -5.5535    5.6425   -0.8733 H   0  0  0  0  0  0  0  0  0  0  0  0
   -7.1096    6.5254   -0.7066 H   0  0  0  0  0  0  0  0  0  0  0  0
   -4.2469    7.6518   -0.4819 H   0  0  0  0  0  0  0  0  0  0  0  0
   -5.7180    8.5462   -1.0112 H   0  0  0  0  0  0  0  0  0  0  0  0
   -6.6318    8.5343    1.2750 H   0  0  0  0  0  0  0  0  0  0  0  0
   -4.9262    8.3275    1.7541 H   0  0  0  0  0  0  0  0  0  0  0  0
    1.5070    2.8042    1.6970 H   0  0  0  0  0  0  0  0  0  0  0  0
    0.0866    0.9648    1.1832 H   0  0  0  0  0  0  0  0  0  0  0  0
    3.7938    1.4591    3.6238 H   0  0  0  0  0  0  0  0  0  0  0  0
    2.5796    0.8142    1.1558 H   0  0  0  0  0  0  0  0  0  0  0  0
  1  2  1  0
  1 28  1  0
  1 29  1  0
  1 30  1  0
  2  3  1  0
  2  4  2  3
  3 31  1  0
  3 32  1  0
  3 33  1  0
  4 25  1  0
  4  5  1  0
  5 27  1  0
  5  6  1  0
  5 34  1  1
  6 24  1  0
  6  7  1  0
  6 35  1  6
  7 12  1  0
  7  8  1  0
  7 36  1  1
  8  9  1  0
  8 37  1  0
  8 38  1  0
 27  9  1  1
  9 10  1  0
  9 39  1  1
 10 26  1  0
 10 11  1  0
 10 40  1  1
 11 12  1  0
 11 23  1  0
 11 41  1  6
 12 13  1  0
 12 42  1  1
 13 14  1  0
 14 15  1  0
 14 43  1  0
 14 44  1  0
 15 16  1  0
 15 45  1  0
 15 46  1  0
 16 17  1  0
 16 47  1  0
 17 18  2  0
 17 19  1  0
 19 22  1  0
 19 20  1  0
 19 48  1  0
 20 21  1  0
 20 49  1  0
 20 50  1  0
 21 22  1  0
 21 51  1  0
 21 52  1  0
 22 53  1  0
 22 54  1  0
 23 27  1  0
 23 24  1  0
 23 55  1  6
 24 25  1  0
 24 56  1  6
 25 26  1  0
 25 58  1  6
 26 27  1  0
 26 57  1  1
M  CHG  1  25   1
M  END
>  <i_m_ct_stereo_status>  (427) 
1

>  <s_m_source_file>  (427) 
/var/tmp/pbs.5076255.sched01/tmp54n2b71h/144k2pf1zoq.sdf

>  <i_m_source_file_index>  (427) 
37

>  <i_lp_mmshare_version>  (427) 
48012

>  <i_f3d_flags>  (427) 
0

>  <s_epik_input>  (427) 
W0NAQF0xMjNbQ0BIXTRbQ0BIXTVbQ0BIXTZbQ0gyXVtDQEBIXTFbQ0BASF03W0NAQEhdKFtDQEBIXTJbQ0BIXTVOKFtDQEhdMzcpQzQ9QyhbQ0gzXSlbQ0gzXSlbQ0BIXTZPW0NIMl1bQ0gyXVtOSF1DKD1PKVtDSF04W0NIMl1bQ0gyXVtDSDJdOA==

>  <s_epik_cmdline>  (427) 
J2VwaWtfcHl0aG9uJywgJy1waHQnLCAnMi4wJywgJy1waCcsICc3LjAnLCAnLXRuJywgJzgnLCAnLW1hJywgJzIwMCcsICctaW1hZScsICc8aW5maWxlLm1hZT4nLCAnLW9tYWUnLCAnPG91dGZpbGUubWFlPic=

>  <r_epik_Ionization_Penalty>  (427) 
0.360333

>  <r_epik_Ionization_Penalty_Charging>  (427) 
0.360333

>  <r_epik_Ionization_Penalty_Neutral>  (427) 
1.73006e-08

>  <r_epik_State_Penalty>  (427) 
0.778275

>  <r_epik_Charging_Adjusted_Penalty>  (427) 
1.13861

>  <i_epik_Tot_Q>  (427) 
1

>  <i_epik_Tot_abs_Q>  (427) 
1

>  <s_lp_Force_Field>  (427) 
OPLS3e

>  <r_lp_Energy>  (427) 
325.946

>  <b_lp_Chiralities_Consistent>  (427) 
1

>  <s_lp_Variant>  (427) 
115:0-2

>  <s_i_glide_gridfile>  (427) 
pfpi4k_grid

>  <i_i_glide_lignum>  (427) 
37

>  <i_i_glide_rotatable_bonds>  (427) 
6

>  <r_i_docking_score>  (427) 
-4.37191

>  <r_i_glide_ligand_efficiency>  (427) 
-0.161923

>  <r_i_glide_ligand_efficiency_sa>  (427) 
-0.485768

>  <r_i_glide_ligand_efficiency_ln>  (427) 
-1.01771

>  <r_i_glide_gscore>  (427) 
-4.37191

>  <r_i_glide_lipo>  (427) 
-1.31338

>  <r_i_glide_hbond>  (427) 
-0.33512

>  <r_i_glide_metal>  (427) 
-0

>  <r_i_glide_rewards>  (427) 
-1.05901

>  <r_i_glide_evdw>  (427) 
-27.0132

>  <r_i_glide_ecoul>  (427) 
-6.72389

>  <r_i_glide_erotb>  (427) 
0.712997

>  <r_i_glide_esite>  (427) 
-0.0181595

>  <r_i_glide_emodel>  (427) 
-40.3461

>  <r_i_glide_energy>  (427) 
-33.7371

>  <r_i_glide_einternal>  (427) 
5.138

>  <r_i_glide_intrahb_reward>  (427) 
-0

>  <i_i_glide_confnum>  (427) 
1

>  <i_i_glide_posenum>  (427) 
2

>  <r_i_glide_eff_state_penalty>  (427) 
0

>  <ligand_id>  (427) 
115

>  <original_smiles>  (427) 
CC(C)=C1C2C3C4CC5C6C(C4OCCNC(=O)C4CCC4)C4C3N1C6C524

>  <smiles>  (427) 
[H]N(C(=O)C1([H])C([H])([H])C([H])([H])C1([H])[H])C([H])([H])C([H])([H])OC1([H])C2([H])C([H])([H])C3([H])C4([H])C1([H])C1([H])C35C3([H])C(=C(C([H])([H])[H])C([H])([H])[H])[N+]([H])(C1([H])C32[H])C45[H]

$$$$
115:1:1
     RDKit          3D

 58 65  0  0  1  0  0  0  0  0999 V2000
   -0.9397   -7.9908    4.6113 C   0  0  0  0  0  0  0  0  0  0  0  0
   -0.0437   -8.5567    3.5341 C   0  0  0  0  0  0  0  0  0  0  0  0
   -0.5043   -9.8582    2.9158 C   0  0  0  0  0  0  0  0  0  0  0  0
    1.0854   -7.9328    3.1303 C   0  0  0  0  0  0  0  0  0  0  0  0
    1.7997   -6.6820    3.4387 C   0  0  2  0  0  0  0  0  0  0  0  0
    1.8253   -5.7300    2.2883 C   0  0  1  0  0  0  0  0  0  0  0  0
    3.1004   -4.7042    2.4564 C   0  0  1  0  0  0  0  0  0  0  0  0
    3.9622   -5.0043    3.7584 C   0  0  0  0  0  0  0  0  0  0  0  0
    4.2752   -6.5307    3.8215 C   0  0  2  0  0  0  0  0  0  0  0  0
    4.7760   -7.3214    2.6570 C   0  0  2  0  0  0  0  0  0  0  0  0
    4.6481   -6.4206    1.3736 C   0  0  2  0  0  0  0  0  0  0  0  0
    4.1706   -4.9351    1.3511 C   0  0  1  0  0  0  0  0  0  0  0  0
    3.6366   -4.7398    0.0437 O   0  0  0  0  0  0  0  0  0  0  0  0
    3.3632   -3.4073   -0.3569 C   0  0  0  0  0  0  0  0  0  0  0  0
    2.9456   -3.4533   -1.8317 C   0  0  0  0  0  0  0  0  0  0  0  0
    2.6804   -2.1230   -2.3517 N   0  0  0  0  0  0  0  0  0  0  0  0
    3.1871   -1.6667   -3.5015 C   0  0  0  0  0  0  0  0  0  0  0  0
    3.8820   -2.3542   -4.2561 O   0  0  0  0  0  0  0  0  0  0  0  0
    2.9371   -0.1836   -3.8208 C   0  0  0  0  0  0  0  0  0  0  0  0
    1.9351    0.1453   -4.9305 C   0  0  0  0  0  0  0  0  0  0  0  0
    3.1053    0.3023   -5.9027 C   0  0  0  0  0  0  0  0  0  0  0  0
    3.9961    0.4990   -4.6834 C   0  0  0  0  0  0  0  0  0  0  0  0
    3.4359   -7.1579    1.4009 C   0  0  2  0  0  0  0  0  0  0  0  0
    2.0612   -6.9900    1.3529 C   0  0  1  0  0  0  0  0  0  0  0  0
    2.0777   -8.3065    2.1764 N   0  0  1  0  0  0  0  0  0  0  0  0
    3.4846   -8.4105    2.9311 C   0  0  1  0  0  0  0  0  0  0  0  0
    3.1893   -7.1222    3.0130 C   0  0  2  0  0  0  0  0  0  0  0  0
   -1.0125   -8.7077    5.4305 H   0  0  0  0  0  0  0  0  0  0  0  0
   -1.9453   -7.8255    4.2229 H   0  0  0  0  0  0  0  0  0  0  0  0
   -0.5629   -7.0506    5.0159 H   0  0  0  0  0  0  0  0  0  0  0  0
   -1.4972   -9.7373    2.4774 H   0  0  0  0  0  0  0  0  0  0  0  0
   -0.5683  -10.6299    3.6807 H   0  0  0  0  0  0  0  0  0  0  0  0
    0.1642  -10.2194    2.1331 H   0  0  0  0  0  0  0  0  0  0  0  0
    1.7122   -6.3001    4.4547 H   0  0  0  0  0  0  0  0  0  0  0  0
    0.8609   -5.2437    2.1570 H   0  0  0  0  0  0  0  0  0  0  0  0
    2.7611   -3.6728    2.4611 H   0  0  0  0  0  0  0  0  0  0  0  0
    4.8729   -4.4014    3.7858 H   0  0  0  0  0  0  0  0  0  0  0  0
    3.3912   -4.6971    4.6318 H   0  0  0  0  0  0  0  0  0  0  0  0
    4.4087   -7.0050    4.7973 H   0  0  0  0  0  0  0  0  0  0  0  0
    5.7488   -7.7606    2.8607 H   0  0  0  0  0  0  0  0  0  0  0  0
    5.3383   -6.6999    0.5741 H   0  0  0  0  0  0  0  0  0  0  0  0
    5.0323   -4.2829    1.5084 H   0  0  0  0  0  0  0  0  0  0  0  0
    2.5517   -3.0051    0.2459 H   0  0  0  0  0  0  0  0  0  0  0  0
    4.2409   -2.7696   -0.2311 H   0  0  0  0  0  0  0  0  0  0  0  0
    3.7362   -3.9462   -2.4048 H   0  0  0  0  0  0  0  0  0  0  0  0
    2.0392   -4.0486   -1.9584 H   0  0  0  0  0  0  0  0  0  0  0  0
    2.0606   -1.5271   -1.7943 H   0  0  0  0  0  0  0  0  0  0  0  0
    2.7632    0.3366   -2.8966 H   0  0  0  0  0  0  0  0  0  0  0  0
    1.2298   -0.6591   -5.1209 H   0  0  0  0  0  0  0  0  0  0  0  0
    1.4065    1.0807   -4.7481 H   0  0  0  0  0  0  0  0  0  0  0  0
    3.4041   -0.6076   -6.4192 H   0  0  0  0  0  0  0  0  0  0  0  0
    2.9995    1.1521   -6.5729 H   0  0  0  0  0  0  0  0  0  0  0  0
    4.1399    1.5495   -4.4136 H   0  0  0  0  0  0  0  0  0  0  0  0
    4.9056   -0.0860   -4.7509 H   0  0  0  0  0  0  0  0  0  0  0  0
    3.7082   -8.0516    0.7842 H   0  0  0  0  0  0  0  0  0  0  0  0
    1.5658   -6.9794    0.3875 H   0  0  0  0  0  0  0  0  0  0  0  0
    3.4872   -8.9021    3.9025 H   0  0  0  0  0  0  0  0  0  0  0  0
    1.8467   -9.1293    1.6386 H   0  0  0  0  0  0  0  0  0  0  0  0
  1  2  1  0
  1 28  1  0
  1 29  1  0
  1 30  1  0
  2  3  1  0
  2  4  2  3
  3 31  1  0
  3 32  1  0
  3 33  1  0
  4 25  1  0
  4  5  1  0
  5 27  1  0
  5  6  1  0
  5 34  1  1
  6 24  1  0
  6  7  1  0
  6 35  1  6
  7 12  1  0
  7  8  1  0
  7 36  1  1
  8  9  1  0
  8 37  1  0
  8 38  1  0
 27  9  1  1
  9 10  1  0
  9 39  1  1
 10 26  1  0
 10 11  1  0
 10 40  1  1
 11 12  1  0
 11 23  1  0
 11 41  1  6
 12 13  1  0
 12 42  1  1
 13 14  1  0
 14 15  1  0
 14 43  1  0
 14 44  1  0
 15 16  1  0
 15 45  1  0
 15 46  1  0
 16 17  1  0
 16 47  1  0
 17 18  2  0
 17 19  1  0
 19 22  1  0
 19 20  1  0
 19 48  1  0
 20 21  1  0
 20 49  1  0
 20 50  1  0
 21 22  1  0
 21 51  1  0
 21 52  1  0
 22 53  1  0
 22 54  1  0
 23 27  1  0
 23 24  1  0
 23 55  1  1
 24 25  1  0
 24 56  1  6
 25 26  1  0
 25 58  1  6
 26 27  1  0
 26 57  1  1
M  CHG  1  25   1
M  END
>  <i_m_ct_stereo_status>  (428) 
1

>  <s_m_source_file>  (428) 
/var/tmp/pbs.5076255.sched01/tmp54n2b71h/144k2pf1zoq.sdf

>  <i_m_source_file_index>  (428) 
37

>  <i_lp_mmshare_version>  (428) 
48012

>  <i_f3d_flags>  (428) 
0

>  <s_epik_input>  (428) 
W0NAQF0xMjNbQ0BIXTRbQ0BIXTVbQ0BIXTZbQ0gyXVtDQEBIXTFbQ0BASF03W0NAQEhdKFtDQEBIXTJbQ0BIXTVOKFtDQEhdMzcpQzQ9QyhbQ0gzXSlbQ0gzXSlbQ0BIXTZPW0NIMl1bQ0gyXVtOSF1DKD1PKVtDSF04W0NIMl1bQ0gyXVtDSDJdOA==

>  <s_epik_cmdline>  (428) 
J2VwaWtfcHl0aG9uJywgJy1waHQnLCAnMi4wJywgJy1waCcsICc3LjAnLCAnLXRuJywgJzgnLCAnLW1hJywgJzIwMCcsICctaW1hZScsICc8aW5maWxlLm1hZT4nLCAnLW9tYWUnLCAnPG91dGZpbGUubWFlPic=

>  <r_epik_Ionization_Penalty>  (428) 
0.360333

>  <r_epik_Ionization_Penalty_Charging>  (428) 
0.360333

>  <r_epik_Ionization_Penalty_Neutral>  (428) 
1.73006e-08

>  <r_epik_State_Penalty>  (428) 
0.778275

>  <r_epik_Charging_Adjusted_Penalty>  (428) 
1.13861

>  <i_epik_Tot_Q>  (428) 
1

>  <i_epik_Tot_abs_Q>  (428) 
1

>  <s_lp_Force_Field>  (428) 
OPLS3e

>  <r_lp_Energy>  (428) 
325.946

>  <b_lp_Chiralities_Consistent>  (428) 
1

>  <s_lp_Variant>  (428) 
115:0-2

>  <s_i_glide_gridfile>  (428) 
pfpi4k_grid

>  <i_i_glide_lignum>  (428) 
37

>  <i_i_glide_rotatable_bonds>  (428) 
6

>  <r_i_docking_score>  (428) 
-3.9834

>  <r_i_glide_ligand_efficiency>  (428) 
-0.147533

>  <r_i_glide_ligand_efficiency_sa>  (428) 
-0.4426

>  <r_i_glide_ligand_efficiency_ln>  (428) 
-0.92727

>  <r_i_glide_gscore>  (428) 
-3.9834

>  <r_i_glide_lipo>  (428) 
-0.853229

>  <r_i_glide_hbond>  (428) 
-0.456

>  <r_i_glide_metal>  (428) 
-0

>  <r_i_glide_rewards>  (428) 
-1.21705

>  <r_i_glide_evdw>  (428) 
-18.2709

>  <r_i_glide_ecoul>  (428) 
-7.82207

>  <r_i_glide_erotb>  (428) 
0.712997

>  <r_i_glide_esite>  (428) 
-0.0832676

>  <r_i_glide_emodel>  (428) 
-33.9747

>  <r_i_glide_energy>  (428) 
-26.093

>  <r_i_glide_einternal>  (428) 
1.41076

>  <r_i_glide_intrahb_reward>  (428) 
-0

>  <i_i_glide_confnum>  (428) 
1

>  <i_i_glide_posenum>  (428) 
15

>  <r_i_glide_eff_state_penalty>  (428) 
0

>  <ligand_id>  (428) 
115

>  <original_smiles>  (428) 
CC(C)=C1C2C3C4CC5C6C(C4OCCNC(=O)C4CCC4)C4C3N1C6C524

>  <smiles>  (428) 
[H]N(C(=O)C1([H])C([H])([H])C([H])([H])C1([H])[H])C([H])([H])C([H])([H])OC1([H])C2([H])C([H])([H])C3([H])C4([H])C1([H])C1([H])C35C3([H])C(=C(C([H])([H])[H])C([H])([H])[H])[N+]([H])(C1([H])C32[H])C45[H]

$$$$
115:1:2
     RDKit          3D

 58 65  0  0  1  0  0  0  0  0999 V2000
   -1.3944   -7.8063    4.5278 C   0  0  0  0  0  0  0  0  0  0  0  0
   -0.8266   -8.6419    3.4013 C   0  0  0  0  0  0  0  0  0  0  0  0
   -1.8679   -9.2014    2.4512 C   0  0  0  0  0  0  0  0  0  0  0  0
    0.4782   -8.8665    3.2533 C   0  0  0  0  0  0  0  0  0  0  0  0
    1.7279   -8.4674    3.9434 C   0  0  2  0  0  0  0  0  0  0  0  0
    2.5950   -7.6023    3.0919 C   0  0  1  0  0  0  0  0  0  0  0  0
    4.1498   -7.7207    3.6379 C   0  0  1  0  0  0  0  0  0  0  0  0
    4.3152   -8.7372    4.8447 C   0  0  0  0  0  0  0  0  0  0  0  0
    3.5875  -10.0693    4.5031 C   0  0  2  0  0  0  0  0  0  0  0  0
    3.7310  -10.7875    3.1959 C   0  0  2  0  0  0  0  0  0  0  0  0
    4.4888   -9.8169    2.2127 C   0  0  2  0  0  0  0  0  0  0  0  0
    5.0526   -8.3994    2.5565 C   0  0  1  0  0  0  0  0  0  0  0  0
    5.0344   -7.7104    1.2989 O   0  0  0  0  0  0  0  0  0  0  0  0
    5.2541   -6.3087    1.2785 C   0  0  0  0  0  0  0  0  0  0  0  0
    4.6236   -5.7938   -0.0185 C   0  0  0  0  0  0  0  0  0  0  0  0
    4.3405   -4.3682    0.0416 N   0  0  0  0  0  0  0  0  0  0  0  0
    5.2703   -3.4112    0.1107 C   0  0  0  0  0  0  0  0  0  0  0  0
    6.4760   -3.6524    0.1881 O   0  0  0  0  0  0  0  0  0  0  0  0
    4.7557   -1.9619    0.0769 C   0  0  0  0  0  0  0  0  0  0  0  0
    5.4334   -1.0844   -0.9900 C   0  0  0  0  0  0  0  0  0  0  0  0
    6.3847   -0.5707    0.0976 C   0  0  0  0  0  0  0  0  0  0  0  0
    5.3675   -1.0356    1.1429 C   0  0  0  0  0  0  0  0  0  0  0  0
    3.1190   -9.5612    1.9613 C   0  0  2  0  0  0  0  0  0  0  0  0
    2.2049   -8.5393    1.8679 C   0  0  1  0  0  0  0  0  0  0  0  0
    1.2168   -9.6474    2.3012 N   0  0  1  0  0  0  0  0  0  0  0  0
    2.0233  -10.7789    3.0872 C   0  0  1  0  0  0  0  0  0  0  0  0
    2.5872   -9.6451    3.5008 C   0  0  2  0  0  0  0  0  0  0  0  0
   -2.0574   -8.4498    5.1037 H   0  0  0  0  0  0  0  0  0  0  0  0
   -1.9660   -6.9630    4.1402 H   0  0  0  0  0  0  0  0  0  0  0  0
   -0.6146   -7.4314    5.1917 H   0  0  0  0  0  0  0  0  0  0  0  0
   -2.4296   -8.3870    1.9926 H   0  0  0  0  0  0  0  0  0  0  0  0
   -2.5703   -9.8411    2.9844 H   0  0  0  0  0  0  0  0  0  0  0  0
   -1.4037   -9.7944    1.6638 H   0  0  0  0  0  0  0  0  0  0  0  0
    1.6689   -8.2876    5.0188 H   0  0  0  0  0  0  0  0  0  0  0  0
    2.2230   -6.5784    3.0129 H   0  0  0  0  0  0  0  0  0  0  0  0
    4.5385   -6.7596    3.9803 H   0  0  0  0  0  0  0  0  0  0  0  0
    5.3707   -8.8968    5.0771 H   0  0  0  0  0  0  0  0  0  0  0  0
    3.8884   -8.2711    5.7316 H   0  0  0  0  0  0  0  0  0  0  0  0
    3.1741  -10.6524    5.3314 H   0  0  0  0  0  0  0  0  0  0  0  0
    4.1557  -11.7790    3.3304 H   0  0  0  0  0  0  0  0  0  0  0  0
    5.0109  -10.3247    1.4048 H   0  0  0  0  0  0  0  0  0  0  0  0
    6.0832   -8.4862    2.9112 H   0  0  0  0  0  0  0  0  0  0  0  0
    4.7338   -5.7952    2.0825 H   0  0  0  0  0  0  0  0  0  0  0  0
    6.3191   -6.0803    1.3654 H   0  0  0  0  0  0  0  0  0  0  0  0
    5.2356   -6.0284   -0.8840 H   0  0  0  0  0  0  0  0  0  0  0  0
    3.6653   -6.2869   -0.1659 H   0  0  0  0  0  0  0  0  0  0  0  0
    3.3780   -4.0802   -0.0400 H   0  0  0  0  0  0  0  0  0  0  0  0
    3.6647   -1.8981    0.0384 H   0  0  0  0  0  0  0  0  0  0  0  0
    5.9184   -1.6249   -1.8059 H   0  0  0  0  0  0  0  0  0  0  0  0
    4.7653   -0.3114   -1.3739 H   0  0  0  0  0  0  0  0  0  0  0  0
    7.3158   -1.1325    0.1523 H   0  0  0  0  0  0  0  0  0  0  0  0
    6.5795    0.4993    0.0745 H   0  0  0  0  0  0  0  0  0  0  0  0
    4.6801   -0.2471    1.4464 H   0  0  0  0  0  0  0  0  0  0  0  0
    5.8054   -1.5342    2.0088 H   0  0  0  0  0  0  0  0  0  0  0  0
    2.9042  -10.2548    1.1136 H   0  0  0  0  0  0  0  0  0  0  0  0
    2.0829   -8.0846    0.8882 H   0  0  0  0  0  0  0  0  0  0  0  0
    1.4971  -11.2908    3.8917 H   0  0  0  0  0  0  0  0  0  0  0  0
    0.6474   -9.9929    1.5343 H   0  0  0  0  0  0  0  0  0  0  0  0
  1  2  1  0
  1 28  1  0
  1 29  1  0
  1 30  1  0
  2  3  1  0
  2  4  2  3
  3 31  1  0
  3 32  1  0
  3 33  1  0
  4 25  1  0
  4  5  1  0
  5 27  1  0
  5  6  1  0
  5 34  1  1
  6 24  1  0
  6  7  1  0
  6 35  1  6
  7 12  1  0
  7  8  1  0
  7 36  1  1
  8  9  1  0
  8 37  1  0
  8 38  1  0
 27  9  1  1
  9 10  1  0
  9 39  1  1
 10 26  1  0
 10 11  1  0
 10 40  1  1
 11 12  1  0
 11 23  1  0
 11 41  1  6
 12 13  1  0
 12 42  1  1
 13 14  1  0
 14 15  1  0
 14 43  1  0
 14 44  1  0
 15 16  1  0
 15 45  1  0
 15 46  1  0
 16 17  1  0
 16 47  1  0
 17 18  2  0
 17 19  1  0
 19 22  1  0
 19 20  1  0
 19 48  1  0
 20 21  1  0
 20 49  1  0
 20 50  1  0
 21 22  1  0
 21 51  1  0
 21 52  1  0
 22 53  1  0
 22 54  1  0
 23 27  1  0
 23 24  1  0
 23 55  1  6
 24 25  1  0
 24 56  1  6
 25 26  1  0
 25 58  1  6
 26 27  1  0
 26 57  1  1
M  CHG  1  25   1
M  END
>  <i_m_ct_stereo_status>  (429) 
1

>  <s_m_source_file>  (429) 
/var/tmp/pbs.5076255.sched01/tmp54n2b71h/144k2pf1zoq.sdf

>  <i_m_source_file_index>  (429) 
37

>  <i_lp_mmshare_version>  (429) 
48012

>  <i_f3d_flags>  (429) 
0

>  <s_epik_input>  (429) 
W0NAQF0xMjNbQ0BIXTRbQ0BIXTVbQ0BIXTZbQ0gyXVtDQEBIXTFbQ0BASF03W0NAQEhdKFtDQEBIXTJbQ0BIXTVOKFtDQEhdMzcpQzQ9QyhbQ0gzXSlbQ0gzXSlbQ0BIXTZPW0NIMl1bQ0gyXVtOSF1DKD1PKVtDSF04W0NIMl1bQ0gyXVtDSDJdOA==

>  <s_epik_cmdline>  (429) 
J2VwaWtfcHl0aG9uJywgJy1waHQnLCAnMi4wJywgJy1waCcsICc3LjAnLCAnLXRuJywgJzgnLCAnLW1hJywgJzIwMCcsICctaW1hZScsICc8aW5maWxlLm1hZT4nLCAnLW9tYWUnLCAnPG91dGZpbGUubWFlPic=

>  <r_epik_Ionization_Penalty>  (429) 
0.360333

>  <r_epik_Ionization_Penalty_Charging>  (429) 
0.360333

>  <r_epik_Ionization_Penalty_Neutral>  (429) 
1.73006e-08

>  <r_epik_State_Penalty>  (429) 
0.778275

>  <r_epik_Charging_Adjusted_Penalty>  (429) 
1.13861

>  <i_epik_Tot_Q>  (429) 
1

>  <i_epik_Tot_abs_Q>  (429) 
1

>  <s_lp_Force_Field>  (429) 
OPLS3e

>  <r_lp_Energy>  (429) 
325.946

>  <b_lp_Chiralities_Consistent>  (429) 
1

>  <s_lp_Variant>  (429) 
115:0-2

>  <s_i_glide_gridfile>  (429) 
pfpi4k_grid

>  <i_i_glide_lignum>  (429) 
37

>  <i_i_glide_rotatable_bonds>  (429) 
6

>  <r_i_docking_score>  (429) 
-2.89407

>  <r_i_glide_ligand_efficiency>  (429) 
-0.107188

>  <r_i_glide_ligand_efficiency_sa>  (429) 
-0.321563

>  <r_i_glide_ligand_efficiency_ln>  (429) 
-0.673692

>  <r_i_glide_gscore>  (429) 
-2.89407

>  <r_i_glide_lipo>  (429) 
-0.590687

>  <r_i_glide_hbond>  (429) 
0

>  <r_i_glide_metal>  (429) 
-0

>  <r_i_glide_rewards>  (429) 
-0.965322

>  <r_i_glide_evdw>  (429) 
-23.114

>  <r_i_glide_ecoul>  (429) 
-5.96904

>  <r_i_glide_erotb>  (429) 
0.712997

>  <r_i_glide_esite>  (429) 
0

>  <r_i_glide_emodel>  (429) 
-33.652

>  <r_i_glide_energy>  (429) 
-29.0831

>  <r_i_glide_einternal>  (429) 
3.68928

>  <r_i_glide_intrahb_reward>  (429) 
-0

>  <i_i_glide_confnum>  (429) 
1

>  <i_i_glide_posenum>  (429) 
40

>  <r_i_glide_eff_state_penalty>  (429) 
0

>  <ligand_id>  (429) 
115

>  <original_smiles>  (429) 
CC(C)=C1C2C3C4CC5C6C(C4OCCNC(=O)C4CCC4)C4C3N1C6C524

>  <smiles>  (429) 
[H]N(C(=O)C1([H])C([H])([H])C([H])([H])C1([H])[H])C([H])([H])C([H])([H])OC1([H])C2([H])C([H])([H])C3([H])C4([H])C1([H])C1([H])C35C3([H])C(=C(C([H])([H])[H])C([H])([H])[H])[N+]([H])(C1([H])C32[H])C45[H]

$$$$
116:0:0
     RDKit          3D

 50 56  0  0  1  0  0  0  0  0999 V2000
    4.8008    0.1188    5.2613 C   0  0  0  0  0  0  0  0  0  0  0  0
    3.8801   -0.5064    4.1871 C   0  0  2  0  0  0  0  0  0  0  0  0
    4.6791   -1.4869    3.3124 C   0  0  0  0  0  0  0  0  0  0  0  0
    3.7349   -2.2349    2.3584 C   0  0  1  0  0  0  0  0  0  0  0  0
    3.0235   -1.2339    1.4448 C   0  0  2  0  0  0  0  0  0  0  0  0
    3.9612   -0.7195    0.4961 O   0  0  0  0  0  0  0  0  0  0  0  0
    4.7706   -1.4949   -0.2803 C   0  0  0  0  0  0  0  0  0  0  0  0
    5.4860   -1.0959   -1.2172 O   0  0  0  0  0  0  0  0  0  0  0  0
    4.8738   -2.9355    0.1369 C   0  0  1  0  0  0  0  0  0  0  0  0
    4.6907   -3.8598   -1.0498 C   0  0  0  0  0  0  0  0  0  0  0  0
    5.8994   -3.2943    1.1801 C   0  0  0  0  0  0  0  0  0  0  0  0
    4.4299   -3.2970    1.5502 C   0  0  1  0  0  0  0  0  0  0  0  0
    2.2610   -0.1081    2.1973 C   0  0  1  0  0  0  0  0  0  0  0  0
    0.8401   -0.5410    2.5998 C   0  0  0  0  0  0  0  0  0  0  0  0
   -0.1613    0.5429    3.0099 C   0  0  1  0  0  0  0  0  0  0  0  0
   -0.0219    1.0387    4.4283 C   0  0  1  0  0  0  0  0  0  0  0  0
    1.3001    0.9066    5.1514 C   0  0  0  0  0  0  0  0  0  0  0  0
    2.2876    1.6015    4.1764 C   0  0  2  0  0  0  0  0  0  0  0  0
    2.9100    2.8892    4.6979 C   0  0  0  0  0  0  0  0  0  0  0  0
    1.7040    3.5952    4.4000 O   0  0  0  0  0  0  0  0  0  0  0  0
    1.4577    2.6056    3.3744 C   0  0  1  0  0  0  0  0  0  0  0  0
    1.8600    2.9455    2.0704 O   0  0  0  0  0  0  0  0  0  0  0  0
    0.1172    2.0070    3.3252 C   0  0  1  0  0  0  0  0  0  0  0  0
    3.0913    0.5458    3.3593 C   0  0  1  0  0  0  0  0  0  0  0  0
    5.5292    0.7991    4.8100 H   0  0  0  0  0  0  0  0  0  0  0  0
    5.3530   -0.6518    5.7984 H   0  0  0  0  0  0  0  0  0  0  0  0
    4.2212    0.6693    6.0018 H   0  0  0  0  0  0  0  0  0  0  0  0
    3.1807   -1.1419    4.7328 H   0  0  0  0  0  0  0  0  0  0  0  0
    5.4138   -0.9068    2.7410 H   0  0  0  0  0  0  0  0  0  0  0  0
    5.2314   -2.2018    3.9331 H   0  0  0  0  0  0  0  0  0  0  0  0
    2.9979   -2.7513    2.9602 H   0  0  0  0  0  0  0  0  0  0  0  0
    2.3001   -1.7885    0.8455 H   0  0  0  0  0  0  0  0  0  0  0  0
    4.7613   -4.8997   -0.7113 H   0  0  0  0  0  0  0  0  0  0  0  0
    5.4702   -3.7185   -1.8062 H   0  0  0  0  0  0  0  0  0  0  0  0
    3.7067   -3.7369   -1.5116 H   0  0  0  0  0  0  0  0  0  0  0  0
    6.3578   -4.2760    1.0930 H   0  0  0  0  0  0  0  0  0  0  0  0
    6.5208   -2.5079    1.5869 H   0  0  0  0  0  0  0  0  0  0  0  0
    3.9576   -4.2795    1.5917 H   0  0  0  0  0  0  0  0  0  0  0  0
    2.1062    0.6314    1.4182 H   0  0  0  0  0  0  0  0  0  0  0  0
    0.4245   -1.0361    1.7276 H   0  0  0  0  0  0  0  0  0  0  0  0
    0.8807   -1.2944    3.3906 H   0  0  0  0  0  0  0  0  0  0  0  0
   -1.1818    0.3566    2.6820 H   0  0  0  0  0  0  0  0  0  0  0  0
   -0.9260    1.0287    5.0145 H   0  0  0  0  0  0  0  0  0  0  0  0
    1.2098    1.4800    6.0740 H   0  0  0  0  0  0  0  0  0  0  0  0
    1.4837   -0.1299    5.4065 H   0  0  0  0  0  0  0  0  0  0  0  0
    3.1479    2.8482    5.7616 H   0  0  0  0  0  0  0  0  0  0  0  0
    3.7861    3.2002    4.1169 H   0  0  0  0  0  0  0  0  0  0  0  0
    1.1679    3.5063    1.6924 H   0  0  0  0  0  0  0  0  0  0  0  0
   -0.7205    2.6926    3.1736 H   0  0  0  0  0  0  0  0  0  0  0  0
    3.8689    1.0899    2.8309 H   0  0  0  0  0  0  0  0  0  0  0  0
  1  2  1  0
  1 25  1  0
  1 26  1  0
  1 27  1  0
  2 24  1  0
  2  3  1  0
  2 28  1  1
  3  4  1  0
  3 29  1  0
  3 30  1  0
  4 12  1  0
  4  5  1  0
  4 31  1  1
  5  6  1  0
  5 13  1  0
  5 32  1  6
  6  7  1  0
  7  8  2  0
  7  9  1  0
  9 12  1  0
  9 10  1  6
  9 11  1  0
 10 33  1  0
 10 34  1  0
 10 35  1  0
 11 12  1  0
 11 36  1  0
 11 37  1  0
 12 38  1  6
 13 24  1  0
 13 14  1  0
 13 39  1  6
 14 15  1  0
 14 40  1  0
 14 41  1  0
 15 23  1  0
 15 16  1  0
 15 42  1  1
 16 23  1  0
 16 17  1  0
 16 43  1  1
 17 18  1  0
 17 44  1  0
 17 45  1  0
 18 21  1  0
 18 19  1  1
 18 24  1  0
 19 20  1  0
 19 46  1  0
 19 47  1  0
 20 21  1  0
 21 22  1  6
 21 23  1  0
 22 48  1  0
 23 49  1  1
 24 50  1  6
M  END
>  <i_m_ct_stereo_status>  (430) 
1

>  <s_m_source_file>  (430) 
/var/tmp/pbs.5076255.sched01/tmp54n2b71h/144k2pf1zoq.sdf

>  <i_m_source_file_index>  (430) 
38

>  <i_lp_mmshare_version>  (430) 
48012

>  <i_f3d_flags>  (430) 
0

>  <s_epik_input>  (430) 
TzFDKD1PKVtDQEBdKFtDSDNdKShbQ0gyXTIpW0NAQEhdMltDQEBIXShbQ0gyXVtDQEBIXShbQ0gzXSlbQ0BASF0zNClbQ0BIXTFbQ0BIXTNbQ0gyXVtDQEBIXShbQ0BIXTVbQ0gyXTYpW0NAQEhdNVtDQEBdKFtDQF00NjcpKFtPSF0pT1tDSDJdNw==

>  <s_epik_cmdline>  (430) 
J2VwaWtfcHl0aG9uJywgJy1waHQnLCAnMi4wJywgJy1waCcsICc3LjAnLCAnLXRuJywgJzgnLCAnLW1hJywgJzIwMCcsICctaW1hZScsICc8aW5maWxlLm1hZT4nLCAnLW9tYWUnLCAnPG91dGZpbGUubWFlPic=

>  <r_lp_tautomer_probability>  (430) 
1

>  <r_epik_Ionization_Penalty>  (430) 
3.43556e-08

>  <r_epik_Ionization_Penalty_Charging>  (430) 
0

>  <r_epik_Ionization_Penalty_Neutral>  (430) 
3.43556e-08

>  <r_epik_State_Penalty>  (430) 
-0

>  <r_epik_Charging_Adjusted_Penalty>  (430) 
0

>  <i_epik_Tot_Q>  (430) 
0

>  <i_epik_Tot_abs_Q>  (430) 
0

>  <s_epik_Chemistry_Notes>  (430) 
This compound has an ester and may undergo hydrolysis at high or low pH.

>  <s_lp_Force_Field>  (430) 
OPLS3e

>  <r_lp_Energy>  (430) 
54.7282

>  <b_lp_Chiralities_Consistent>  (430) 
1

>  <s_lp_Variant>  (430) 
116:0-1

>  <s_i_glide_gridfile>  (430) 
pfpi4k_grid

>  <i_i_glide_lignum>  (430) 
38

>  <i_i_glide_rotatable_bonds>  (430) 
1

>  <r_i_docking_score>  (430) 
-3.52339

>  <r_i_glide_ligand_efficiency>  (430) 
-0.146808

>  <r_i_glide_ligand_efficiency_sa>  (430) 
-0.423468

>  <r_i_glide_ligand_efficiency_ln>  (430) 
-0.84331

>  <r_i_glide_gscore>  (430) 
-3.52339

>  <r_i_glide_lipo>  (430) 
-0.203661

>  <r_i_glide_hbond>  (430) 
-0.0127418

>  <r_i_glide_metal>  (430) 
-0

>  <r_i_glide_rewards>  (430) 
-1.15624

>  <r_i_glide_evdw>  (430) 
-22.5675

>  <r_i_glide_ecoul>  (430) 
-6.40675

>  <r_i_glide_erotb>  (430) 
0

>  <r_i_glide_esite>  (430) 
-0.0613602

>  <r_i_glide_emodel>  (430) 
-34.9511

>  <r_i_glide_energy>  (430) 
-28.9743

>  <r_i_glide_einternal>  (430) 
1.08353

>  <r_i_glide_intrahb_reward>  (430) 
-0

>  <i_i_glide_confnum>  (430) 
2

>  <i_i_glide_posenum>  (430) 
10

>  <r_i_glide_eff_state_penalty>  (430) 
0

>  <ligand_id>  (430) 
116

>  <original_smiles>  (430) 
CC1CC2C(OC(=O)C3(C)CC23)C2CC3C4CC5(COC5(O)C34)C12

>  <smiles>  (430) 
[H]OC12OC([H])([H])C13C([H])([H])C1([H])C([H])(C([H])([H])C4([H])C5([H])OC(=O)C6(C([H])([H])[H])C([H])([H])C6([H])C5([H])C([H])([H])C([H])(C([H])([H])[H])C43[H])C21[H]

$$$$
116:0:1
     RDKit          3D

 50 56  0  0  1  0  0  0  0  0999 V2000
    2.6945   -3.6288    4.3931 C   0  0  0  0  0  0  0  0  0  0  0  0
    2.5869   -2.7366    3.1414 C   0  0  2  0  0  0  0  0  0  0  0  0
    3.2675   -3.4144    1.9426 C   0  0  0  0  0  0  0  0  0  0  0  0
    3.0162   -2.6107    0.6573 C   0  0  1  0  0  0  0  0  0  0  0  0
    3.6233   -1.2061    0.7930 C   0  0  2  0  0  0  0  0  0  0  0  0
    5.0560   -1.2700    0.7554 O   0  0  0  0  0  0  0  0  0  0  0  0
    5.7429   -1.9594   -0.2063 C   0  0  0  0  0  0  0  0  0  0  0  0
    6.9679   -1.8916   -0.3425 O   0  0  0  0  0  0  0  0  0  0  0  0
    4.9116   -2.8590   -1.1021 C   0  0  1  0  0  0  0  0  0  0  0  0
    5.1943   -2.6312   -2.5763 C   0  0  0  0  0  0  0  0  0  0  0  0
    4.6759   -4.2666   -0.6277 C   0  0  0  0  0  0  0  0  0  0  0  0
    3.5347   -3.2709   -0.6058 C   0  0  1  0  0  0  0  0  0  0  0  0
    3.1282   -0.4323    2.0513 C   0  0  1  0  0  0  0  0  0  0  0  0
    1.7999    0.3297    1.7771 C   0  0  0  0  0  0  0  0  0  0  0  0
    1.3714    1.4323    2.7618 C   0  0  1  0  0  0  0  0  0  0  0  0
    0.7045    0.9341    4.0217 C   0  0  1  0  0  0  0  0  0  0  0  0
    0.9866   -0.4639    4.5245 C   0  0  0  0  0  0  0  0  0  0  0  0
    2.5338   -0.5487    4.5856 C   0  0  2  0  0  0  0  0  0  0  0  0
    3.1036   -0.6940    5.9963 C   0  0  0  0  0  0  0  0  0  0  0  0
    2.9205    0.7298    6.2085 O   0  0  0  0  0  0  0  0  0  0  0  0
    2.9985    0.9033    4.7750 C   0  0  1  0  0  0  0  0  0  0  0  0
    4.2763    1.3054    4.3448 O   0  0  0  0  0  0  0  0  0  0  0  0
    1.9399    1.7496    4.1498 C   0  0  1  0  0  0  0  0  0  0  0  0
    3.1427   -1.2962    3.3622 C   0  0  1  0  0  0  0  0  0  0  0  0
    3.7250   -3.7037    4.7484 H   0  0  0  0  0  0  0  0  0  0  0  0
    2.3450   -4.6417    4.1777 H   0  0  0  0  0  0  0  0  0  0  0  0
    2.0775   -3.2473    5.2077 H   0  0  0  0  0  0  0  0  0  0  0  0
    1.5311   -2.6896    2.8798 H   0  0  0  0  0  0  0  0  0  0  0  0
    4.3376   -3.5004    2.1419 H   0  0  0  0  0  0  0  0  0  0  0  0
    2.8895   -4.4300    1.8176 H   0  0  0  0  0  0  0  0  0  0  0  0
    1.9399   -2.5137    0.5327 H   0  0  0  0  0  0  0  0  0  0  0  0
    3.3331   -0.6352   -0.0895 H   0  0  0  0  0  0  0  0  0  0  0  0
    4.5736   -3.2965   -3.1778 H   0  0  0  0  0  0  0  0  0  0  0  0
    6.2392   -2.8468   -2.8143 H   0  0  0  0  0  0  0  0  0  0  0  0
    4.9689   -1.6022   -2.8625 H   0  0  0  0  0  0  0  0  0  0  0  0
    4.6250   -5.0378   -1.3901 H   0  0  0  0  0  0  0  0  0  0  0  0
    5.1128   -4.5865    0.3134 H   0  0  0  0  0  0  0  0  0  0  0  0
    2.7894   -3.3605   -1.3934 H   0  0  0  0  0  0  0  0  0  0  0  0
    3.8625    0.3602    2.1469 H   0  0  0  0  0  0  0  0  0  0  0  0
    1.8714    0.8159    0.8076 H   0  0  0  0  0  0  0  0  0  0  0  0
    0.9771   -0.3820    1.6760 H   0  0  0  0  0  0  0  0  0  0  0  0
    0.8922    2.2778    2.2778 H   0  0  0  0  0  0  0  0  0  0  0  0
   -0.2515    1.3775    4.2907 H   0  0  0  0  0  0  0  0  0  0  0  0
    0.5460   -0.5547    5.5201 H   0  0  0  0  0  0  0  0  0  0  0  0
    0.4901   -1.1934    3.8944 H   0  0  0  0  0  0  0  0  0  0  0  0
    2.4988   -1.3077    6.6679 H   0  0  0  0  0  0  0  0  0  0  0  0
    4.1569   -0.9821    6.0236 H   0  0  0  0  0  0  0  0  0  0  0  0
    4.1587    1.6972    3.4841 H   0  0  0  0  0  0  0  0  0  0  0  0
    1.8363    2.7659    4.5223 H   0  0  0  0  0  0  0  0  0  0  0  0
    4.1990   -1.4340    3.5859 H   0  0  0  0  0  0  0  0  0  0  0  0
  1  2  1  0
  1 25  1  0
  1 26  1  0
  1 27  1  0
  2 24  1  0
  2  3  1  0
  2 28  1  6
  3  4  1  0
  3 29  1  0
  3 30  1  0
  4 12  1  0
  4  5  1  0
  4 31  1  6
  5  6  1  0
  5 13  1  0
  5 32  1  6
  6  7  1  0
  7  8  2  0
  7  9  1  0
  9 12  1  0
  9 10  1  6
  9 11  1  0
 10 33  1  0
 10 34  1  0
 10 35  1  0
 11 12  1  0
 11 36  1  0
 11 37  1  0
 12 38  1  6
 13 24  1  0
 13 14  1  0
 13 39  1  1
 14 15  1  0
 14 40  1  0
 14 41  1  0
 15 23  1  0
 15 16  1  0
 15 42  1  6
 16 23  1  0
 16 17  1  0
 16 43  1  1
 17 18  1  0
 17 44  1  0
 17 45  1  0
 18 21  1  0
 18 19  1  1
 18 24  1  0
 19 20  1  0
 19 46  1  0
 19 47  1  0
 20 21  1  0
 21 22  1  1
 21 23  1  0
 22 48  1  0
 23 49  1  1
 24 50  1  1
M  END
>  <i_m_ct_stereo_status>  (431) 
1

>  <s_m_source_file>  (431) 
/var/tmp/pbs.5076255.sched01/tmp54n2b71h/144k2pf1zoq.sdf

>  <i_m_source_file_index>  (431) 
38

>  <i_lp_mmshare_version>  (431) 
48012

>  <i_f3d_flags>  (431) 
0

>  <s_epik_input>  (431) 
TzFDKD1PKVtDQEBdKFtDSDNdKShbQ0gyXTIpW0NAQEhdMltDQEBIXShbQ0gyXVtDQEBIXShbQ0gzXSlbQ0BASF0zNClbQ0BIXTFbQ0BIXTNbQ0gyXVtDQEBIXShbQ0BIXTVbQ0gyXTYpW0NAQEhdNVtDQEBdKFtDQF00NjcpKFtPSF0pT1tDSDJdNw==

>  <s_epik_cmdline>  (431) 
J2VwaWtfcHl0aG9uJywgJy1waHQnLCAnMi4wJywgJy1waCcsICc3LjAnLCAnLXRuJywgJzgnLCAnLW1hJywgJzIwMCcsICctaW1hZScsICc8aW5maWxlLm1hZT4nLCAnLW9tYWUnLCAnPG91dGZpbGUubWFlPic=

>  <r_lp_tautomer_probability>  (431) 
1

>  <r_epik_Ionization_Penalty>  (431) 
3.43556e-08

>  <r_epik_Ionization_Penalty_Charging>  (431) 
0

>  <r_epik_Ionization_Penalty_Neutral>  (431) 
3.43556e-08

>  <r_epik_State_Penalty>  (431) 
-0

>  <r_epik_Charging_Adjusted_Penalty>  (431) 
0

>  <i_epik_Tot_Q>  (431) 
0

>  <i_epik_Tot_abs_Q>  (431) 
0

>  <s_epik_Chemistry_Notes>  (431) 
This compound has an ester and may undergo hydrolysis at high or low pH.

>  <s_lp_Force_Field>  (431) 
OPLS3e

>  <r_lp_Energy>  (431) 
54.7282

>  <b_lp_Chiralities_Consistent>  (431) 
1

>  <s_lp_Variant>  (431) 
116:0-1

>  <s_i_glide_gridfile>  (431) 
pfpi4k_grid

>  <i_i_glide_lignum>  (431) 
38

>  <i_i_glide_rotatable_bonds>  (431) 
1

>  <r_i_docking_score>  (431) 
-3.43459

>  <r_i_glide_ligand_efficiency>  (431) 
-0.143108

>  <r_i_glide_ligand_efficiency_sa>  (431) 
-0.412794

>  <r_i_glide_ligand_efficiency_ln>  (431) 
-0.822054

>  <r_i_glide_gscore>  (431) 
-3.43459

>  <r_i_glide_lipo>  (431) 
-0.216378

>  <r_i_glide_hbond>  (431) 
-0.153773

>  <r_i_glide_metal>  (431) 
-0

>  <r_i_glide_rewards>  (431) 
-1.15624

>  <r_i_glide_evdw>  (431) 
-23.1772

>  <r_i_glide_ecoul>  (431) 
-4.91044

>  <r_i_glide_erotb>  (431) 
0

>  <r_i_glide_esite>  (431) 
-0.0127678

>  <r_i_glide_emodel>  (431) 
-34.1374

>  <r_i_glide_energy>  (431) 
-28.0876

>  <r_i_glide_einternal>  (431) 
1.14731

>  <r_i_glide_intrahb_reward>  (431) 
-0

>  <i_i_glide_confnum>  (431) 
2

>  <i_i_glide_posenum>  (431) 
24

>  <r_i_glide_eff_state_penalty>  (431) 
0

>  <ligand_id>  (431) 
116

>  <original_smiles>  (431) 
CC1CC2C(OC(=O)C3(C)CC23)C2CC3C4CC5(COC5(O)C34)C12

>  <smiles>  (431) 
[H]OC12OC([H])([H])C13C([H])([H])C1([H])C([H])(C([H])([H])C4([H])C5([H])OC(=O)C6(C([H])([H])[H])C([H])([H])C6([H])C5([H])C([H])([H])C([H])(C([H])([H])[H])C43[H])C21[H]

$$$$
116:0:2
     RDKit          3D

 50 56  0  0  1  0  0  0  0  0999 V2000
    4.9855   -3.6139    4.2738 C   0  0  0  0  0  0  0  0  0  0  0  0
    4.7646   -2.4142    3.3333 C   0  0  2  0  0  0  0  0  0  0  0  0
    4.0074   -1.2935    4.0595 C   0  0  0  0  0  0  0  0  0  0  0  0
    3.9343   -0.0347    3.1802 C   0  0  1  0  0  0  0  0  0  0  0  0
    3.1545   -0.3408    1.8905 C   0  0  2  0  0  0  0  0  0  0  0  0
    1.7621   -0.5276    2.1790 O   0  0  0  0  0  0  0  0  0  0  0  0
    1.0395    0.3589    2.9320 C   0  0  0  0  0  0  0  0  0  0  0  0
   -0.1825    0.2773    3.0734 O   0  0  0  0  0  0  0  0  0  0  0  0
    1.8391    1.4274    3.6540 C   0  0  1  0  0  0  0  0  0  0  0  0
    1.3004    2.8279    3.4164 C   0  0  0  0  0  0  0  0  0  0  0  0
    2.3498    1.0810    5.0272 C   0  0  0  0  0  0  0  0  0  0  0  0
    3.3208    1.1733    3.8701 C   0  0  1  0  0  0  0  0  0  0  0  0
    3.7290   -1.5544    1.0966 C   0  0  1  0  0  0  0  0  0  0  0  0
    4.8743   -1.1182    0.1338 C   0  0  0  0  0  0  0  0  0  0  0  0
    5.2920   -2.0971   -0.9838 C   0  0  1  0  0  0  0  0  0  0  0  0
    6.2131   -3.2105   -0.5476 C   0  0  1  0  0  0  0  0  0  0  0  0
    6.2140   -3.6730    0.8905 C   0  0  0  0  0  0  0  0  0  0  0  0
    4.7221   -3.9565    1.2126 C   0  0  2  0  0  0  0  0  0  0  0  0
    4.4162   -5.4281    1.5042 C   0  0  0  0  0  0  0  0  0  0  0  0
    4.4317   -5.6955    0.0764 O   0  0  0  0  0  0  0  0  0  0  0  0
    4.0836   -4.3047   -0.1434 C   0  0  1  0  0  0  0  0  0  0  0  0
    2.7033   -4.1316   -0.3758 O   0  0  0  0  0  0  0  0  0  0  0  0
    4.9060   -3.5724   -1.1655 C   0  0  1  0  0  0  0  0  0  0  0  0
    4.0458   -2.7998    2.0004 C   0  0  1  0  0  0  0  0  0  0  0  0
    4.0472   -4.1152    4.5204 H   0  0  0  0  0  0  0  0  0  0  0  0
    5.4433   -3.2870    5.2107 H   0  0  0  0  0  0  0  0  0  0  0  0
    5.6605   -4.3468    3.8313 H   0  0  0  0  0  0  0  0  0  0  0  0
    5.7469   -2.0003    3.1145 H   0  0  0  0  0  0  0  0  0  0  0  0
    3.0078   -1.6461    4.3176 H   0  0  0  0  0  0  0  0  0  0  0  0
    4.5051   -1.0539    5.0004 H   0  0  0  0  0  0  0  0  0  0  0  0
    4.9540    0.2452    2.9201 H   0  0  0  0  0  0  0  0  0  0  0  0
    3.2105    0.5376    1.2473 H   0  0  0  0  0  0  0  0  0  0  0  0
    1.9001    3.5574    3.9593 H   0  0  0  0  0  0  0  0  0  0  0  0
    0.2683    2.9164    3.7649 H   0  0  0  0  0  0  0  0  0  0  0  0
    1.3370    3.0797    2.3556 H   0  0  0  0  0  0  0  0  0  0  0  0
    2.4037    1.8853    5.7556 H   0  0  0  0  0  0  0  0  0  0  0  0
    2.1148    0.1068    5.4478 H   0  0  0  0  0  0  0  0  0  0  0  0
    3.9341    2.0681    3.8189 H   0  0  0  0  0  0  0  0  0  0  0  0
    2.9164   -1.8181    0.4243 H   0  0  0  0  0  0  0  0  0  0  0  0
    4.5720   -0.2005   -0.3708 H   0  0  0  0  0  0  0  0  0  0  0  0
    5.7636   -0.8554    0.7101 H   0  0  0  0  0  0  0  0  0  0  0  0
    5.5560   -1.5994   -1.9122 H   0  0  0  0  0  0  0  0  0  0  0  0
    7.1243   -3.3708   -1.1224 H   0  0  0  0  0  0  0  0  0  0  0  0
    6.8149   -4.5808    0.9546 H   0  0  0  0  0  0  0  0  0  0  0  0
    6.7031   -2.9342    1.5174 H   0  0  0  0  0  0  0  0  0  0  0  0
    5.2027   -5.9638    2.0330 H   0  0  0  0  0  0  0  0  0  0  0  0
    3.4313   -5.6023    1.9430 H   0  0  0  0  0  0  0  0  0  0  0  0
    2.5544   -4.4967   -1.2422 H   0  0  0  0  0  0  0  0  0  0  0  0
    4.9212   -3.9882   -2.1700 H   0  0  0  0  0  0  0  0  0  0  0  0
    3.0668   -3.1701    2.3030 H   0  0  0  0  0  0  0  0  0  0  0  0
  1  2  1  0
  1 25  1  0
  1 26  1  0
  1 27  1  0
  2 24  1  0
  2  3  1  0
  2 28  1  6
  3  4  1  0
  3 29  1  0
  3 30  1  0
  4 12  1  0
  4  5  1  0
  4 31  1  6
  5  6  1  0
  5 13  1  0
  5 32  1  6
  6  7  1  0
  7  8  2  0
  7  9  1  0
  9 12  1  0
  9 10  1  1
  9 11  1  0
 10 33  1  0
 10 34  1  0
 10 35  1  0
 11 12  1  0
 11 36  1  0
 11 37  1  0
 12 38  1  1
 13 24  1  0
 13 14  1  0
 13 39  1  6
 14 15  1  0
 14 40  1  0
 14 41  1  0
 15 23  1  0
 15 16  1  0
 15 42  1  6
 16 23  1  0
 16 17  1  0
 16 43  1  6
 17 18  1  0
 17 44  1  0
 17 45  1  0
 18 21  1  0
 18 19  1  1
 18 24  1  0
 19 20  1  0
 19 46  1  0
 19 47  1  0
 20 21  1  0
 21 22  1  1
 21 23  1  0
 22 48  1  0
 23 49  1  6
 24 50  1  1
M  END
>  <i_m_ct_stereo_status>  (432) 
1

>  <s_m_source_file>  (432) 
/var/tmp/pbs.5076255.sched01/tmp54n2b71h/144k2pf1zoq.sdf

>  <i_m_source_file_index>  (432) 
38

>  <i_lp_mmshare_version>  (432) 
48012

>  <i_f3d_flags>  (432) 
0

>  <s_epik_input>  (432) 
TzFDKD1PKVtDQEBdKFtDSDNdKShbQ0gyXTIpW0NAQEhdMltDQEBIXShbQ0gyXVtDQEBIXShbQ0gzXSlbQ0BASF0zNClbQ0BIXTFbQ0BIXTNbQ0gyXVtDQEBIXShbQ0BIXTVbQ0gyXTYpW0NAQEhdNVtDQEBdKFtDQF00NjcpKFtPSF0pT1tDSDJdNw==

>  <s_epik_cmdline>  (432) 
J2VwaWtfcHl0aG9uJywgJy1waHQnLCAnMi4wJywgJy1waCcsICc3LjAnLCAnLXRuJywgJzgnLCAnLW1hJywgJzIwMCcsICctaW1hZScsICc8aW5maWxlLm1hZT4nLCAnLW9tYWUnLCAnPG91dGZpbGUubWFlPic=

>  <r_lp_tautomer_probability>  (432) 
1

>  <r_epik_Ionization_Penalty>  (432) 
3.43556e-08

>  <r_epik_Ionization_Penalty_Charging>  (432) 
0

>  <r_epik_Ionization_Penalty_Neutral>  (432) 
3.43556e-08

>  <r_epik_State_Penalty>  (432) 
-0

>  <r_epik_Charging_Adjusted_Penalty>  (432) 
0

>  <i_epik_Tot_Q>  (432) 
0

>  <i_epik_Tot_abs_Q>  (432) 
0

>  <s_epik_Chemistry_Notes>  (432) 
This compound has an ester and may undergo hydrolysis at high or low pH.

>  <s_lp_Force_Field>  (432) 
OPLS3e

>  <r_lp_Energy>  (432) 
54.7282

>  <b_lp_Chiralities_Consistent>  (432) 
1

>  <s_lp_Variant>  (432) 
116:0-1

>  <s_i_glide_gridfile>  (432) 
pfpi4k_grid

>  <i_i_glide_lignum>  (432) 
38

>  <i_i_glide_rotatable_bonds>  (432) 
1

>  <r_i_docking_score>  (432) 
-2.94891

>  <r_i_glide_ligand_efficiency>  (432) 
-0.122871

>  <r_i_glide_ligand_efficiency_sa>  (432) 
-0.354422

>  <r_i_glide_ligand_efficiency_ln>  (432) 
-0.70581

>  <r_i_glide_gscore>  (432) 
-2.94891

>  <r_i_glide_lipo>  (432) 
-0.344149

>  <r_i_glide_hbond>  (432) 
0

>  <r_i_glide_metal>  (432) 
-0

>  <r_i_glide_rewards>  (432) 
-1.15624

>  <r_i_glide_evdw>  (432) 
-25.1232

>  <r_i_glide_ecoul>  (432) 
-1.03632

>  <r_i_glide_erotb>  (432) 
0

>  <r_i_glide_esite>  (432) 
-0.0369143

>  <r_i_glide_emodel>  (432) 
-31.3406

>  <r_i_glide_energy>  (432) 
-26.1595

>  <r_i_glide_einternal>  (432) 
0.954572

>  <r_i_glide_intrahb_reward>  (432) 
-0

>  <i_i_glide_confnum>  (432) 
1

>  <i_i_glide_posenum>  (432) 
7

>  <r_i_glide_eff_state_penalty>  (432) 
0

>  <ligand_id>  (432) 
116

>  <original_smiles>  (432) 
CC1CC2C(OC(=O)C3(C)CC23)C2CC3C4CC5(COC5(O)C34)C12

>  <smiles>  (432) 
[H]OC12OC([H])([H])C13C([H])([H])C1([H])C([H])(C([H])([H])C4([H])C5([H])OC(=O)C6(C([H])([H])[H])C([H])([H])C6([H])C5([H])C([H])([H])C([H])(C([H])([H])[H])C43[H])C21[H]

$$$$
117:0:0
     RDKit          3D

 39 40  0  0  1  0  0  0  0  0999 V2000
    6.1026   -9.6614    1.2170 C   0  0  0  0  0  0  0  0  0  0  0  0
    5.0355   -8.5649    1.0739 C   0  0  0  0  0  0  0  0  0  0  0  0
    3.9894   -8.6275    2.1415 N   0  0  0  0  0  0  0  0  0  0  0  0
    2.9505   -9.6603    1.8396 C   0  0  0  0  0  0  0  0  0  0  0  0
    1.9201   -9.8688    2.9681 C   0  0  0  0  0  0  0  0  0  0  0  0
    3.4172   -7.2820    2.4490 C   0  0  0  0  0  0  0  0  0  0  0  0
    4.4215   -6.3524    3.1585 C   0  0  0  0  0  0  0  0  0  0  0  0
    3.6235   -4.8046    3.6734 S   0  0  0  0  0  0  0  0  0  0  0  0
    3.3754   -3.8788    2.1889 C   0  0  0  0  0  0  0  0  0  0  0  0
    2.5640   -2.8340    2.1807 N   0  0  0  0  0  0  0  0  0  0  0  0
    2.6149   -2.5007    0.8685 N   0  0  0  0  0  0  0  0  0  0  0  0
    3.4192   -3.3507    0.2065 C   0  0  0  0  0  0  0  0  0  0  0  0
    3.6877   -3.3006   -1.2196 C   0  0  0  0  0  0  0  0  0  0  0  0
    4.9925   -3.5062   -1.7110 C   0  0  0  0  0  0  0  0  0  0  0  0
    5.1970   -3.4411   -3.0978 C   0  0  0  0  0  0  0  0  0  0  0  0
    4.2127   -3.1858   -3.9826 N   0  0  0  0  0  0  0  0  0  0  0  0
    2.9648   -3.0036   -3.5073 C   0  0  0  0  0  0  0  0  0  0  0  0
    2.6494   -3.0492   -2.1400 C   0  0  0  0  0  0  0  0  0  0  0  0
    3.9453   -4.2706    1.0171 N   0  0  0  0  0  0  0  0  0  0  0  0
    2.0853   -1.7330    0.4606 H   0  0  0  0  0  0  0  0  0  0  0  0
    6.8929   -9.5083    0.4791 H   0  0  0  0  0  0  0  0  0  0  0  0
    5.6942  -10.6578    1.0542 H   0  0  0  0  0  0  0  0  0  0  0  0
    6.5727   -9.6403    2.2037 H   0  0  0  0  0  0  0  0  0  0  0  0
    5.5738   -7.6216    1.1099 H   0  0  0  0  0  0  0  0  0  0  0  0
    4.5781   -8.5866    0.0835 H   0  0  0  0  0  0  0  0  0  0  0  0
    2.4389   -9.4251    0.9054 H   0  0  0  0  0  0  0  0  0  0  0  0
    3.4499  -10.6139    1.6822 H   0  0  0  0  0  0  0  0  0  0  0  0
    1.2644  -10.7105    2.7354 H   0  0  0  0  0  0  0  0  0  0  0  0
    1.2553   -9.0126    3.1009 H   0  0  0  0  0  0  0  0  0  0  0  0
    2.4111  -10.0806    3.9219 H   0  0  0  0  0  0  0  0  0  0  0  0
    3.0052   -6.8379    1.5407 H   0  0  0  0  0  0  0  0  0  0  0  0
    2.5836   -7.3616    3.1417 H   0  0  0  0  0  0  0  0  0  0  0  0
    4.8328   -6.8426    4.0442 H   0  0  0  0  0  0  0  0  0  0  0  0
    5.2625   -6.0810    2.5208 H   0  0  0  0  0  0  0  0  0  0  0  0
    5.8211   -3.7120   -1.0468 H   0  0  0  0  0  0  0  0  0  0  0  0
    6.1805   -3.5801   -3.5166 H   0  0  0  0  0  0  0  0  0  0  0  0
    2.1978   -2.8155   -4.2422 H   0  0  0  0  0  0  0  0  0  0  0  0
    1.6303   -2.8944   -1.8221 H   0  0  0  0  0  0  0  0  0  0  0  0
    4.4525   -8.9365    2.9873 H   0  0  0  0  0  0  0  0  0  0  0  0
  1  2  1  0
  1 21  1  0
  1 22  1  0
  1 23  1  0
  2  3  1  0
  2 24  1  0
  2 25  1  0
  3  4  1  0
  3  6  1  0
  3 39  1  0
  4  5  1  0
  4 26  1  0
  4 27  1  0
  5 28  1  0
  5 29  1  0
  5 30  1  0
  6  7  1  0
  6 31  1  0
  6 32  1  0
  7  8  1  0
  7 33  1  0
  7 34  1  0
  8  9  1  0
  9 19  1  0
  9 10  2  0
 10 11  1  0
 11 20  1  0
 11 12  1  0
 12 13  1  0
 12 19  2  0
 13 18  1  0
 13 14  2  0
 14 15  1  0
 14 35  1  0
 15 16  2  0
 15 36  1  0
 16 17  1  0
 17 18  2  0
 17 37  1  0
 18 38  1  0
M  CHG  1   3   1
M  END
>  <i_m_ct_stereo_status>  (433) 
1

>  <s_m_source_file>  (433) 
/var/tmp/pbs.5076255.sched01/tmp54n2b71h/144k2pf1zoq.sdf

>  <i_m_source_file_index>  (433) 
39

>  <i_lp_mmshare_version>  (433) 
48012

>  <i_f3d_flags>  (433) 
0

>  <s_epik_input>  (433) 
W0NIM11bQ0gyXU4oW0NIMl1bQ0gzXSlbQ0gyXVtDSDJdU2MxbltuSF1jKG4xKS1jMltjSF1bY0hdbltjSF1bY0hdMg==

>  <s_epik_cmdline>  (433) 
J2VwaWtfcHl0aG9uJywgJy1waHQnLCAnMi4wJywgJy1waCcsICc3LjAnLCAnLXRuJywgJzgnLCAnLW1hJywgJzIwMCcsICctaW1hZScsICc8aW5maWxlLm1hZT4nLCAnLW9tYWUnLCAnPG91dGZpbGUubWFlPic=

>  <r_lp_tautomer_probability>  (433) 
0.426694

>  <r_epik_Ionization_Penalty>  (433) 
0.0647279

>  <r_epik_Ionization_Penalty_Charging>  (433) 
0.023365

>  <r_epik_Ionization_Penalty_Neutral>  (433) 
0.0413629

>  <r_epik_State_Penalty>  (433) 
0.335547

>  <r_epik_Charging_Adjusted_Penalty>  (433) 
0.358912

>  <i_epik_Tot_Q>  (433) 
1

>  <i_epik_Tot_abs_Q>  (433) 
1

>  <s_lp_Force_Field>  (433) 
OPLS3e

>  <r_lp_Energy>  (433) 
31.7947

>  <b_lp_Chiralities_Consistent>  (433) 
1

>  <s_lp_Variant>  (433) 
117:0-1

>  <s_i_glide_gridfile>  (433) 
pfpi4k_grid

>  <i_i_glide_lignum>  (433) 
39

>  <i_i_glide_rotatable_bonds>  (433) 
7

>  <r_i_docking_score>  (433) 
-3.38941

>  <r_i_glide_ligand_efficiency>  (433) 
-0.17839

>  <r_i_glide_ligand_efficiency_sa>  (433) 
-0.476016

>  <r_i_glide_ligand_efficiency_ln>  (433) 
-0.859288

>  <r_i_glide_gscore>  (433) 
-3.38941

>  <r_i_glide_lipo>  (433) 
-0.542591

>  <r_i_glide_hbond>  (433) 
-0.246565

>  <r_i_glide_metal>  (433) 
-0

>  <r_i_glide_rewards>  (433) 
-1.51239

>  <r_i_glide_evdw>  (433) 
-23.8905

>  <r_i_glide_ecoul>  (433) 
-6.56641

>  <r_i_glide_erotb>  (433) 
1.16285

>  <r_i_glide_esite>  (433) 
-0.0712262

>  <r_i_glide_emodel>  (433) 
-37.8628

>  <r_i_glide_energy>  (433) 
-30.4569

>  <r_i_glide_einternal>  (433) 
2.2422

>  <r_i_glide_intrahb_reward>  (433) 
-0

>  <i_i_glide_confnum>  (433) 
1

>  <i_i_glide_posenum>  (433) 
21

>  <r_i_glide_eff_state_penalty>  (433) 
0

>  <ligand_id>  (433) 
117

>  <original_smiles>  (433) 
CCN(CC)CCSc1n[nH]c(-c2ccncc2)n1

>  <smiles>  (433) 
[H]c1nc([H])c([H])c(-c2nc(SC([H])([H])C([H])([H])[N+]([H])(C([H])([H])C([H])([H])[H])C([H])([H])C([H])([H])[H])nn2[H])c1[H]

$$$$
117:0:1
     RDKit          3D

 39 40  0  0  1  0  0  0  0  0999 V2000
    4.1138   -1.0376   -1.7545 C   0  0  0  0  0  0  0  0  0  0  0  0
    4.0886   -0.8827   -0.2173 C   0  0  0  0  0  0  0  0  0  0  0  0
    3.0256   -1.7012    0.4427 N   0  0  0  0  0  0  0  0  0  0  0  0
    2.8226   -1.3110    1.8664 C   0  0  0  0  0  0  0  0  0  0  0  0
    1.4852   -1.8103    2.4414 C   0  0  0  0  0  0  0  0  0  0  0  0
    3.2439   -3.1664    0.2674 C   0  0  0  0  0  0  0  0  0  0  0  0
    4.5329   -3.6876    0.9628 C   0  0  0  0  0  0  0  0  0  0  0  0
    5.0472   -5.3036    0.3320 S   0  0  0  0  0  0  0  0  0  0  0  0
    3.9362   -6.4443    1.0611 C   0  0  0  0  0  0  0  0  0  0  0  0
    4.1570   -7.7486    0.9628 N   0  0  0  0  0  0  0  0  0  0  0  0
    3.0728   -8.2154    1.6182 N   0  0  0  0  0  0  0  0  0  0  0  0
    2.3076   -7.1872    2.0501 C   0  0  0  0  0  0  0  0  0  0  0  0
    1.0588   -7.3168    2.7723 C   0  0  0  0  0  0  0  0  0  0  0  0
    0.7115   -6.3935    3.7905 C   0  0  0  0  0  0  0  0  0  0  0  0
   -0.5035   -6.5806    4.4680 C   0  0  0  0  0  0  0  0  0  0  0  0
   -1.3822   -7.5561    4.1653 N   0  0  0  0  0  0  0  0  0  0  0  0
   -1.0422   -8.4403    3.2049 C   0  0  0  0  0  0  0  0  0  0  0  0
    0.1598   -8.3573    2.4813 C   0  0  0  0  0  0  0  0  0  0  0  0
    2.8299   -6.0117    1.7211 N   0  0  0  0  0  0  0  0  0  0  0  0
    2.8907   -9.1997    1.7374 H   0  0  0  0  0  0  0  0  0  0  0  0
    4.9581   -0.4855   -2.1721 H   0  0  0  0  0  0  0  0  0  0  0  0
    3.1951   -0.6591   -2.2095 H   0  0  0  0  0  0  0  0  0  0  0  0
    4.2482   -2.0692   -2.0916 H   0  0  0  0  0  0  0  0  0  0  0  0
    5.0837   -1.0896    0.1725 H   0  0  0  0  0  0  0  0  0  0  0  0
    3.9435    0.1632    0.0395 H   0  0  0  0  0  0  0  0  0  0  0  0
    3.6392   -1.6595    2.4956 H   0  0  0  0  0  0  0  0  0  0  0  0
    2.8329   -0.2254    1.9534 H   0  0  0  0  0  0  0  0  0  0  0  0
    1.3466   -1.4381    3.4597 H   0  0  0  0  0  0  0  0  0  0  0  0
    1.4282   -2.9025    2.4951 H   0  0  0  0  0  0  0  0  0  0  0  0
    0.6438   -1.4476    1.8447 H   0  0  0  0  0  0  0  0  0  0  0  0
    2.3717   -3.6981    0.6356 H   0  0  0  0  0  0  0  0  0  0  0  0
    3.2436   -3.4292   -0.7897 H   0  0  0  0  0  0  0  0  0  0  0  0
    5.4147   -3.0640    0.8000 H   0  0  0  0  0  0  0  0  0  0  0  0
    4.3962   -3.7486    2.0479 H   0  0  0  0  0  0  0  0  0  0  0  0
    1.3683   -5.5766    4.0545 H   0  0  0  0  0  0  0  0  0  0  0  0
   -0.8052   -5.9098    5.2598 H   0  0  0  0  0  0  0  0  0  0  0  0
   -1.7543   -9.2218    3.0027 H   0  0  0  0  0  0  0  0  0  0  0  0
    0.3721   -9.0727    1.6962 H   0  0  0  0  0  0  0  0  0  0  0  0
    2.1484   -1.4587   -0.0313 H   0  0  0  0  0  0  0  0  0  0  0  0
  1  2  1  0
  1 21  1  0
  1 22  1  0
  1 23  1  0
  2  3  1  0
  2 24  1  0
  2 25  1  0
  3  4  1  0
  3  6  1  0
  3 39  1  0
  4  5  1  0
  4 26  1  0
  4 27  1  0
  5 28  1  0
  5 29  1  0
  5 30  1  0
  6  7  1  0
  6 31  1  0
  6 32  1  0
  7  8  1  0
  7 33  1  0
  7 34  1  0
  8  9  1  0
  9 19  1  0
  9 10  2  0
 10 11  1  0
 11 20  1  0
 11 12  1  0
 12 13  1  0
 12 19  2  0
 13 18  1  0
 13 14  2  0
 14 15  1  0
 14 35  1  0
 15 16  2  0
 15 36  1  0
 16 17  1  0
 17 18  2  0
 17 37  1  0
 18 38  1  0
M  CHG  1   3   1
M  END
>  <i_m_ct_stereo_status>  (434) 
1

>  <s_m_source_file>  (434) 
/var/tmp/pbs.5076255.sched01/tmp54n2b71h/144k2pf1zoq.sdf

>  <i_m_source_file_index>  (434) 
39

>  <i_lp_mmshare_version>  (434) 
48012

>  <i_f3d_flags>  (434) 
0

>  <s_epik_input>  (434) 
W0NIM11bQ0gyXU4oW0NIMl1bQ0gzXSlbQ0gyXVtDSDJdU2MxbltuSF1jKG4xKS1jMltjSF1bY0hdbltjSF1bY0hdMg==

>  <s_epik_cmdline>  (434) 
J2VwaWtfcHl0aG9uJywgJy1waHQnLCAnMi4wJywgJy1waCcsICc3LjAnLCAnLXRuJywgJzgnLCAnLW1hJywgJzIwMCcsICctaW1hZScsICc8aW5maWxlLm1hZT4nLCAnLW9tYWUnLCAnPG91dGZpbGUubWFlPic=

>  <r_lp_tautomer_probability>  (434) 
0.426694

>  <r_epik_Ionization_Penalty>  (434) 
0.0647279

>  <r_epik_Ionization_Penalty_Charging>  (434) 
0.023365

>  <r_epik_Ionization_Penalty_Neutral>  (434) 
0.0413629

>  <r_epik_State_Penalty>  (434) 
0.335547

>  <r_epik_Charging_Adjusted_Penalty>  (434) 
0.358912

>  <i_epik_Tot_Q>  (434) 
1

>  <i_epik_Tot_abs_Q>  (434) 
1

>  <s_lp_Force_Field>  (434) 
OPLS3e

>  <r_lp_Energy>  (434) 
31.7947

>  <b_lp_Chiralities_Consistent>  (434) 
1

>  <s_lp_Variant>  (434) 
117:0-1

>  <s_i_glide_gridfile>  (434) 
pfpi4k_grid

>  <i_i_glide_lignum>  (434) 
39

>  <i_i_glide_rotatable_bonds>  (434) 
7

>  <r_i_docking_score>  (434) 
-3.21414

>  <r_i_glide_ligand_efficiency>  (434) 
-0.169165

>  <r_i_glide_ligand_efficiency_sa>  (434) 
-0.451401

>  <r_i_glide_ligand_efficiency_ln>  (434) 
-0.814853

>  <r_i_glide_gscore>  (434) 
-3.21414

>  <r_i_glide_lipo>  (434) 
-0.108945

>  <r_i_glide_hbond>  (434) 
-0.2

>  <r_i_glide_metal>  (434) 
-0

>  <r_i_glide_rewards>  (434) 
-1.62253

>  <r_i_glide_evdw>  (434) 
-23.3098

>  <r_i_glide_ecoul>  (434) 
-7.8852

>  <r_i_glide_erotb>  (434) 
1.16285

>  <r_i_glide_esite>  (434) 
-0.0972374

>  <r_i_glide_emodel>  (434) 
-37.2469

>  <r_i_glide_energy>  (434) 
-31.195

>  <r_i_glide_einternal>  (434) 
3.20905

>  <r_i_glide_intrahb_reward>  (434) 
-0

>  <i_i_glide_confnum>  (434) 
2

>  <i_i_glide_posenum>  (434) 
19

>  <r_i_glide_eff_state_penalty>  (434) 
0

>  <ligand_id>  (434) 
117

>  <original_smiles>  (434) 
CCN(CC)CCSc1n[nH]c(-c2ccncc2)n1

>  <smiles>  (434) 
[H]c1nc([H])c([H])c(-c2nc(SC([H])([H])C([H])([H])[N+]([H])(C([H])([H])C([H])([H])[H])C([H])([H])C([H])([H])[H])nn2[H])c1[H]

$$$$
117:0:2
     RDKit          3D

 39 40  0  0  1  0  0  0  0  0999 V2000
    3.4246   -1.0586    0.1201 C   0  0  0  0  0  0  0  0  0  0  0  0
    3.3437   -2.5898    0.1941 C   0  0  0  0  0  0  0  0  0  0  0  0
    4.2219   -3.2674   -0.8056 N   0  0  0  0  0  0  0  0  0  0  0  0
    3.6384   -3.2243   -2.1787 C   0  0  0  0  0  0  0  0  0  0  0  0
    4.6406   -3.6023   -3.2884 C   0  0  0  0  0  0  0  0  0  0  0  0
    4.6177   -4.6435   -0.3865 C   0  0  0  0  0  0  0  0  0  0  0  0
    5.4569   -4.6580    0.9119 C   0  0  0  0  0  0  0  0  0  0  0  0
    6.2759   -6.2468    1.1937 S   0  0  0  0  0  0  0  0  0  0  0  0
    4.9806   -7.4179    1.4160 C   0  0  0  0  0  0  0  0  0  0  0  0
    5.1984   -8.6996    1.1724 N   0  0  0  0  0  0  0  0  0  0  0  0
    3.9629   -9.2003    1.4010 N   0  0  0  0  0  0  0  0  0  0  0  0
    3.1157   -8.2124    1.7499 C   0  0  0  0  0  0  0  0  0  0  0  0
    1.7053   -8.3828    2.0794 C   0  0  0  0  0  0  0  0  0  0  0  0
    0.7822   -7.3286    1.8887 C   0  0  0  0  0  0  0  0  0  0  0  0
   -0.5674   -7.5566    2.2099 C   0  0  0  0  0  0  0  0  0  0  0  0
   -1.0315   -8.7214    2.6966 N   0  0  0  0  0  0  0  0  0  0  0  0
   -0.1463   -9.7222    2.8825 C   0  0  0  0  0  0  0  0  0  0  0  0
    1.2239   -9.6069    2.5868 C   0  0  0  0  0  0  0  0  0  0  0  0
    3.7238   -7.0239    1.7567 N   0  0  0  0  0  0  0  0  0  0  0  0
    3.7541  -10.1864    1.2884 H   0  0  0  0  0  0  0  0  0  0  0  0
    2.8405   -0.6165    0.9264 H   0  0  0  0  0  0  0  0  0  0  0  0
    3.0164   -0.6773   -0.8134 H   0  0  0  0  0  0  0  0  0  0  0  0
    4.4525   -0.6999    0.2242 H   0  0  0  0  0  0  0  0  0  0  0  0
    3.6361   -2.8398    1.2104 H   0  0  0  0  0  0  0  0  0  0  0  0
    2.3148   -2.9363    0.0950 H   0  0  0  0  0  0  0  0  0  0  0  0
    2.7523   -3.8583   -2.2317 H   0  0  0  0  0  0  0  0  0  0  0  0
    3.2920   -2.2125   -2.3904 H   0  0  0  0  0  0  0  0  0  0  0  0
    4.1908   -3.4603   -4.2708 H   0  0  0  0  0  0  0  0  0  0  0  0
    4.9367   -4.6512   -3.2422 H   0  0  0  0  0  0  0  0  0  0  0  0
    5.5431   -2.9904   -3.2400 H   0  0  0  0  0  0  0  0  0  0  0  0
    3.7321   -5.2739   -0.3012 H   0  0  0  0  0  0  0  0  0  0  0  0
    5.2287   -5.1035   -1.1599 H   0  0  0  0  0  0  0  0  0  0  0  0
    6.2269   -3.8854    0.8807 H   0  0  0  0  0  0  0  0  0  0  0  0
    4.8388   -4.4781    1.7905 H   0  0  0  0  0  0  0  0  0  0  0  0
    1.1015   -6.3726    1.5018 H   0  0  0  0  0  0  0  0  0  0  0  0
   -1.3053   -6.7805    2.0807 H   0  0  0  0  0  0  0  0  0  0  0  0
   -0.5459  -10.6421    3.2753 H   0  0  0  0  0  0  0  0  0  0  0  0
    1.8825  -10.4457    2.7576 H   0  0  0  0  0  0  0  0  0  0  0  0
    5.0778   -2.7325   -0.8417 H   0  0  0  0  0  0  0  0  0  0  0  0
  1  2  1  0
  1 21  1  0
  1 22  1  0
  1 23  1  0
  2  3  1  0
  2 24  1  0
  2 25  1  0
  3  4  1  0
  3  6  1  0
  3 39  1  0
  4  5  1  0
  4 26  1  0
  4 27  1  0
  5 28  1  0
  5 29  1  0
  5 30  1  0
  6  7  1  0
  6 31  1  0
  6 32  1  0
  7  8  1  0
  7 33  1  0
  7 34  1  0
  8  9  1  0
  9 19  1  0
  9 10  2  0
 10 11  1  0
 11 20  1  0
 11 12  1  0
 12 13  1  0
 12 19  2  0
 13 18  1  0
 13 14  2  0
 14 15  1  0
 14 35  1  0
 15 16  2  0
 15 36  1  0
 16 17  1  0
 17 18  2  0
 17 37  1  0
 18 38  1  0
M  CHG  1   3   1
M  END
>  <i_m_ct_stereo_status>  (435) 
1

>  <s_m_source_file>  (435) 
/var/tmp/pbs.5076255.sched01/tmp54n2b71h/144k2pf1zoq.sdf

>  <i_m_source_file_index>  (435) 
39

>  <i_lp_mmshare_version>  (435) 
48012

>  <i_f3d_flags>  (435) 
0

>  <s_epik_input>  (435) 
W0NIM11bQ0gyXU4oW0NIMl1bQ0gzXSlbQ0gyXVtDSDJdU2MxbltuSF1jKG4xKS1jMltjSF1bY0hdbltjSF1bY0hdMg==

>  <s_epik_cmdline>  (435) 
J2VwaWtfcHl0aG9uJywgJy1waHQnLCAnMi4wJywgJy1waCcsICc3LjAnLCAnLXRuJywgJzgnLCAnLW1hJywgJzIwMCcsICctaW1hZScsICc8aW5maWxlLm1hZT4nLCAnLW9tYWUnLCAnPG91dGZpbGUubWFlPic=

>  <r_lp_tautomer_probability>  (435) 
0.426694

>  <r_epik_Ionization_Penalty>  (435) 
0.0647279

>  <r_epik_Ionization_Penalty_Charging>  (435) 
0.023365

>  <r_epik_Ionization_Penalty_Neutral>  (435) 
0.0413629

>  <r_epik_State_Penalty>  (435) 
0.335547

>  <r_epik_Charging_Adjusted_Penalty>  (435) 
0.358912

>  <i_epik_Tot_Q>  (435) 
1

>  <i_epik_Tot_abs_Q>  (435) 
1

>  <s_lp_Force_Field>  (435) 
OPLS3e

>  <r_lp_Energy>  (435) 
31.7947

>  <b_lp_Chiralities_Consistent>  (435) 
1

>  <s_lp_Variant>  (435) 
117:0-1

>  <s_i_glide_gridfile>  (435) 
pfpi4k_grid

>  <i_i_glide_lignum>  (435) 
39

>  <i_i_glide_rotatable_bonds>  (435) 
7

>  <r_i_docking_score>  (435) 
-2.97401

>  <r_i_glide_ligand_efficiency>  (435) 
-0.156527

>  <r_i_glide_ligand_efficiency_sa>  (435) 
-0.417676

>  <r_i_glide_ligand_efficiency_ln>  (435) 
-0.753975

>  <r_i_glide_gscore>  (435) 
-2.97401

>  <r_i_glide_lipo>  (435) 
-0.33547

>  <r_i_glide_hbond>  (435) 
-0.101599

>  <r_i_glide_metal>  (435) 
-0

>  <r_i_glide_rewards>  (435) 
-1.63088

>  <r_i_glide_evdw>  (435) 
-27.0314

>  <r_i_glide_ecoul>  (435) 
-4.27816

>  <r_i_glide_erotb>  (435) 
1.16285

>  <r_i_glide_esite>  (435) 
-0.0756124

>  <r_i_glide_emodel>  (435) 
-38.1088

>  <r_i_glide_energy>  (435) 
-31.3096

>  <r_i_glide_einternal>  (435) 
1.53217

>  <r_i_glide_intrahb_reward>  (435) 
-0

>  <i_i_glide_confnum>  (435) 
1

>  <i_i_glide_posenum>  (435) 
25

>  <r_i_glide_eff_state_penalty>  (435) 
0

>  <ligand_id>  (435) 
117

>  <original_smiles>  (435) 
CCN(CC)CCSc1n[nH]c(-c2ccncc2)n1

>  <smiles>  (435) 
[H]c1nc([H])c([H])c(-c2nc(SC([H])([H])C([H])([H])[N+]([H])(C([H])([H])C([H])([H])[H])C([H])([H])C([H])([H])[H])nn2[H])c1[H]

$$$$
117:1:0
     RDKit          3D

 39 40  0  0  1  0  0  0  0  0999 V2000
    3.6200   -0.5760   -3.3812 C   0  0  0  0  0  0  0  0  0  0  0  0
    3.7401   -1.9339   -2.6470 C   0  0  0  0  0  0  0  0  0  0  0  0
    3.4503   -1.8855   -1.1843 N   0  0  0  0  0  0  0  0  0  0  0  0
    3.3468   -3.2551   -0.6008 C   0  0  0  0  0  0  0  0  0  0  0  0
    4.6724   -4.0621   -0.6292 C   0  0  0  0  0  0  0  0  0  0  0  0
    4.3775   -0.9969   -0.4091 C   0  0  0  0  0  0  0  0  0  0  0  0
    3.6760   -0.2552    0.7384 C   0  0  0  0  0  0  0  0  0  0  0  0
    3.4764   -1.2939    2.2149 S   0  0  0  0  0  0  0  0  0  0  0  0
    2.0098   -0.5673    2.8472 C   0  0  0  0  0  0  0  0  0  0  0  0
    0.9745   -0.1645    2.0869 N   0  0  0  0  0  0  0  0  0  0  0  0
    0.0182    0.3589    2.8797 N   0  0  0  0  0  0  0  0  0  0  0  0
    0.5648    0.2010    4.0850 C   0  0  0  0  0  0  0  0  0  0  0  0
   -0.1276    0.6219    5.3173 C   0  0  0  0  0  0  0  0  0  0  0  0
    0.4635    0.4242    6.5896 C   0  0  0  0  0  0  0  0  0  0  0  0
   -0.2303    0.8375    7.7381 C   0  0  0  0  0  0  0  0  0  0  0  0
   -1.4570    1.3918    7.6960 N   0  0  0  0  0  0  0  0  0  0  0  0
   -2.0118    1.6081    6.4871 C   0  0  0  0  0  0  0  0  0  0  0  0
   -1.3962    1.2278    5.2828 C   0  0  0  0  0  0  0  0  0  0  0  0
    1.7942   -0.3810    4.1401 N   0  0  0  0  0  0  0  0  0  0  0  0
    0.8904   -0.2139    1.0758 H   0  0  0  0  0  0  0  0  0  0  0  0
    3.8818   -0.6957   -4.4360 H   0  0  0  0  0  0  0  0  0  0  0  0
    4.2892    0.1954   -2.9946 H   0  0  0  0  0  0  0  0  0  0  0  0
    2.6023   -0.1857   -3.3300 H   0  0  0  0  0  0  0  0  0  0  0  0
    3.0476   -2.6292   -3.1227 H   0  0  0  0  0  0  0  0  0  0  0  0
    4.7363   -2.3388   -2.8121 H   0  0  0  0  0  0  0  0  0  0  0  0
    2.9995   -3.1996    0.4285 H   0  0  0  0  0  0  0  0  0  0  0  0
    2.5678   -3.8266   -1.1113 H   0  0  0  0  0  0  0  0  0  0  0  0
    4.5561   -5.0135   -0.1059 H   0  0  0  0  0  0  0  0  0  0  0  0
    5.5134   -3.5610   -0.1362 H   0  0  0  0  0  0  0  0  0  0  0  0
    4.9839   -4.2922   -1.6553 H   0  0  0  0  0  0  0  0  0  0  0  0
    5.2635   -1.5078   -0.0319 H   0  0  0  0  0  0  0  0  0  0  0  0
    4.8025   -0.2278   -1.0430 H   0  0  0  0  0  0  0  0  0  0  0  0
    4.2873    0.5965    1.0271 H   0  0  0  0  0  0  0  0  0  0  0  0
    2.7249    0.1491    0.4042 H   0  0  0  0  0  0  0  0  0  0  0  0
    1.4381   -0.0351    6.6841 H   0  0  0  0  0  0  0  0  0  0  0  0
    0.2037    0.6970    8.7182 H   0  0  0  0  0  0  0  0  0  0  0  0
   -2.9825    2.0774    6.4848 H   0  0  0  0  0  0  0  0  0  0  0  0
   -1.9006    1.4044    4.3388 H   0  0  0  0  0  0  0  0  0  0  0  0
    2.5084   -1.4880   -1.1154 H   0  0  0  0  0  0  0  0  0  0  0  0
  1  2  1  0
  1 21  1  0
  1 22  1  0
  1 23  1  0
  2  3  1  0
  2 24  1  0
  2 25  1  0
  3  4  1  0
  3  6  1  0
  3 39  1  0
  4  5  1  0
  4 26  1  0
  4 27  1  0
  5 28  1  0
  5 29  1  0
  5 30  1  0
  6  7  1  0
  6 31  1  0
  6 32  1  0
  7 33  1  0
  7 34  1  0
  7  8  1  0
  8  9  1  0
  9 10  1  0
  9 19  2  0
 10 11  1  0
 10 20  1  0
 11 12  2  0
 12 13  1  0
 12 19  1  0
 13 18  1  0
 13 14  2  0
 14 15  1  0
 14 35  1  0
 15 16  2  0
 15 36  1  0
 16 17  1  0
 17 18  2  0
 17 37  1  0
 18 38  1  0
M  CHG  1   3   1
M  END
>  <i_m_ct_stereo_status>  (436) 
1

>  <s_m_source_file>  (436) 
/var/tmp/pbs.5076255.sched01/tmp54n2b71h/144k2pf1zoq.sdf

>  <i_m_source_file_index>  (436) 
40

>  <i_lp_mmshare_version>  (436) 
48012

>  <i_f3d_flags>  (436) 
0

>  <s_epik_input>  (436) 
W0NIM11bQ0gyXU4oW0NIMl1bQ0gzXSlbQ0gyXVtDSDJdU2MxbltuSF1jKG4xKS1jMltjSF1bY0hdbltjSF1bY0hdMg==

>  <s_epik_cmdline>  (436) 
J2VwaWtfcHl0aG9uJywgJy1waHQnLCAnMi4wJywgJy1waCcsICc3LjAnLCAnLXRuJywgJzgnLCAnLW1hJywgJzIwMCcsICctaW1hZScsICc8aW5maWxlLm1hZT4nLCAnLW9tYWUnLCAnPG91dGZpbGUubWFlPic=

>  <r_lp_tautomer_probability>  (436) 
0.572601

>  <r_epik_Ionization_Penalty>  (436) 
0.237339

>  <r_epik_Ionization_Penalty_Charging>  (436) 
0.0254167

>  <r_epik_Ionization_Penalty_Neutral>  (436) 
0.211922

>  <r_epik_State_Penalty>  (436) 
0.600275

>  <r_epik_Charging_Adjusted_Penalty>  (436) 
0.625692

>  <i_epik_Tot_Q>  (436) 
1

>  <i_epik_Tot_abs_Q>  (436) 
1

>  <s_lp_Force_Field>  (436) 
OPLS3e

>  <r_lp_Energy>  (436) 
34.0635

>  <b_lp_Chiralities_Consistent>  (436) 
1

>  <s_lp_Variant>  (436) 
117:0-2

>  <s_i_glide_gridfile>  (436) 
pfpi4k_grid

>  <i_i_glide_lignum>  (436) 
40

>  <i_i_glide_rotatable_bonds>  (436) 
7

>  <r_i_docking_score>  (436) 
-3.46054

>  <r_i_glide_ligand_efficiency>  (436) 
-0.182134

>  <r_i_glide_ligand_efficiency_sa>  (436) 
-0.486006

>  <r_i_glide_ligand_efficiency_ln>  (436) 
-0.877321

>  <r_i_glide_gscore>  (436) 
-3.46054

>  <r_i_glide_lipo>  (436) 
-0.240185

>  <r_i_glide_hbond>  (436) 
-0.404482

>  <r_i_glide_metal>  (436) 
-0

>  <r_i_glide_rewards>  (436) 
-1.51093

>  <r_i_glide_evdw>  (436) 
-21.0419

>  <r_i_glide_ecoul>  (436) 
-8.20943

>  <r_i_glide_erotb>  (436) 
1.16285

>  <r_i_glide_esite>  (436) 
-0.184284

>  <r_i_glide_emodel>  (436) 
-34.2271

>  <r_i_glide_energy>  (436) 
-29.2513

>  <r_i_glide_einternal>  (436) 
5.25419

>  <r_i_glide_intrahb_reward>  (436) 
-0

>  <i_i_glide_confnum>  (436) 
4

>  <i_i_glide_posenum>  (436) 
35

>  <r_i_glide_eff_state_penalty>  (436) 
0

>  <ligand_id>  (436) 
117

>  <original_smiles>  (436) 
CCN(CC)CCSc1n[nH]c(-c2ccncc2)n1

>  <smiles>  (436) 
[H]c1nc([H])c([H])c(-c2nc(SC([H])([H])C([H])([H])[N+]([H])(C([H])([H])C([H])([H])[H])C([H])([H])C([H])([H])[H])n([H])n2)c1[H]

$$$$
117:1:1
     RDKit          3D

 39 40  0  0  1  0  0  0  0  0999 V2000
    3.6241   -0.7432   -3.7381 C   0  0  0  0  0  0  0  0  0  0  0  0
    4.3446   -0.8538   -2.3822 C   0  0  0  0  0  0  0  0  0  0  0  0
    3.6422   -1.7409   -1.4103 N   0  0  0  0  0  0  0  0  0  0  0  0
    3.6343   -3.1781   -1.8130 C   0  0  0  0  0  0  0  0  0  0  0  0
    5.0403   -3.8125   -1.8462 C   0  0  0  0  0  0  0  0  0  0  0  0
    4.1087   -1.5483   -0.0011 C   0  0  0  0  0  0  0  0  0  0  0  0
    3.3074   -0.4611    0.7333 C   0  0  0  0  0  0  0  0  0  0  0  0
    3.3436   -0.6128    2.5401 S   0  0  0  0  0  0  0  0  0  0  0  0
    1.8005    0.1785    2.9264 C   0  0  0  0  0  0  0  0  0  0  0  0
    0.7612    0.2676    2.0815 N   0  0  0  0  0  0  0  0  0  0  0  0
   -0.2728    0.8845    2.6811 N   0  0  0  0  0  0  0  0  0  0  0  0
    0.2399    1.1412    3.8778 C   0  0  0  0  0  0  0  0  0  0  0  0
   -0.5603    1.8202    4.9135 C   0  0  0  0  0  0  0  0  0  0  0  0
   -0.0617    1.9955    6.2227 C   0  0  0  0  0  0  0  0  0  0  0  0
   -0.8577    2.6483    7.1792 C   0  0  0  0  0  0  0  0  0  0  0  0
   -2.0937    3.1151    6.9171 N   0  0  0  0  0  0  0  0  0  0  0  0
   -2.5765    2.9475    5.6718 C   0  0  0  0  0  0  0  0  0  0  0  0
   -1.8564    2.3133    4.6441 C   0  0  0  0  0  0  0  0  0  0  0  0
    1.5223    0.7160    4.1101 N   0  0  0  0  0  0  0  0  0  0  0  0
    0.7214   -0.0480    1.1181 H   0  0  0  0  0  0  0  0  0  0  0  0
    4.1603   -0.0506   -4.3886 H   0  0  0  0  0  0  0  0  0  0  0  0
    2.6107   -0.3620   -3.6129 H   0  0  0  0  0  0  0  0  0  0  0  0
    3.5710   -1.6984   -4.2675 H   0  0  0  0  0  0  0  0  0  0  0  0
    5.3680   -1.1890   -2.5415 H   0  0  0  0  0  0  0  0  0  0  0  0
    4.4365    0.1452   -1.9580 H   0  0  0  0  0  0  0  0  0  0  0  0
    2.9980   -3.7293   -1.1180 H   0  0  0  0  0  0  0  0  0  0  0  0
    3.1512   -3.3065   -2.7825 H   0  0  0  0  0  0  0  0  0  0  0  0
    4.9806   -4.8786   -2.0633 H   0  0  0  0  0  0  0  0  0  0  0  0
    5.5540   -3.7090   -0.8862 H   0  0  0  0  0  0  0  0  0  0  0  0
    5.6762   -3.3743   -2.6202 H   0  0  0  0  0  0  0  0  0  0  0  0
    3.9745   -2.4823    0.5468 H   0  0  0  0  0  0  0  0  0  0  0  0
    5.1762   -1.3263    0.0344 H   0  0  0  0  0  0  0  0  0  0  0  0
    3.6226    0.5491    0.4799 H   0  0  0  0  0  0  0  0  0  0  0  0
    2.2743   -0.6050    0.4622 H   0  0  0  0  0  0  0  0  0  0  0  0
    0.9222    1.6365    6.4865 H   0  0  0  0  0  0  0  0  0  0  0  0
   -0.4868    2.7952    8.1825 H   0  0  0  0  0  0  0  0  0  0  0  0
   -3.5648    3.3387    5.4906 H   0  0  0  0  0  0  0  0  0  0  0  0
   -2.3023    2.2059    3.6635 H   0  0  0  0  0  0  0  0  0  0  0  0
    2.6628   -1.4613   -1.4166 H   0  0  0  0  0  0  0  0  0  0  0  0
  1  2  1  0
  1 21  1  0
  1 22  1  0
  1 23  1  0
  2  3  1  0
  2 24  1  0
  2 25  1  0
  3  4  1  0
  3  6  1  0
  3 39  1  0
  4  5  1  0
  4 26  1  0
  4 27  1  0
  5 28  1  0
  5 29  1  0
  5 30  1  0
  6  7  1  0
  6 31  1  0
  6 32  1  0
  7 33  1  0
  7 34  1  0
  7  8  1  0
  8  9  1  0
  9 10  1  0
  9 19  2  0
 10 11  1  0
 10 20  1  0
 11 12  2  0
 12 13  1  0
 12 19  1  0
 13 18  1  0
 13 14  2  0
 14 15  1  0
 14 35  1  0
 15 16  2  0
 15 36  1  0
 16 17  1  0
 17 18  2  0
 17 37  1  0
 18 38  1  0
M  CHG  1   3   1
M  END
>  <i_m_ct_stereo_status>  (437) 
1

>  <s_m_source_file>  (437) 
/var/tmp/pbs.5076255.sched01/tmp54n2b71h/144k2pf1zoq.sdf

>  <i_m_source_file_index>  (437) 
40

>  <i_lp_mmshare_version>  (437) 
48012

>  <i_f3d_flags>  (437) 
0

>  <s_epik_input>  (437) 
W0NIM11bQ0gyXU4oW0NIMl1bQ0gzXSlbQ0gyXVtDSDJdU2MxbltuSF1jKG4xKS1jMltjSF1bY0hdbltjSF1bY0hdMg==

>  <s_epik_cmdline>  (437) 
J2VwaWtfcHl0aG9uJywgJy1waHQnLCAnMi4wJywgJy1waCcsICc3LjAnLCAnLXRuJywgJzgnLCAnLW1hJywgJzIwMCcsICctaW1hZScsICc8aW5maWxlLm1hZT4nLCAnLW9tYWUnLCAnPG91dGZpbGUubWFlPic=

>  <r_lp_tautomer_probability>  (437) 
0.572601

>  <r_epik_Ionization_Penalty>  (437) 
0.237339

>  <r_epik_Ionization_Penalty_Charging>  (437) 
0.0254167

>  <r_epik_Ionization_Penalty_Neutral>  (437) 
0.211922

>  <r_epik_State_Penalty>  (437) 
0.600275

>  <r_epik_Charging_Adjusted_Penalty>  (437) 
0.625692

>  <i_epik_Tot_Q>  (437) 
1

>  <i_epik_Tot_abs_Q>  (437) 
1

>  <s_lp_Force_Field>  (437) 
OPLS3e

>  <r_lp_Energy>  (437) 
34.0635

>  <b_lp_Chiralities_Consistent>  (437) 
1

>  <s_lp_Variant>  (437) 
117:0-2

>  <s_i_glide_gridfile>  (437) 
pfpi4k_grid

>  <i_i_glide_lignum>  (437) 
40

>  <i_i_glide_rotatable_bonds>  (437) 
7

>  <r_i_docking_score>  (437) 
-3.29462

>  <r_i_glide_ligand_efficiency>  (437) 
-0.173401

>  <r_i_glide_ligand_efficiency_sa>  (437) 
-0.462704

>  <r_i_glide_ligand_efficiency_ln>  (437) 
-0.835257

>  <r_i_glide_gscore>  (437) 
-3.29462

>  <r_i_glide_lipo>  (437) 
-0.266741

>  <r_i_glide_hbond>  (437) 
-0.317309

>  <r_i_glide_metal>  (437) 
-0

>  <r_i_glide_rewards>  (437) 
-1.51093

>  <r_i_glide_evdw>  (437) 
-22.9746

>  <r_i_glide_ecoul>  (437) 
-6.92643

>  <r_i_glide_erotb>  (437) 
1.16285

>  <r_i_glide_esite>  (437) 
-0.174794

>  <r_i_glide_emodel>  (437) 
-35.3135

>  <r_i_glide_energy>  (437) 
-29.9011

>  <r_i_glide_einternal>  (437) 
4.44014

>  <r_i_glide_intrahb_reward>  (437) 
-0

>  <i_i_glide_confnum>  (437) 
6

>  <i_i_glide_posenum>  (437) 
4

>  <r_i_glide_eff_state_penalty>  (437) 
0

>  <ligand_id>  (437) 
117

>  <original_smiles>  (437) 
CCN(CC)CCSc1n[nH]c(-c2ccncc2)n1

>  <smiles>  (437) 
[H]c1nc([H])c([H])c(-c2nc(SC([H])([H])C([H])([H])[N+]([H])(C([H])([H])C([H])([H])[H])C([H])([H])C([H])([H])[H])n([H])n2)c1[H]

$$$$
117:1:2
     RDKit          3D

 39 40  0  0  1  0  0  0  0  0999 V2000
    5.3047   -4.0777   -0.9328 C   0  0  0  0  0  0  0  0  0  0  0  0
    5.5981   -2.5610   -1.1233 C   0  0  0  0  0  0  0  0  0  0  0  0
    4.3613   -1.7058   -1.1075 N   0  0  0  0  0  0  0  0  0  0  0  0
    3.6311   -1.6360   -2.4256 C   0  0  0  0  0  0  0  0  0  0  0  0
    3.0305   -2.9743   -2.9295 C   0  0  0  0  0  0  0  0  0  0  0  0
    3.4495   -1.9791    0.0407 C   0  0  0  0  0  0  0  0  0  0  0  0
    4.1410   -1.9368    1.4327 C   0  0  0  0  0  0  0  0  0  0  0  0
    4.3728   -0.2469    2.0072 S   0  0  0  0  0  0  0  0  0  0  0  0
    2.6893    0.1852    2.3138 C   0  0  0  0  0  0  0  0  0  0  0  0
    1.6682   -0.6695    2.2391 N   0  0  0  0  0  0  0  0  0  0  0  0
    0.5148   -0.0313    2.4919 N   0  0  0  0  0  0  0  0  0  0  0  0
    0.9437    1.1956    2.7185 C   0  0  0  0  0  0  0  0  0  0  0  0
    0.0196    2.2774    3.1082 C   0  0  0  0  0  0  0  0  0  0  0  0
    0.4928    3.4589    3.6952 C   0  0  0  0  0  0  0  0  0  0  0  0
   -0.4213    4.4666    4.0306 C   0  0  0  0  0  0  0  0  0  0  0  0
   -1.7529    4.3536    3.8333 N   0  0  0  0  0  0  0  0  0  0  0  0
   -2.2078    3.2133    3.2801 C   0  0  0  0  0  0  0  0  0  0  0  0
   -1.3757    2.1479    2.9064 C   0  0  0  0  0  0  0  0  0  0  0  0
    2.2945    1.4032    2.6426 N   0  0  0  0  0  0  0  0  0  0  0  0
    1.6997   -1.6297    1.9311 H   0  0  0  0  0  0  0  0  0  0  0  0
    6.2241   -4.6177   -0.9611 H   0  0  0  0  0  0  0  0  0  0  0  0
    4.7102   -4.5397   -1.6819 H   0  0  0  0  0  0  0  0  0  0  0  0
    4.8485   -4.2987    0.0174 H   0  0  0  0  0  0  0  0  0  0  0  0
    6.2618   -2.1953   -0.3407 H   0  0  0  0  0  0  0  0  0  0  0  0
    6.1568   -2.3296   -2.0379 H   0  0  0  0  0  0  0  0  0  0  0  0
    2.8473   -0.8790   -2.3476 H   0  0  0  0  0  0  0  0  0  0  0  0
    4.3376   -1.2571   -3.1723 H   0  0  0  0  0  0  0  0  0  0  0  0
    2.3679   -2.8190   -3.7794 H   0  0  0  0  0  0  0  0  0  0  0  0
    2.4468   -3.4611   -2.1571 H   0  0  0  0  0  0  0  0  0  0  0  0
    3.8003   -3.6361   -3.2935 H   0  0  0  0  0  0  0  0  0  0  0  0
    2.6342   -1.2519   -0.0336 H   0  0  0  0  0  0  0  0  0  0  0  0
    2.9701   -2.9521   -0.0659 H   0  0  0  0  0  0  0  0  0  0  0  0
    3.5348   -2.4966    2.1548 H   0  0  0  0  0  0  0  0  0  0  0  0
    5.0930   -2.4632    1.4662 H   0  0  0  0  0  0  0  0  0  0  0  0
    1.5499    3.6017    3.8663 H   0  0  0  0  0  0  0  0  0  0  0  0
   -0.0741    5.3821    4.4738 H   0  0  0  0  0  0  0  0  0  0  0  0
   -3.2735    3.1481    3.1283 H   0  0  0  0  0  0  0  0  0  0  0  0
   -1.7887    1.2661    2.4512 H   0  0  0  0  0  0  0  0  0  0  0  0
    4.6660   -0.7491   -0.9399 H   0  0  0  0  0  0  0  0  0  0  0  0
  1  2  1  0
  1 21  1  0
  1 22  1  0
  1 23  1  0
  2  3  1  0
  2 24  1  0
  2 25  1  0
  3  4  1  0
  3  6  1  0
  3 39  1  0
  4  5  1  0
  4 26  1  0
  4 27  1  0
  5 28  1  0
  5 29  1  0
  5 30  1  0
  6  7  1  0
  6 31  1  0
  6 32  1  0
  7 33  1  0
  7 34  1  0
  7  8  1  0
  8  9  1  0
  9 10  1  0
  9 19  2  0
 10 11  1  0
 10 20  1  0
 11 12  2  0
 12 13  1  0
 12 19  1  0
 13 18  1  0
 13 14  2  0
 14 15  1  0
 14 35  1  0
 15 16  2  0
 15 36  1  0
 16 17  1  0
 17 18  2  0
 17 37  1  0
 18 38  1  0
M  CHG  1   3   1
M  END
>  <i_m_ct_stereo_status>  (438) 
1

>  <s_m_source_file>  (438) 
/var/tmp/pbs.5076255.sched01/tmp54n2b71h/144k2pf1zoq.sdf

>  <i_m_source_file_index>  (438) 
40

>  <i_lp_mmshare_version>  (438) 
48012

>  <i_f3d_flags>  (438) 
0

>  <s_epik_input>  (438) 
W0NIM11bQ0gyXU4oW0NIMl1bQ0gzXSlbQ0gyXVtDSDJdU2MxbltuSF1jKG4xKS1jMltjSF1bY0hdbltjSF1bY0hdMg==

>  <s_epik_cmdline>  (438) 
J2VwaWtfcHl0aG9uJywgJy1waHQnLCAnMi4wJywgJy1waCcsICc3LjAnLCAnLXRuJywgJzgnLCAnLW1hJywgJzIwMCcsICctaW1hZScsICc8aW5maWxlLm1hZT4nLCAnLW9tYWUnLCAnPG91dGZpbGUubWFlPic=

>  <r_lp_tautomer_probability>  (438) 
0.572601

>  <r_epik_Ionization_Penalty>  (438) 
0.237339

>  <r_epik_Ionization_Penalty_Charging>  (438) 
0.0254167

>  <r_epik_Ionization_Penalty_Neutral>  (438) 
0.211922

>  <r_epik_State_Penalty>  (438) 
0.600275

>  <r_epik_Charging_Adjusted_Penalty>  (438) 
0.625692

>  <i_epik_Tot_Q>  (438) 
1

>  <i_epik_Tot_abs_Q>  (438) 
1

>  <s_lp_Force_Field>  (438) 
OPLS3e

>  <r_lp_Energy>  (438) 
34.0635

>  <b_lp_Chiralities_Consistent>  (438) 
1

>  <s_lp_Variant>  (438) 
117:0-2

>  <s_i_glide_gridfile>  (438) 
pfpi4k_grid

>  <i_i_glide_lignum>  (438) 
40

>  <i_i_glide_rotatable_bonds>  (438) 
7

>  <r_i_docking_score>  (438) 
-2.80985

>  <r_i_glide_ligand_efficiency>  (438) 
-0.147887

>  <r_i_glide_ligand_efficiency_sa>  (438) 
-0.394622

>  <r_i_glide_ligand_efficiency_ln>  (438) 
-0.712358

>  <r_i_glide_gscore>  (438) 
-2.80985

>  <r_i_glide_lipo>  (438) 
-0.111804

>  <r_i_glide_hbond>  (438) 
-0.133433

>  <r_i_glide_metal>  (438) 
-0

>  <r_i_glide_rewards>  (438) 
-1.51093

>  <r_i_glide_evdw>  (438) 
-23.2136

>  <r_i_glide_ecoul>  (438) 
-6.21481

>  <r_i_glide_erotb>  (438) 
1.16285

>  <r_i_glide_esite>  (438) 
-0.123635

>  <r_i_glide_emodel>  (438) 
-33.3419

>  <r_i_glide_energy>  (438) 
-29.4284

>  <r_i_glide_einternal>  (438) 
3.95693

>  <r_i_glide_intrahb_reward>  (438) 
-0

>  <i_i_glide_confnum>  (438) 
5

>  <i_i_glide_posenum>  (438) 
26

>  <r_i_glide_eff_state_penalty>  (438) 
0

>  <ligand_id>  (438) 
117

>  <original_smiles>  (438) 
CCN(CC)CCSc1n[nH]c(-c2ccncc2)n1

>  <smiles>  (438) 
[H]c1nc([H])c([H])c(-c2nc(SC([H])([H])C([H])([H])[N+]([H])(C([H])([H])C([H])([H])[H])C([H])([H])C([H])([H])[H])n([H])n2)c1[H]

$$$$
117:2:0
     RDKit          3D

 38 39  0  0  1  0  0  0  0  0999 V2000
    2.2878   -3.3460   -2.0079 C   0  0  0  0  0  0  0  0  0  0  0  0
    3.4506   -2.7088   -1.2362 C   0  0  0  0  0  0  0  0  0  0  0  0
    3.0156   -1.9267   -0.0463 N   0  0  0  0  0  0  0  0  0  0  0  0
    3.9810   -0.8367    0.2803 C   0  0  0  0  0  0  0  0  0  0  0  0
    5.3325   -1.3386    0.8460 C   0  0  0  0  0  0  0  0  0  0  0  0
    2.6730   -2.7870    1.1233 C   0  0  0  0  0  0  0  0  0  0  0  0
    1.8497   -2.0114    2.1629 C   0  0  0  0  0  0  0  0  0  0  0  0
    1.3371   -2.9983    3.6019 S   0  0  0  0  0  0  0  0  0  0  0  0
    0.2431   -1.8749    4.4068 C   0  0  0  0  0  0  0  0  0  0  0  0
   -0.6071   -2.1639    5.4142 N   0  0  0  0  0  0  0  0  0  0  0  0
   -1.2874   -1.0689    5.7045 N   0  0  0  0  0  0  0  0  0  0  0  0
   -0.8198   -0.1316    4.8586 C   0  0  0  0  0  0  0  0  0  0  0  0
   -1.2772    1.2698    4.8215 C   0  0  0  0  0  0  0  0  0  0  0  0
   -1.8745    1.8686    5.9517 C   0  0  0  0  0  0  0  0  0  0  0  0
   -2.3067    3.2024    5.8622 C   0  0  0  0  0  0  0  0  0  0  0  0
   -2.1765    3.9498    4.7509 N   0  0  0  0  0  0  0  0  0  0  0  0
   -1.5934    3.3876    3.6728 C   0  0  0  0  0  0  0  0  0  0  0  0
   -1.1295    2.0607    3.6625 C   0  0  0  0  0  0  0  0  0  0  0  0
    0.1206   -0.6091    4.0412 N   0  0  0  0  0  0  0  0  0  0  0  0
    2.6584   -3.8339   -2.9114 H   0  0  0  0  0  0  0  0  0  0  0  0
    1.5588   -2.6004   -2.3277 H   0  0  0  0  0  0  0  0  0  0  0  0
    1.7716   -4.1032   -1.4166 H   0  0  0  0  0  0  0  0  0  0  0  0
    4.1716   -3.4758   -0.9379 H   0  0  0  0  0  0  0  0  0  0  0  0
    3.9867   -2.0549   -1.9276 H   0  0  0  0  0  0  0  0  0  0  0  0
    4.1891   -0.2547   -0.6184 H   0  0  0  0  0  0  0  0  0  0  0  0
    3.5332   -0.1272    0.9771 H   0  0  0  0  0  0  0  0  0  0  0  0
    6.0271   -0.5073    0.9898 H   0  0  0  0  0  0  0  0  0  0  0  0
    5.8057   -2.0499    0.1680 H   0  0  0  0  0  0  0  0  0  0  0  0
    5.2204   -1.8143    1.8209 H   0  0  0  0  0  0  0  0  0  0  0  0
    2.1145   -3.6576    0.7833 H   0  0  0  0  0  0  0  0  0  0  0  0
    3.5666   -3.2102    1.5881 H   0  0  0  0  0  0  0  0  0  0  0  0
    2.4060   -1.1606    2.5661 H   0  0  0  0  0  0  0  0  0  0  0  0
    0.9495   -1.6227    1.6816 H   0  0  0  0  0  0  0  0  0  0  0  0
   -2.0067    1.3149    6.8651 H   0  0  0  0  0  0  0  0  0  0  0  0
   -2.7793    3.6753    6.7098 H   0  0  0  0  0  0  0  0  0  0  0  0
   -1.5003    4.0158    2.8024 H   0  0  0  0  0  0  0  0  0  0  0  0
   -0.6719    1.6582    2.7697 H   0  0  0  0  0  0  0  0  0  0  0  0
    2.1278   -1.4628   -0.3243 H   0  0  0  0  0  0  0  0  0  0  0  0
  1  2  1  0
  1 20  1  0
  1 21  1  0
  1 22  1  0
  2  3  1  0
  2 23  1  0
  2 24  1  0
  3  4  1  0
  3  6  1  0
  3 38  1  0
  4  5  1  0
  4 25  1  0
  4 26  1  0
  5 27  1  0
  5 28  1  0
  5 29  1  0
  6  7  1  0
  6 30  1  0
  6 31  1  0
  7 32  1  0
  7 33  1  0
  7  8  1  0
  8  9  1  0
  9 10  1  0
  9 19  2  0
 10 11  1  0
 11 12  2  0
 12 13  1  0
 12 19  1  0
 13 18  1  0
 13 14  2  0
 14 15  1  0
 14 34  1  0
 15 16  2  0
 15 35  1  0
 16 17  1  0
 17 18  2  0
 17 36  1  0
 18 37  1  0
M  CHG  2   3   1  10  -1
M  END
>  <i_m_ct_stereo_status>  (439) 
1

>  <s_m_source_file>  (439) 
/var/tmp/pbs.5076255.sched01/tmp54n2b71h/144k2pf1zoq.sdf

>  <i_m_source_file_index>  (439) 
41

>  <i_lp_mmshare_version>  (439) 
48012

>  <i_f3d_flags>  (439) 
0

>  <s_epik_input>  (439) 
W0NIM11bQ0gyXU4oW0NIMl1bQ0gzXSlbQ0gyXVtDSDJdU2MxbltuSF1jKG4xKS1jMltjSF1bY0hdbltjSF1bY0hdMg==

>  <s_epik_cmdline>  (439) 
J2VwaWtfcHl0aG9uJywgJy1waHQnLCAnMi4wJywgJy1waCcsICc3LjAnLCAnLXRuJywgJzgnLCAnLW1hJywgJzIwMCcsICctaW1hZScsICc8aW5maWxlLm1hZT4nLCAnLW9tYWUnLCAnPG91dGZpbGUubWFlPic=

>  <r_lp_tautomer_probability>  (439) 
1

>  <r_epik_Ionization_Penalty>  (439) 
2.4771

>  <r_epik_Ionization_Penalty_Charging>  (439) 
2.4379

>  <r_epik_Ionization_Penalty_Neutral>  (439) 
0.0392007

>  <r_epik_State_Penalty>  (439) 
1.95274

>  <r_epik_Charging_Adjusted_Penalty>  (439) 
4.39064

>  <i_epik_Tot_Q>  (439) 
0

>  <i_epik_Tot_abs_Q>  (439) 
2

>  <s_lp_Force_Field>  (439) 
OPLS3e

>  <r_lp_Energy>  (439) 
20.7068

>  <b_lp_Chiralities_Consistent>  (439) 
1

>  <s_lp_Variant>  (439) 
117:0-3

>  <s_i_glide_gridfile>  (439) 
pfpi4k_grid

>  <i_i_glide_lignum>  (439) 
41

>  <i_i_glide_rotatable_bonds>  (439) 
7

>  <r_i_docking_score>  (439) 
-3.19448

>  <r_i_glide_ligand_efficiency>  (439) 
-0.168131

>  <r_i_glide_ligand_efficiency_sa>  (439) 
-0.44864

>  <r_i_glide_ligand_efficiency_ln>  (439) 
-0.809869

>  <r_i_glide_gscore>  (439) 
-3.19448

>  <r_i_glide_lipo>  (439) 
-0.363133

>  <r_i_glide_hbond>  (439) 
-0.2

>  <r_i_glide_metal>  (439) 
-0

>  <r_i_glide_rewards>  (439) 
-1.54943

>  <r_i_glide_evdw>  (439) 
-19.916

>  <r_i_glide_ecoul>  (439) 
-7.0504

>  <r_i_glide_erotb>  (439) 
1.17019

>  <r_i_glide_esite>  (439) 
-0.198743

>  <r_i_glide_emodel>  (439) 
-34.6269

>  <r_i_glide_energy>  (439) 
-26.9664

>  <r_i_glide_einternal>  (439) 
2.82287

>  <r_i_glide_intrahb_reward>  (439) 
-0

>  <i_i_glide_confnum>  (439) 
6

>  <i_i_glide_posenum>  (439) 
23

>  <r_i_glide_eff_state_penalty>  (439) 
0

>  <ligand_id>  (439) 
117

>  <original_smiles>  (439) 
CCN(CC)CCSc1n[nH]c(-c2ccncc2)n1

>  <smiles>  (439) 
[H]c1nc([H])c([H])c(-c2n[n-]c(SC([H])([H])C([H])([H])[N+]([H])(C([H])([H])C([H])([H])[H])C([H])([H])C([H])([H])[H])n2)c1[H]

$$$$
117:2:1
     RDKit          3D

 38 39  0  0  1  0  0  0  0  0999 V2000
    3.9962   -3.6944   -3.7522 C   0  0  0  0  0  0  0  0  0  0  0  0
    2.7548   -2.9562   -3.2002 C   0  0  0  0  0  0  0  0  0  0  0  0
    3.1060   -1.8054   -2.3207 N   0  0  0  0  0  0  0  0  0  0  0  0
    3.8962   -0.7415   -3.0127 C   0  0  0  0  0  0  0  0  0  0  0  0
    3.1884   -0.1386   -4.2370 C   0  0  0  0  0  0  0  0  0  0  0  0
    3.7298   -2.2510   -1.0430 C   0  0  0  0  0  0  0  0  0  0  0  0
    3.6542   -1.1748    0.0453 C   0  0  0  0  0  0  0  0  0  0  0  0
    4.5543   -1.5680    1.5664 S   0  0  0  0  0  0  0  0  0  0  0  0
    3.8555   -0.4090    2.6970 C   0  0  0  0  0  0  0  0  0  0  0  0
    4.4327    0.0490    3.8228 N   0  0  0  0  0  0  0  0  0  0  0  0
    3.5969    0.9017    4.3948 N   0  0  0  0  0  0  0  0  0  0  0  0
    2.5184    0.9319    3.5858 C   0  0  0  0  0  0  0  0  0  0  0  0
    1.2946    1.7319    3.8246 C   0  0  0  0  0  0  0  0  0  0  0  0
    1.1417    2.5114    4.9892 C   0  0  0  0  0  0  0  0  0  0  0  0
   -0.0362    3.2562    5.1733 C   0  0  0  0  0  0  0  0  0  0  0  0
   -1.0564    3.2659    4.2926 N   0  0  0  0  0  0  0  0  0  0  0  0
   -0.9178    2.5248    3.1739 C   0  0  0  0  0  0  0  0  0  0  0  0
    0.2215    1.7438    2.9008 C   0  0  0  0  0  0  0  0  0  0  0  0
    2.6558    0.1273    2.5290 N   0  0  0  0  0  0  0  0  0  0  0  0
    3.6950   -4.5721   -4.3223 H   0  0  0  0  0  0  0  0  0  0  0  0
    4.6433   -4.0517   -2.9481 H   0  0  0  0  0  0  0  0  0  0  0  0
    4.5953   -3.0616   -4.4100 H   0  0  0  0  0  0  0  0  0  0  0  0
    2.1325   -2.6189   -4.0306 H   0  0  0  0  0  0  0  0  0  0  0  0
    2.1172   -3.6527   -2.6497 H   0  0  0  0  0  0  0  0  0  0  0  0
    4.1189    0.0854   -2.3415 H   0  0  0  0  0  0  0  0  0  0  0  0
    4.8730   -1.1309   -3.3010 H   0  0  0  0  0  0  0  0  0  0  0  0
    3.7821    0.6852   -4.6376 H   0  0  0  0  0  0  0  0  0  0  0  0
    2.2133    0.2639   -3.9647 H   0  0  0  0  0  0  0  0  0  0  0  0
    3.0551   -0.8606   -5.0463 H   0  0  0  0  0  0  0  0  0  0  0  0
    3.2049   -3.1390   -0.6809 H   0  0  0  0  0  0  0  0  0  0  0  0
    4.7676   -2.5414   -1.1988 H   0  0  0  0  0  0  0  0  0  0  0  0
    4.0433   -0.2090   -0.2673 H   0  0  0  0  0  0  0  0  0  0  0  0
    2.6111   -1.0414    0.3036 H   0  0  0  0  0  0  0  0  0  0  0  0
    1.9267    2.5372    5.7290 H   0  0  0  0  0  0  0  0  0  0  0  0
   -0.1615    3.8598    6.0593 H   0  0  0  0  0  0  0  0  0  0  0  0
   -1.7445    2.5560    2.4795 H   0  0  0  0  0  0  0  0  0  0  0  0
    0.2770    1.1736    1.9843 H   0  0  0  0  0  0  0  0  0  0  0  0
    2.2183   -1.3934   -2.0294 H   0  0  0  0  0  0  0  0  0  0  0  0
  1  2  1  0
  1 20  1  0
  1 21  1  0
  1 22  1  0
  2  3  1  0
  2 23  1  0
  2 24  1  0
  3  4  1  0
  3  6  1  0
  3 38  1  0
  4  5  1  0
  4 25  1  0
  4 26  1  0
  5 27  1  0
  5 28  1  0
  5 29  1  0
  6  7  1  0
  6 30  1  0
  6 31  1  0
  7 32  1  0
  7 33  1  0
  7  8  1  0
  8  9  1  0
  9 10  1  0
  9 19  2  0
 10 11  1  0
 11 12  2  0
 12 13  1  0
 12 19  1  0
 13 18  1  0
 13 14  2  0
 14 15  1  0
 14 34  1  0
 15 16  2  0
 15 35  1  0
 16 17  1  0
 17 18  2  0
 17 36  1  0
 18 37  1  0
M  CHG  2   3   1  10  -1
M  END
>  <i_m_ct_stereo_status>  (440) 
1

>  <s_m_source_file>  (440) 
/var/tmp/pbs.5076255.sched01/tmp54n2b71h/144k2pf1zoq.sdf

>  <i_m_source_file_index>  (440) 
41

>  <i_lp_mmshare_version>  (440) 
48012

>  <i_f3d_flags>  (440) 
0

>  <s_epik_input>  (440) 
W0NIM11bQ0gyXU4oW0NIMl1bQ0gzXSlbQ0gyXVtDSDJdU2MxbltuSF1jKG4xKS1jMltjSF1bY0hdbltjSF1bY0hdMg==

>  <s_epik_cmdline>  (440) 
J2VwaWtfcHl0aG9uJywgJy1waHQnLCAnMi4wJywgJy1waCcsICc3LjAnLCAnLXRuJywgJzgnLCAnLW1hJywgJzIwMCcsICctaW1hZScsICc8aW5maWxlLm1hZT4nLCAnLW9tYWUnLCAnPG91dGZpbGUubWFlPic=

>  <r_lp_tautomer_probability>  (440) 
1

>  <r_epik_Ionization_Penalty>  (440) 
2.4771

>  <r_epik_Ionization_Penalty_Charging>  (440) 
2.4379

>  <r_epik_Ionization_Penalty_Neutral>  (440) 
0.0392007

>  <r_epik_State_Penalty>  (440) 
1.95274

>  <r_epik_Charging_Adjusted_Penalty>  (440) 
4.39064

>  <i_epik_Tot_Q>  (440) 
0

>  <i_epik_Tot_abs_Q>  (440) 
2

>  <s_lp_Force_Field>  (440) 
OPLS3e

>  <r_lp_Energy>  (440) 
20.7068

>  <b_lp_Chiralities_Consistent>  (440) 
1

>  <s_lp_Variant>  (440) 
117:0-3

>  <s_i_glide_gridfile>  (440) 
pfpi4k_grid

>  <i_i_glide_lignum>  (440) 
41

>  <i_i_glide_rotatable_bonds>  (440) 
7

>  <r_i_docking_score>  (440) 
-2.84652

>  <r_i_glide_ligand_efficiency>  (440) 
-0.149817

>  <r_i_glide_ligand_efficiency_sa>  (440) 
-0.399771

>  <r_i_glide_ligand_efficiency_ln>  (440) 
-0.721654

>  <r_i_glide_gscore>  (440) 
-2.84652

>  <r_i_glide_lipo>  (440) 
-0.493081

>  <r_i_glide_hbond>  (440) 
-0.2

>  <r_i_glide_metal>  (440) 
-0

>  <r_i_glide_rewards>  (440) 
-1.56041

>  <r_i_glide_evdw>  (440) 
-24.1618

>  <r_i_glide_ecoul>  (440) 
-3.18263

>  <r_i_glide_erotb>  (440) 
1.17019

>  <r_i_glide_esite>  (440) 
-0.0777331

>  <r_i_glide_emodel>  (440) 
-34.0084

>  <r_i_glide_energy>  (440) 
-27.3444

>  <r_i_glide_einternal>  (440) 
2.4709

>  <r_i_glide_intrahb_reward>  (440) 
-0

>  <i_i_glide_confnum>  (440) 
6

>  <i_i_glide_posenum>  (440) 
27

>  <r_i_glide_eff_state_penalty>  (440) 
0

>  <ligand_id>  (440) 
117

>  <original_smiles>  (440) 
CCN(CC)CCSc1n[nH]c(-c2ccncc2)n1

>  <smiles>  (440) 
[H]c1nc([H])c([H])c(-c2n[n-]c(SC([H])([H])C([H])([H])[N+]([H])(C([H])([H])C([H])([H])[H])C([H])([H])C([H])([H])[H])n2)c1[H]

$$$$
117:2:2
     RDKit          3D

 38 39  0  0  1  0  0  0  0  0999 V2000
    3.7504   -9.9070    4.8954 C   0  0  0  0  0  0  0  0  0  0  0  0
    2.5909  -10.2938    5.8649 C   0  0  0  0  0  0  0  0  0  0  0  0
    1.2195   -9.9553    5.3549 N   0  0  0  0  0  0  0  0  0  0  0  0
    0.8314  -10.7514    4.1421 C   0  0  0  0  0  0  0  0  0  0  0  0
    0.6162  -12.2233    4.4822 C   0  0  0  0  0  0  0  0  0  0  0  0
    1.0861   -8.4747    5.1860 C   0  0  0  0  0  0  0  0  0  0  0  0
   -0.3745   -7.9739    4.9761 C   0  0  0  0  0  0  0  0  0  0  0  0
   -1.1004   -8.0231    3.2779 S   0  0  0  0  0  0  0  0  0  0  0  0
    0.0638   -7.3658    2.1579 C   0  0  0  0  0  0  0  0  0  0  0  0
   -0.1720   -6.5862    1.0975 N   0  0  0  0  0  0  0  0  0  0  0  0
    0.9894   -6.2353    0.5792 N   0  0  0  0  0  0  0  0  0  0  0  0
    1.9258   -6.7744    1.3787 C   0  0  0  0  0  0  0  0  0  0  0  0
    3.3718   -6.5535    1.2856 C   0  0  0  0  0  0  0  0  0  0  0  0
    3.8991   -5.5584    0.4370 C   0  0  0  0  0  0  0  0  0  0  0  0
    5.2993   -5.4221    0.3271 C   0  0  0  0  0  0  0  0  0  0  0  0
    6.1792   -6.1777    1.0088 N   0  0  0  0  0  0  0  0  0  0  0  0
    5.6818   -7.1085    1.8505 C   0  0  0  0  0  0  0  0  0  0  0  0
    4.3000   -7.3223    2.0157 C   0  0  0  0  0  0  0  0  0  0  0  0
    1.3633   -7.5014    2.3253 N   0  0  0  0  0  0  0  0  0  0  0  0
    4.7153  -10.1273    5.3614 H   0  0  0  0  0  0  0  0  0  0  0  0
    3.7893   -8.8376    4.6915 H   0  0  0  0  0  0  0  0  0  0  0  0
    3.7009  -10.4513    3.9465 H   0  0  0  0  0  0  0  0  0  0  0  0
    2.6512  -11.3588    6.0858 H   0  0  0  0  0  0  0  0  0  0  0  0
    2.7256   -9.7675    6.8125 H   0  0  0  0  0  0  0  0  0  0  0  0
   -0.1249  -10.4215    3.7424 H   0  0  0  0  0  0  0  0  0  0  0  0
    1.5556  -10.6332    3.3219 H   0  0  0  0  0  0  0  0  0  0  0  0
    0.2118  -12.7405    3.6114 H   0  0  0  0  0  0  0  0  0  0  0  0
   -0.1091  -12.3287    5.2961 H   0  0  0  0  0  0  0  0  0  0  0  0
    1.5546  -12.6960    4.7890 H   0  0  0  0  0  0  0  0  0  0  0  0
    1.4842   -7.9682    6.0819 H   0  0  0  0  0  0  0  0  0  0  0  0
    1.7850   -8.1895    4.4003 H   0  0  0  0  0  0  0  0  0  0  0  0
   -1.0473   -8.4942    5.6741 H   0  0  0  0  0  0  0  0  0  0  0  0
   -0.4030   -6.9172    5.2399 H   0  0  0  0  0  0  0  0  0  0  0  0
    3.2406   -4.9375   -0.1431 H   0  0  0  0  0  0  0  0  0  0  0  0
    5.7135   -4.6908   -0.3558 H   0  0  0  0  0  0  0  0  0  0  0  0
    6.4099   -7.6987    2.3797 H   0  0  0  0  0  0  0  0  0  0  0  0
    3.9633   -8.0896    2.6830 H   0  0  0  0  0  0  0  0  0  0  0  0
    0.5557  -10.2374    6.0844 H   0  0  0  0  0  0  0  0  0  0  0  0
  1  2  1  0
  1 20  1  0
  1 21  1  0
  1 22  1  0
  2  3  1  0
  2 23  1  0
  2 24  1  0
  3  4  1  0
  3  6  1  0
  3 38  1  0
  4  5  1  0
  4 25  1  0
  4 26  1  0
  5 27  1  0
  5 28  1  0
  5 29  1  0
  6  7  1  0
  6 30  1  0
  6 31  1  0
  7 32  1  0
  7 33  1  0
  7  8  1  0
  8  9  1  0
  9 10  1  0
  9 19  2  0
 10 11  1  0
 11 12  2  0
 12 13  1  0
 12 19  1  0
 13 18  1  0
 13 14  2  0
 14 15  1  0
 14 34  1  0
 15 16  2  0
 15 35  1  0
 16 17  1  0
 17 18  2  0
 17 36  1  0
 18 37  1  0
M  CHG  2   3   1  10  -1
M  END
>  <i_m_ct_stereo_status>  (441) 
1

>  <s_m_source_file>  (441) 
/var/tmp/pbs.5076255.sched01/tmp54n2b71h/144k2pf1zoq.sdf

>  <i_m_source_file_index>  (441) 
41

>  <i_lp_mmshare_version>  (441) 
48012

>  <i_f3d_flags>  (441) 
0

>  <s_epik_input>  (441) 
W0NIM11bQ0gyXU4oW0NIMl1bQ0gzXSlbQ0gyXVtDSDJdU2MxbltuSF1jKG4xKS1jMltjSF1bY0hdbltjSF1bY0hdMg==

>  <s_epik_cmdline>  (441) 
J2VwaWtfcHl0aG9uJywgJy1waHQnLCAnMi4wJywgJy1waCcsICc3LjAnLCAnLXRuJywgJzgnLCAnLW1hJywgJzIwMCcsICctaW1hZScsICc8aW5maWxlLm1hZT4nLCAnLW9tYWUnLCAnPG91dGZpbGUubWFlPic=

>  <r_lp_tautomer_probability>  (441) 
1

>  <r_epik_Ionization_Penalty>  (441) 
2.4771

>  <r_epik_Ionization_Penalty_Charging>  (441) 
2.4379

>  <r_epik_Ionization_Penalty_Neutral>  (441) 
0.0392007

>  <r_epik_State_Penalty>  (441) 
1.95274

>  <r_epik_Charging_Adjusted_Penalty>  (441) 
4.39064

>  <i_epik_Tot_Q>  (441) 
0

>  <i_epik_Tot_abs_Q>  (441) 
2

>  <s_lp_Force_Field>  (441) 
OPLS3e

>  <r_lp_Energy>  (441) 
20.7068

>  <b_lp_Chiralities_Consistent>  (441) 
1

>  <s_lp_Variant>  (441) 
117:0-3

>  <s_i_glide_gridfile>  (441) 
pfpi4k_grid

>  <i_i_glide_lignum>  (441) 
41

>  <i_i_glide_rotatable_bonds>  (441) 
7

>  <r_i_docking_score>  (441) 
-2.70376

>  <r_i_glide_ligand_efficiency>  (441) 
-0.142303

>  <r_i_glide_ligand_efficiency_sa>  (441) 
-0.379721

>  <r_i_glide_ligand_efficiency_ln>  (441) 
-0.68546

>  <r_i_glide_gscore>  (441) 
-2.70376

>  <r_i_glide_lipo>  (441) 
-0.279358

>  <r_i_glide_hbond>  (441) 
0

>  <r_i_glide_metal>  (441) 
-0

>  <r_i_glide_rewards>  (441) 
-1.5178

>  <r_i_glide_evdw>  (441) 
-21.708

>  <r_i_glide_ecoul>  (441) 
-4.24457

>  <r_i_glide_erotb>  (441) 
1.17019

>  <r_i_glide_esite>  (441) 
-0.354703

>  <r_i_glide_emodel>  (441) 
-31.3695

>  <r_i_glide_energy>  (441) 
-25.9526

>  <r_i_glide_einternal>  (441) 
3.44107

>  <r_i_glide_intrahb_reward>  (441) 
-0

>  <i_i_glide_confnum>  (441) 
5

>  <i_i_glide_posenum>  (441) 
17

>  <r_i_glide_eff_state_penalty>  (441) 
0

>  <ligand_id>  (441) 
117

>  <original_smiles>  (441) 
CCN(CC)CCSc1n[nH]c(-c2ccncc2)n1

>  <smiles>  (441) 
[H]c1nc([H])c([H])c(-c2n[n-]c(SC([H])([H])C([H])([H])[N+]([H])(C([H])([H])C([H])([H])[H])C([H])([H])C([H])([H])[H])n2)c1[H]

$$$$
117:3:0
     RDKit          3D

 38 39  0  0  1  0  0  0  0  0999 V2000
    3.1415   -3.5774   -3.8567 C   0  0  0  0  0  0  0  0  0  0  0  0
    2.6786   -2.9750   -2.5070 C   0  0  0  0  0  0  0  0  0  0  0  0
    3.7472   -2.2346   -1.8171 N   0  0  0  0  0  0  0  0  0  0  0  0
    4.3267   -1.1783   -2.6636 C   0  0  0  0  0  0  0  0  0  0  0  0
    3.2765   -0.3167   -3.4253 C   0  0  0  0  0  0  0  0  0  0  0  0
    4.7875   -3.1086   -1.2410 C   0  0  0  0  0  0  0  0  0  0  0  0
    4.2087   -4.1089   -0.2148 C   0  0  0  0  0  0  0  0  0  0  0  0
    5.4541   -5.2380    0.4907 S   0  0  0  0  0  0  0  0  0  0  0  0
    4.4797   -6.6120    1.0645 C   0  0  0  0  0  0  0  0  0  0  0  0
    5.0285   -7.8032    1.2350 N   0  0  0  0  0  0  0  0  0  0  0  0
    3.9490   -8.5104    1.6339 N   0  0  0  0  0  0  0  0  0  0  0  0
    2.8627   -7.7267    1.6801 C   0  0  0  0  0  0  0  0  0  0  0  0
    1.5244   -8.1747    2.0867 C   0  0  0  0  0  0  0  0  0  0  0  0
    0.4201   -7.2950    2.0329 C   0  0  0  0  0  0  0  0  0  0  0  0
   -0.8371   -7.7807    2.4301 C   0  0  0  0  0  0  0  0  0  0  0  0
   -1.0445   -9.0346    2.8673 N   0  0  0  0  0  0  0  0  0  0  0  0
    0.0157   -9.8683    2.9240 C   0  0  0  0  0  0  0  0  0  0  0  0
    1.3139   -9.4931    2.5479 C   0  0  0  0  0  0  0  0  0  0  0  0
    3.1442   -6.4734    1.3173 N   0  0  0  0  0  0  0  0  0  0  0  0
    3.9939   -9.4972    1.8503 H   0  0  0  0  0  0  0  0  0  0  0  0
    2.3014   -4.0962   -4.3121 H   0  0  0  0  0  0  0  0  0  0  0  0
    3.9438   -4.2957   -3.7080 H   0  0  0  0  0  0  0  0  0  0  0  0
    3.5118   -2.8474   -4.5788 H   0  0  0  0  0  0  0  0  0  0  0  0
    1.8387   -2.2899   -2.6557 H   0  0  0  0  0  0  0  0  0  0  0  0
    2.2576   -3.7611   -1.8743 H   0  0  0  0  0  0  0  0  0  0  0  0
    4.9392   -0.5263   -2.0345 H   0  0  0  0  0  0  0  0  0  0  0  0
    5.0130   -1.6357   -3.3745 H   0  0  0  0  0  0  0  0  0  0  0  0
    3.7555    0.4671   -4.0327 H   0  0  0  0  0  0  0  0  0  0  0  0
    2.5922    0.1465   -2.7312 H   0  0  0  0  0  0  0  0  0  0  0  0
    2.6377   -0.8863   -4.1070 H   0  0  0  0  0  0  0  0  0  0  0  0
    5.3150   -3.6412   -2.0360 H   0  0  0  0  0  0  0  0  0  0  0  0
    5.5522   -2.4965   -0.7547 H   0  0  0  0  0  0  0  0  0  0  0  0
    3.6809   -3.5952    0.5945 H   0  0  0  0  0  0  0  0  0  0  0  0
    3.5001   -4.7672   -0.7100 H   0  0  0  0  0  0  0  0  0  0  0  0
    0.5397   -6.2813    1.6935 H   0  0  0  0  0  0  0  0  0  0  0  0
   -1.7109   -7.1475    2.4082 H   0  0  0  0  0  0  0  0  0  0  0  0
   -0.1817  -10.8641    3.2798 H   0  0  0  0  0  0  0  0  0  0  0  0
    2.1142  -10.2159    2.6101 H   0  0  0  0  0  0  0  0  0  0  0  0
  1  2  1  0
  1 21  1  0
  1 22  1  0
  1 23  1  0
  2  3  1  0
  2 24  1  0
  2 25  1  0
  3  4  1  0
  3  6  1  0
  4  5  1  0
  4 26  1  0
  4 27  1  0
  5 28  1  0
  5 29  1  0
  5 30  1  0
  6  7  1  0
  6 31  1  0
  6 32  1  0
  7  8  1  0
  7 33  1  0
  7 34  1  0
  8  9  1  0
  9 19  1  0
  9 10  2  0
 10 11  1  0
 11 20  1  0
 11 12  1  0
 12 13  1  0
 12 19  2  0
 13 18  1  0
 13 14  2  0
 14 15  1  0
 14 35  1  0
 15 16  2  0
 15 36  1  0
 16 17  1  0
 17 18  2  0
 17 37  1  0
 18 38  1  0
M  END
>  <i_m_ct_stereo_status>  (442) 
1

>  <s_m_source_file>  (442) 
/var/tmp/pbs.5076255.sched01/tmp54n2b71h/144k2pf1zoq.sdf

>  <i_m_source_file_index>  (442) 
42

>  <i_lp_mmshare_version>  (442) 
48012

>  <i_f3d_flags>  (442) 
0

>  <s_epik_input>  (442) 
W0NIM11bQ0gyXU4oW0NIMl1bQ0gzXSlbQ0gyXVtDSDJdU2MxbltuSF1jKG4xKS1jMltjSF1bY0hdbltjSF1bY0hdMg==

>  <s_epik_cmdline>  (442) 
J2VwaWtfcHl0aG9uJywgJy1waHQnLCAnMi4wJywgJy1waCcsICc3LjAnLCAnLXRuJywgJzgnLCAnLW1hJywgJzIwMCcsICctaW1hZScsICc8aW5maWxlLm1hZT4nLCAnLW9tYWUnLCAnPG91dGZpbGUubWFlPic=

>  <r_epik_Ionization_Penalty>  (442) 
1.94686

>  <r_epik_Ionization_Penalty_Charging>  (442) 
0

>  <r_epik_Ionization_Penalty_Neutral>  (442) 
1.94686

>  <r_epik_State_Penalty>  (442) 
2.36709

>  <r_epik_Charging_Adjusted_Penalty>  (442) 
2.36709

>  <i_epik_Tot_Q>  (442) 
0

>  <i_epik_Tot_abs_Q>  (442) 
0

>  <s_lp_Force_Field>  (442) 
OPLS3e

>  <r_lp_Energy>  (442) 
27.2047

>  <b_lp_Chiralities_Consistent>  (442) 
1

>  <s_lp_Variant>  (442) 
117:0-4

>  <s_i_glide_gridfile>  (442) 
pfpi4k_grid

>  <i_i_glide_lignum>  (442) 
42

>  <i_i_glide_rotatable_bonds>  (442) 
7

>  <r_i_docking_score>  (442) 
-2.46292

>  <r_i_glide_ligand_efficiency>  (442) 
-0.129628

>  <r_i_glide_ligand_efficiency_sa>  (442) 
-0.345898

>  <r_i_glide_ligand_efficiency_ln>  (442) 
-0.624404

>  <r_i_glide_gscore>  (442) 
-2.46292

>  <r_i_glide_lipo>  (442) 
-0.45192

>  <r_i_glide_hbond>  (442) 
0

>  <r_i_glide_metal>  (442) 
-0

>  <r_i_glide_rewards>  (442) 
-1.65281

>  <r_i_glide_evdw>  (442) 
-30.7439

>  <r_i_glide_ecoul>  (442) 
0.220314

>  <r_i_glide_erotb>  (442) 
1.17019

>  <r_i_glide_esite>  (442) 
-0.0242381

>  <r_i_glide_emodel>  (442) 
-32.3318

>  <r_i_glide_energy>  (442) 
-30.5236

>  <r_i_glide_einternal>  (442) 
4.0478

>  <r_i_glide_intrahb_reward>  (442) 
-0

>  <i_i_glide_confnum>  (442) 
6

>  <i_i_glide_posenum>  (442) 
3

>  <r_i_glide_eff_state_penalty>  (442) 
0

>  <ligand_id>  (442) 
117

>  <original_smiles>  (442) 
CCN(CC)CCSc1n[nH]c(-c2ccncc2)n1

>  <smiles>  (442) 
[H]c1nc([H])c([H])c(-c2nc(SC([H])([H])C([H])([H])N(C([H])([H])C([H])([H])[H])C([H])([H])C([H])([H])[H])nn2[H])c1[H]

$$$$
117:3:1
     RDKit          3D

 38 39  0  0  1  0  0  0  0  0999 V2000
    5.9339   -5.2684    2.7891 C   0  0  0  0  0  0  0  0  0  0  0  0
    4.4169   -5.4983    2.6036 C   0  0  0  0  0  0  0  0  0  0  0  0
    3.9764   -5.4277    1.1986 N   0  0  0  0  0  0  0  0  0  0  0  0
    4.5783   -6.4767    0.3633 C   0  0  0  0  0  0  0  0  0  0  0  0
    4.2686   -7.9084    0.8660 C   0  0  0  0  0  0  0  0  0  0  0  0
    4.1668   -4.0965    0.5984 C   0  0  0  0  0  0  0  0  0  0  0  0
    3.2678   -3.0395    1.2703 C   0  0  0  0  0  0  0  0  0  0  0  0
    3.7161   -1.3351    0.8211 S   0  0  0  0  0  0  0  0  0  0  0  0
    2.5886   -0.3604    1.7731 C   0  0  0  0  0  0  0  0  0  0  0  0
    2.6001    0.9572    1.6776 N   0  0  0  0  0  0  0  0  0  0  0  0
    1.6263    1.2724    2.5528 N   0  0  0  0  0  0  0  0  0  0  0  0
    1.1132    0.1665    3.1081 C   0  0  0  0  0  0  0  0  0  0  0  0
    0.0459    0.1446    4.1095 C   0  0  0  0  0  0  0  0  0  0  0  0
   -0.5479   -1.0764    4.5058 C   0  0  0  0  0  0  0  0  0  0  0  0
   -1.5622   -1.0485    5.4727 C   0  0  0  0  0  0  0  0  0  0  0  0
   -1.9993    0.0829    6.0705 N   0  0  0  0  0  0  0  0  0  0  0  0
   -1.4389    1.2507    5.6782 C   0  0  0  0  0  0  0  0  0  0  0  0
   -0.4211    1.3334    4.7132 C   0  0  0  0  0  0  0  0  0  0  0  0
    1.7044   -0.9335    2.6382 N   0  0  0  0  0  0  0  0  0  0  0  0
    1.3333    2.2262    2.7196 H   0  0  0  0  0  0  0  0  0  0  0  0
    6.2094   -5.3842    3.8370 H   0  0  0  0  0  0  0  0  0  0  0  0
    6.2326   -4.2641    2.4942 H   0  0  0  0  0  0  0  0  0  0  0  0
    6.5477   -5.9745    2.2278 H   0  0  0  0  0  0  0  0  0  0  0  0
    4.1281   -6.4630    3.0318 H   0  0  0  0  0  0  0  0  0  0  0  0
    3.8667   -4.7837    3.2157 H   0  0  0  0  0  0  0  0  0  0  0  0
    4.2026   -6.3852   -0.6583 H   0  0  0  0  0  0  0  0  0  0  0  0
    5.6556   -6.3244    0.2954 H   0  0  0  0  0  0  0  0  0  0  0  0
    4.7264   -8.6593    0.2158 H   0  0  0  0  0  0  0  0  0  0  0  0
    3.1936   -8.0945    0.8868 H   0  0  0  0  0  0  0  0  0  0  0  0
    4.6516   -8.1082    1.8696 H   0  0  0  0  0  0  0  0  0  0  0  0
    5.2194   -3.8054    0.6377 H   0  0  0  0  0  0  0  0  0  0  0  0
    3.9282   -4.1242   -0.4693 H   0  0  0  0  0  0  0  0  0  0  0  0
    2.2178   -3.2142    1.0273 H   0  0  0  0  0  0  0  0  0  0  0  0
    3.3526   -3.0496    2.3524 H   0  0  0  0  0  0  0  0  0  0  0  0
   -0.2298   -2.0159    4.0779 H   0  0  0  0  0  0  0  0  0  0  0  0
   -2.0476   -1.9627    5.7899 H   0  0  0  0  0  0  0  0  0  0  0  0
   -1.8223    2.1385    6.1516 H   0  0  0  0  0  0  0  0  0  0  0  0
   -0.0075    2.2995    4.4516 H   0  0  0  0  0  0  0  0  0  0  0  0
  1  2  1  0
  1 21  1  0
  1 22  1  0
  1 23  1  0
  2  3  1  0
  2 24  1  0
  2 25  1  0
  3  4  1  0
  3  6  1  0
  4  5  1  0
  4 26  1  0
  4 27  1  0
  5 28  1  0
  5 29  1  0
  5 30  1  0
  6  7  1  0
  6 31  1  0
  6 32  1  0
  7  8  1  0
  7 33  1  0
  7 34  1  0
  8  9  1  0
  9 19  1  0
  9 10  2  0
 10 11  1  0
 11 20  1  0
 11 12  1  0
 12 13  1  0
 12 19  2  0
 13 18  1  0
 13 14  2  0
 14 15  1  0
 14 35  1  0
 15 16  2  0
 15 36  1  0
 16 17  1  0
 17 18  2  0
 17 37  1  0
 18 38  1  0
M  END
>  <i_m_ct_stereo_status>  (443) 
1

>  <s_m_source_file>  (443) 
/var/tmp/pbs.5076255.sched01/tmp54n2b71h/144k2pf1zoq.sdf

>  <i_m_source_file_index>  (443) 
42

>  <i_lp_mmshare_version>  (443) 
48012

>  <i_f3d_flags>  (443) 
0

>  <s_epik_input>  (443) 
W0NIM11bQ0gyXU4oW0NIMl1bQ0gzXSlbQ0gyXVtDSDJdU2MxbltuSF1jKG4xKS1jMltjSF1bY0hdbltjSF1bY0hdMg==

>  <s_epik_cmdline>  (443) 
J2VwaWtfcHl0aG9uJywgJy1waHQnLCAnMi4wJywgJy1waCcsICc3LjAnLCAnLXRuJywgJzgnLCAnLW1hJywgJzIwMCcsICctaW1hZScsICc8aW5maWxlLm1hZT4nLCAnLW9tYWUnLCAnPG91dGZpbGUubWFlPic=

>  <r_epik_Ionization_Penalty>  (443) 
1.94686

>  <r_epik_Ionization_Penalty_Charging>  (443) 
0

>  <r_epik_Ionization_Penalty_Neutral>  (443) 
1.94686

>  <r_epik_State_Penalty>  (443) 
2.36709

>  <r_epik_Charging_Adjusted_Penalty>  (443) 
2.36709

>  <i_epik_Tot_Q>  (443) 
0

>  <i_epik_Tot_abs_Q>  (443) 
0

>  <s_lp_Force_Field>  (443) 
OPLS3e

>  <r_lp_Energy>  (443) 
27.2047

>  <b_lp_Chiralities_Consistent>  (443) 
1

>  <s_lp_Variant>  (443) 
117:0-4

>  <s_i_glide_gridfile>  (443) 
pfpi4k_grid

>  <i_i_glide_lignum>  (443) 
42

>  <i_i_glide_rotatable_bonds>  (443) 
7

>  <r_i_docking_score>  (443) 
-2.36475

>  <r_i_glide_ligand_efficiency>  (443) 
-0.12446

>  <r_i_glide_ligand_efficiency_sa>  (443) 
-0.33211

>  <r_i_glide_ligand_efficiency_ln>  (443) 
-0.599514

>  <r_i_glide_gscore>  (443) 
-2.36475

>  <r_i_glide_lipo>  (443) 
-0.221535

>  <r_i_glide_hbond>  (443) 
-0.16

>  <r_i_glide_metal>  (443) 
-0

>  <r_i_glide_rewards>  (443) 
-1.5178

>  <r_i_glide_evdw>  (443) 
-21.1909

>  <r_i_glide_ecoul>  (443) 
-3.28252

>  <r_i_glide_erotb>  (443) 
1.17019

>  <r_i_glide_esite>  (443) 
-0.0836817

>  <r_i_glide_emodel>  (443) 
-27.3465

>  <r_i_glide_energy>  (443) 
-24.4734

>  <r_i_glide_einternal>  (443) 
2.25069

>  <r_i_glide_intrahb_reward>  (443) 
-0

>  <i_i_glide_confnum>  (443) 
6

>  <i_i_glide_posenum>  (443) 
5

>  <r_i_glide_eff_state_penalty>  (443) 
0

>  <ligand_id>  (443) 
117

>  <original_smiles>  (443) 
CCN(CC)CCSc1n[nH]c(-c2ccncc2)n1

>  <smiles>  (443) 
[H]c1nc([H])c([H])c(-c2nc(SC([H])([H])C([H])([H])N(C([H])([H])C([H])([H])[H])C([H])([H])C([H])([H])[H])nn2[H])c1[H]

$$$$
117:3:2
     RDKit          3D

 38 39  0  0  1  0  0  0  0  0999 V2000
    2.5480   -6.4546    1.0396 C   0  0  0  0  0  0  0  0  0  0  0  0
    2.7087   -4.9716    1.3933 C   0  0  0  0  0  0  0  0  0  0  0  0
    4.0256   -4.6675    1.9803 N   0  0  0  0  0  0  0  0  0  0  0  0
    4.1370   -5.2715    3.3178 C   0  0  0  0  0  0  0  0  0  0  0  0
    5.5504   -5.1344    3.9043 C   0  0  0  0  0  0  0  0  0  0  0  0
    4.1596   -3.2119    2.1096 C   0  0  0  0  0  0  0  0  0  0  0  0
    4.1693   -2.4560    0.7487 C   0  0  0  0  0  0  0  0  0  0  0  0
    4.4475   -0.6639    0.9572 S   0  0  0  0  0  0  0  0  0  0  0  0
    2.9811   -0.0929    1.7680 C   0  0  0  0  0  0  0  0  0  0  0  0
    2.5778    1.1602    1.6790 N   0  0  0  0  0  0  0  0  0  0  0  0
    1.4936    1.1448    2.4887 N   0  0  0  0  0  0  0  0  0  0  0  0
    1.3167   -0.0905    2.9889 C   0  0  0  0  0  0  0  0  0  0  0  0
    0.2590   -0.4928    3.9041 C   0  0  0  0  0  0  0  0  0  0  0  0
    0.2354   -1.7888    4.4892 C   0  0  0  0  0  0  0  0  0  0  0  0
   -0.8100   -2.1139    5.3661 C   0  0  0  0  0  0  0  0  0  0  0  0
   -1.8018   -1.2576    5.6839 N   0  0  0  0  0  0  0  0  0  0  0  0
   -1.7841   -0.0311    5.1218 C   0  0  0  0  0  0  0  0  0  0  0  0
   -0.7855    0.3957    4.2404 C   0  0  0  0  0  0  0  0  0  0  0  0
    2.2464   -0.9240    2.5456 N   0  0  0  0  0  0  0  0  0  0  0  0
    0.9238    1.9749    2.6373 H   0  0  0  0  0  0  0  0  0  0  0  0
    1.6318   -6.6138    0.4666 H   0  0  0  0  0  0  0  0  0  0  0  0
    2.4976   -7.1009    1.9182 H   0  0  0  0  0  0  0  0  0  0  0  0
    3.3912   -6.7694    0.4227 H   0  0  0  0  0  0  0  0  0  0  0  0
    2.5878   -4.4438    0.4471 H   0  0  0  0  0  0  0  0  0  0  0  0
    1.8931   -4.6331    2.0382 H   0  0  0  0  0  0  0  0  0  0  0  0
    3.3958   -4.8470    3.9983 H   0  0  0  0  0  0  0  0  0  0  0  0
    3.9273   -6.3383    3.2654 H   0  0  0  0  0  0  0  0  0  0  0  0
    5.6287   -5.6737    4.8489 H   0  0  0  0  0  0  0  0  0  0  0  0
    5.8155   -4.0972    4.1105 H   0  0  0  0  0  0  0  0  0  0  0  0
    6.2817   -5.5580    3.2147 H   0  0  0  0  0  0  0  0  0  0  0  0
    3.3583   -2.8942    2.7717 H   0  0  0  0  0  0  0  0  0  0  0  0
    5.1027   -2.9493    2.5973 H   0  0  0  0  0  0  0  0  0  0  0  0
    4.9518   -2.8540    0.1032 H   0  0  0  0  0  0  0  0  0  0  0  0
    3.2278   -2.5573    0.2045 H   0  0  0  0  0  0  0  0  0  0  0  0
    0.9996   -2.5139    4.2697 H   0  0  0  0  0  0  0  0  0  0  0  0
   -0.8674   -3.0917    5.8182 H   0  0  0  0  0  0  0  0  0  0  0  0
   -2.5882    0.6281    5.3912 H   0  0  0  0  0  0  0  0  0  0  0  0
   -0.8153    1.3938    3.8222 H   0  0  0  0  0  0  0  0  0  0  0  0
  1  2  1  0
  1 21  1  0
  1 22  1  0
  1 23  1  0
  2  3  1  0
  2 24  1  0
  2 25  1  0
  3  4  1  0
  3  6  1  0
  4  5  1  0
  4 26  1  0
  4 27  1  0
  5 28  1  0
  5 29  1  0
  5 30  1  0
  6  7  1  0
  6 31  1  0
  6 32  1  0
  7  8  1  0
  7 33  1  0
  7 34  1  0
  8  9  1  0
  9 19  1  0
  9 10  2  0
 10 11  1  0
 11 20  1  0
 11 12  1  0
 12 13  1  0
 12 19  2  0
 13 18  1  0
 13 14  2  0
 14 15  1  0
 14 35  1  0
 15 16  2  0
 15 36  1  0
 16 17  1  0
 17 18  2  0
 17 37  1  0
 18 38  1  0
M  END
>  <i_m_ct_stereo_status>  (444) 
1

>  <s_m_source_file>  (444) 
/var/tmp/pbs.5076255.sched01/tmp54n2b71h/144k2pf1zoq.sdf

>  <i_m_source_file_index>  (444) 
42

>  <i_lp_mmshare_version>  (444) 
48012

>  <i_f3d_flags>  (444) 
0

>  <s_epik_input>  (444) 
W0NIM11bQ0gyXU4oW0NIMl1bQ0gzXSlbQ0gyXVtDSDJdU2MxbltuSF1jKG4xKS1jMltjSF1bY0hdbltjSF1bY0hdMg==

>  <s_epik_cmdline>  (444) 
J2VwaWtfcHl0aG9uJywgJy1waHQnLCAnMi4wJywgJy1waCcsICc3LjAnLCAnLXRuJywgJzgnLCAnLW1hJywgJzIwMCcsICctaW1hZScsICc8aW5maWxlLm1hZT4nLCAnLW9tYWUnLCAnPG91dGZpbGUubWFlPic=

>  <r_epik_Ionization_Penalty>  (444) 
1.94686

>  <r_epik_Ionization_Penalty_Charging>  (444) 
0

>  <r_epik_Ionization_Penalty_Neutral>  (444) 
1.94686

>  <r_epik_State_Penalty>  (444) 
2.36709

>  <r_epik_Charging_Adjusted_Penalty>  (444) 
2.36709

>  <i_epik_Tot_Q>  (444) 
0

>  <i_epik_Tot_abs_Q>  (444) 
0

>  <s_lp_Force_Field>  (444) 
OPLS3e

>  <r_lp_Energy>  (444) 
27.2047

>  <b_lp_Chiralities_Consistent>  (444) 
1

>  <s_lp_Variant>  (444) 
117:0-4

>  <s_i_glide_gridfile>  (444) 
pfpi4k_grid

>  <i_i_glide_lignum>  (444) 
42

>  <i_i_glide_rotatable_bonds>  (444) 
7

>  <r_i_docking_score>  (444) 
-1.94059

>  <r_i_glide_ligand_efficiency>  (444) 
-0.102136

>  <r_i_glide_ligand_efficiency_sa>  (444) 
-0.272541

>  <r_i_glide_ligand_efficiency_ln>  (444) 
-0.491982

>  <r_i_glide_gscore>  (444) 
-1.94059

>  <r_i_glide_lipo>  (444) 
-0.115722

>  <r_i_glide_hbond>  (444) 
-0.0148406

>  <r_i_glide_metal>  (444) 
-0

>  <r_i_glide_rewards>  (444) 
-1.5178

>  <r_i_glide_evdw>  (444) 
-20.0354

>  <r_i_glide_ecoul>  (444) 
-2.69364

>  <r_i_glide_erotb>  (444) 
1.17019

>  <r_i_glide_esite>  (444) 
-0.0566044

>  <r_i_glide_emodel>  (444) 
-25.722

>  <r_i_glide_energy>  (444) 
-22.729

>  <r_i_glide_einternal>  (444) 
0.417666

>  <r_i_glide_intrahb_reward>  (444) 
-0

>  <i_i_glide_confnum>  (444) 
2

>  <i_i_glide_posenum>  (444) 
29

>  <r_i_glide_eff_state_penalty>  (444) 
0

>  <ligand_id>  (444) 
117

>  <original_smiles>  (444) 
CCN(CC)CCSc1n[nH]c(-c2ccncc2)n1

>  <smiles>  (444) 
[H]c1nc([H])c([H])c(-c2nc(SC([H])([H])C([H])([H])N(C([H])([H])C([H])([H])[H])C([H])([H])C([H])([H])[H])nn2[H])c1[H]

$$$$
117:4:0
     RDKit          3D

 38 39  0  0  1  0  0  0  0  0999 V2000
    4.9993   -0.5790    0.3795 C   0  0  0  0  0  0  0  0  0  0  0  0
    4.3490   -1.9268    0.0842 C   0  0  0  0  0  0  0  0  0  0  0  0
    4.5782   -2.3484   -1.2984 N   0  0  0  0  0  0  0  0  0  0  0  0
    3.7117   -1.5462   -2.1856 C   0  0  0  0  0  0  0  0  0  0  0  0
    3.9401   -1.8152   -3.6884 C   0  0  0  0  0  0  0  0  0  0  0  0
    4.2202   -3.7550   -1.4691 C   0  0  0  0  0  0  0  0  0  0  0  0
    5.1993   -4.7357   -0.7544 C   0  0  0  0  0  0  0  0  0  0  0  0
    5.0301   -4.8837    1.0655 S   0  0  0  0  0  0  0  0  0  0  0  0
    3.3741   -5.4308    1.1699 C   0  0  0  0  0  0  0  0  0  0  0  0
    2.5503   -5.5269    0.1269 N   0  0  0  0  0  0  0  0  0  0  0  0
    1.3641   -6.0347    0.5239 N   0  0  0  0  0  0  0  0  0  0  0  0
    1.5749   -6.1556    1.8329 C   0  0  0  0  0  0  0  0  0  0  0  0
    0.5457   -6.7280    2.7160 C   0  0  0  0  0  0  0  0  0  0  0  0
    0.5510   -6.4136    4.0832 C   0  0  0  0  0  0  0  0  0  0  0  0
   -0.4454   -6.9819    4.8902 C   0  0  0  0  0  0  0  0  0  0  0  0
   -1.4049   -7.7973    4.4083 N   0  0  0  0  0  0  0  0  0  0  0  0
   -1.3869   -8.1096    3.1018 C   0  0  0  0  0  0  0  0  0  0  0  0
   -0.4426   -7.5899    2.2074 C   0  0  0  0  0  0  0  0  0  0  0  0
    2.7642   -5.7296    2.3019 N   0  0  0  0  0  0  0  0  0  0  0  0
    2.7458   -5.3395   -0.8518 H   0  0  0  0  0  0  0  0  0  0  0  0
    4.8119   -0.2945    1.4199 H   0  0  0  0  0  0  0  0  0  0  0  0
    4.6069    0.2310   -0.2558 H   0  0  0  0  0  0  0  0  0  0  0  0
    6.0855   -0.6351    0.2390 H   0  0  0  0  0  0  0  0  0  0  0  0
    4.8381   -2.5836    0.7793 H   0  0  0  0  0  0  0  0  0  0  0  0
    3.2843   -1.9089    0.3155 H   0  0  0  0  0  0  0  0  0  0  0  0
    2.6492   -1.6689   -1.9345 H   0  0  0  0  0  0  0  0  0  0  0  0
    3.9375   -0.4905   -2.0490 H   0  0  0  0  0  0  0  0  0  0  0  0
    3.3920   -1.0783   -4.2838 H   0  0  0  0  0  0  0  0  0  0  0  0
    3.5863   -2.8026   -3.9964 H   0  0  0  0  0  0  0  0  0  0  0  0
    5.0031   -1.7286   -3.9206 H   0  0  0  0  0  0  0  0  0  0  0  0
    3.1704   -3.8717   -1.2167 H   0  0  0  0  0  0  0  0  0  0  0  0
    4.3045   -4.0774   -2.5056 H   0  0  0  0  0  0  0  0  0  0  0  0
    5.0866   -5.7617   -1.1368 H   0  0  0  0  0  0  0  0  0  0  0  0
    6.2413   -4.4340   -0.9461 H   0  0  0  0  0  0  0  0  0  0  0  0
    1.3012   -5.7518    4.5003 H   0  0  0  0  0  0  0  0  0  0  0  0
   -0.4626   -6.7585    5.9392 H   0  0  0  0  0  0  0  0  0  0  0  0
   -2.1483   -8.7822    2.7506 H   0  0  0  0  0  0  0  0  0  0  0  0
   -0.4646   -7.8562    1.1587 H   0  0  0  0  0  0  0  0  0  0  0  0
  1  2  1  0
  1 21  1  0
  1 22  1  0
  1 23  1  0
  2  3  1  0
  2 24  1  0
  2 25  1  0
  3  4  1  0
  3  6  1  0
  4  5  1  0
  4 26  1  0
  4 27  1  0
  5 28  1  0
  5 29  1  0
  5 30  1  0
  6  7  1  0
  6 31  1  0
  6 32  1  0
  7 33  1  0
  7 34  1  0
  7  8  1  0
  8  9  1  0
  9 10  1  0
  9 19  2  0
 10 11  1  0
 10 20  1  0
 11 12  2  0
 12 13  1  0
 12 19  1  0
 13 18  1  0
 13 14  2  0
 14 15  1  0
 14 35  1  0
 15 16  2  0
 15 36  1  0
 16 17  1  0
 17 18  2  0
 17 37  1  0
 18 38  1  0
M  END
>  <i_m_ct_stereo_status>  (445) 
1

>  <s_m_source_file>  (445) 
/var/tmp/pbs.5076255.sched01/tmp54n2b71h/144k2pf1zoq.sdf

>  <i_m_source_file_index>  (445) 
43

>  <i_lp_mmshare_version>  (445) 
48012

>  <i_f3d_flags>  (445) 
0

>  <s_epik_input>  (445) 
W0NIM11bQ0gyXU4oW0NIMl1bQ0gzXSlbQ0gyXVtDSDJdU2MxbltuSF1jKG4xKS1jMltjSF1bY0hdbltjSF1bY0hdMg==

>  <s_epik_cmdline>  (445) 
J2VwaWtfcHl0aG9uJywgJy1waHQnLCAnMi4wJywgJy1waCcsICc3LjAnLCAnLXRuJywgJzgnLCAnLW1hJywgJzIwMCcsICctaW1hZScsICc8aW5maWxlLm1hZT4nLCAnLW9tYWUnLCAnPG91dGZpbGUubWFlPic=

>  <r_epik_Ionization_Penalty>  (445) 
1.92812

>  <r_epik_Ionization_Penalty_Charging>  (445) 
0

>  <r_epik_Ionization_Penalty_Neutral>  (445) 
1.92812

>  <r_epik_State_Penalty>  (445) 
2.57751

>  <r_epik_Charging_Adjusted_Penalty>  (445) 
2.57751

>  <i_epik_Tot_Q>  (445) 
0

>  <i_epik_Tot_abs_Q>  (445) 
0

>  <s_lp_Force_Field>  (445) 
OPLS3e

>  <r_lp_Energy>  (445) 
27.436

>  <b_lp_Chiralities_Consistent>  (445) 
1

>  <s_lp_Variant>  (445) 
117:0-5

>  <s_i_glide_gridfile>  (445) 
pfpi4k_grid

>  <i_i_glide_lignum>  (445) 
43

>  <i_i_glide_rotatable_bonds>  (445) 
7

>  <r_i_docking_score>  (445) 
-3.64245

>  <r_i_glide_ligand_efficiency>  (445) 
-0.191708

>  <r_i_glide_ligand_efficiency_sa>  (445) 
-0.511554

>  <r_i_glide_ligand_efficiency_ln>  (445) 
-0.923441

>  <r_i_glide_gscore>  (445) 
-3.64245

>  <r_i_glide_lipo>  (445) 
-0.391872

>  <r_i_glide_hbond>  (445) 
-0.444436

>  <r_i_glide_metal>  (445) 
-0

>  <r_i_glide_rewards>  (445) 
-1.5178

>  <r_i_glide_evdw>  (445) 
-24.2678

>  <r_i_glide_ecoul>  (445) 
-7.6086

>  <r_i_glide_erotb>  (445) 
1.17019

>  <r_i_glide_esite>  (445) 
-0.103856

>  <r_i_glide_emodel>  (445) 
-36.2785

>  <r_i_glide_energy>  (445) 
-31.8764

>  <r_i_glide_einternal>  (445) 
2.1029

>  <r_i_glide_intrahb_reward>  (445) 
-0

>  <i_i_glide_confnum>  (445) 
5

>  <i_i_glide_posenum>  (445) 
1

>  <r_i_glide_eff_state_penalty>  (445) 
0

>  <ligand_id>  (445) 
117

>  <original_smiles>  (445) 
CCN(CC)CCSc1n[nH]c(-c2ccncc2)n1

>  <smiles>  (445) 
[H]c1nc([H])c([H])c(-c2nc(SC([H])([H])C([H])([H])N(C([H])([H])C([H])([H])[H])C([H])([H])C([H])([H])[H])n([H])n2)c1[H]

$$$$
117:4:1
     RDKit          3D

 38 39  0  0  1  0  0  0  0  0999 V2000
    3.5954   -1.2188    0.6439 C   0  0  0  0  0  0  0  0  0  0  0  0
    4.9166   -1.2570   -0.1747 C   0  0  0  0  0  0  0  0  0  0  0  0
    4.7849   -1.8517   -1.5156 N   0  0  0  0  0  0  0  0  0  0  0  0
    3.9042   -1.0188   -2.3462 C   0  0  0  0  0  0  0  0  0  0  0  0
    3.8826   -1.4298   -3.8284 C   0  0  0  0  0  0  0  0  0  0  0  0
    4.3184   -3.2422   -1.4672 C   0  0  0  0  0  0  0  0  0  0  0  0
    5.3100   -4.2007   -0.7561 C   0  0  0  0  0  0  0  0  0  0  0  0
    5.1350   -4.2750    1.0536 S   0  0  0  0  0  0  0  0  0  0  0  0
    3.5213   -5.0073    1.1471 C   0  0  0  0  0  0  0  0  0  0  0  0
    2.7645   -5.3337    0.0792 N   0  0  0  0  0  0  0  0  0  0  0  0
    1.5960   -5.8803    0.5056 N   0  0  0  0  0  0  0  0  0  0  0  0
    1.7562   -5.8624    1.8225 C   0  0  0  0  0  0  0  0  0  0  0  0
    0.7710   -6.4331    2.7320 C   0  0  0  0  0  0  0  0  0  0  0  0
    0.7407   -6.0736    4.1057 C   0  0  0  0  0  0  0  0  0  0  0  0
   -0.2474   -6.6368    4.9263 C   0  0  0  0  0  0  0  0  0  0  0  0
   -1.1801   -7.4927    4.4749 N   0  0  0  0  0  0  0  0  0  0  0  0
   -1.1445   -7.8613    3.1791 C   0  0  0  0  0  0  0  0  0  0  0  0
   -0.1986   -7.3492    2.2734 C   0  0  0  0  0  0  0  0  0  0  0  0
    2.9155   -5.2878    2.3017 N   0  0  0  0  0  0  0  0  0  0  0  0
    2.9897   -5.2282   -0.8825 H   0  0  0  0  0  0  0  0  0  0  0  0
    3.7944   -0.8803    1.6596 H   0  0  0  0  0  0  0  0  0  0  0  0
    3.1056   -2.1891    0.7416 H   0  0  0  0  0  0  0  0  0  0  0  0
    2.8617   -0.5339    0.2208 H   0  0  0  0  0  0  0  0  0  0  0  0
    5.2976   -0.2371   -0.2846 H   0  0  0  0  0  0  0  0  0  0  0  0
    5.6725   -1.8225    0.3742 H   0  0  0  0  0  0  0  0  0  0  0  0
    2.8814   -1.0169   -1.9659 H   0  0  0  0  0  0  0  0  0  0  0  0
    4.2649    0.0092   -2.2925 H   0  0  0  0  0  0  0  0  0  0  0  0
    3.3090   -0.7080   -4.4134 H   0  0  0  0  0  0  0  0  0  0  0  0
    3.4063   -2.3996   -3.9835 H   0  0  0  0  0  0  0  0  0  0  0  0
    4.8920   -1.4673   -4.2362 H   0  0  0  0  0  0  0  0  0  0  0  0
    3.2999   -3.2616   -1.0750 H   0  0  0  0  0  0  0  0  0  0  0  0
    4.2382   -3.6401   -2.4773 H   0  0  0  0  0  0  0  0  0  0  0  0
    5.1969   -5.2185   -1.1363 H   0  0  0  0  0  0  0  0  0  0  0  0
    6.3366   -3.9072   -0.9705 H   0  0  0  0  0  0  0  0  0  0  0  0
    1.4655   -5.3776    4.5037 H   0  0  0  0  0  0  0  0  0  0  0  0
   -0.2843   -6.3743    5.9763 H   0  0  0  0  0  0  0  0  0  0  0  0
   -1.8817   -8.5721    2.8493 H   0  0  0  0  0  0  0  0  0  0  0  0
   -0.2061   -7.6705    1.2360 H   0  0  0  0  0  0  0  0  0  0  0  0
  1  2  1  0
  1 21  1  0
  1 22  1  0
  1 23  1  0
  2  3  1  0
  2 24  1  0
  2 25  1  0
  3  4  1  0
  3  6  1  0
  4  5  1  0
  4 26  1  0
  4 27  1  0
  5 28  1  0
  5 29  1  0
  5 30  1  0
  6  7  1  0
  6 31  1  0
  6 32  1  0
  7 33  1  0
  7 34  1  0
  7  8  1  0
  8  9  1  0
  9 10  1  0
  9 19  2  0
 10 11  1  0
 10 20  1  0
 11 12  2  0
 12 13  1  0
 12 19  1  0
 13 18  1  0
 13 14  2  0
 14 15  1  0
 14 35  1  0
 15 16  2  0
 15 36  1  0
 16 17  1  0
 17 18  2  0
 17 37  1  0
 18 38  1  0
M  END
>  <i_m_ct_stereo_status>  (446) 
1

>  <s_m_source_file>  (446) 
/var/tmp/pbs.5076255.sched01/tmp54n2b71h/144k2pf1zoq.sdf

>  <i_m_source_file_index>  (446) 
43

>  <i_lp_mmshare_version>  (446) 
48012

>  <i_f3d_flags>  (446) 
0

>  <s_epik_input>  (446) 
W0NIM11bQ0gyXU4oW0NIMl1bQ0gzXSlbQ0gyXVtDSDJdU2MxbltuSF1jKG4xKS1jMltjSF1bY0hdbltjSF1bY0hdMg==

>  <s_epik_cmdline>  (446) 
J2VwaWtfcHl0aG9uJywgJy1waHQnLCAnMi4wJywgJy1waCcsICc3LjAnLCAnLXRuJywgJzgnLCAnLW1hJywgJzIwMCcsICctaW1hZScsICc8aW5maWxlLm1hZT4nLCAnLW9tYWUnLCAnPG91dGZpbGUubWFlPic=

>  <r_epik_Ionization_Penalty>  (446) 
1.92812

>  <r_epik_Ionization_Penalty_Charging>  (446) 
0

>  <r_epik_Ionization_Penalty_Neutral>  (446) 
1.92812

>  <r_epik_State_Penalty>  (446) 
2.57751

>  <r_epik_Charging_Adjusted_Penalty>  (446) 
2.57751

>  <i_epik_Tot_Q>  (446) 
0

>  <i_epik_Tot_abs_Q>  (446) 
0

>  <s_lp_Force_Field>  (446) 
OPLS3e

>  <r_lp_Energy>  (446) 
27.436

>  <b_lp_Chiralities_Consistent>  (446) 
1

>  <s_lp_Variant>  (446) 
117:0-5

>  <s_i_glide_gridfile>  (446) 
pfpi4k_grid

>  <i_i_glide_lignum>  (446) 
43

>  <i_i_glide_rotatable_bonds>  (446) 
7

>  <r_i_docking_score>  (446) 
-3.4203

>  <r_i_glide_ligand_efficiency>  (446) 
-0.180016

>  <r_i_glide_ligand_efficiency_sa>  (446) 
-0.480355

>  <r_i_glide_ligand_efficiency_ln>  (446) 
-0.86712

>  <r_i_glide_gscore>  (446) 
-3.4203

>  <r_i_glide_lipo>  (446) 
-0.214313

>  <r_i_glide_hbond>  (446) 
-0.405511

>  <r_i_glide_metal>  (446) 
-0

>  <r_i_glide_rewards>  (446) 
-1.51962

>  <r_i_glide_evdw>  (446) 
-25.4496

>  <r_i_glide_ecoul>  (446) 
-7.1816

>  <r_i_glide_erotb>  (446) 
1.17019

>  <r_i_glide_esite>  (446) 
-0.101328

>  <r_i_glide_emodel>  (446) 
-37.7867

>  <r_i_glide_energy>  (446) 
-32.6312

>  <r_i_glide_einternal>  (446) 
2.86799

>  <r_i_glide_intrahb_reward>  (446) 
-0

>  <i_i_glide_confnum>  (446) 
5

>  <i_i_glide_posenum>  (446) 
19

>  <r_i_glide_eff_state_penalty>  (446) 
0

>  <ligand_id>  (446) 
117

>  <original_smiles>  (446) 
CCN(CC)CCSc1n[nH]c(-c2ccncc2)n1

>  <smiles>  (446) 
[H]c1nc([H])c([H])c(-c2nc(SC([H])([H])C([H])([H])N(C([H])([H])C([H])([H])[H])C([H])([H])C([H])([H])[H])n([H])n2)c1[H]

$$$$
117:4:2
     RDKit          3D

 38 39  0  0  1  0  0  0  0  0999 V2000
    6.5137   -1.2174    0.2262 C   0  0  0  0  0  0  0  0  0  0  0  0
    5.3551   -1.3079   -0.7729 C   0  0  0  0  0  0  0  0  0  0  0  0
    4.6914   -2.6193   -0.7606 N   0  0  0  0  0  0  0  0  0  0  0  0
    3.6656   -2.6983   -1.8118 C   0  0  0  0  0  0  0  0  0  0  0  0
    4.2293   -2.6178   -3.2434 C   0  0  0  0  0  0  0  0  0  0  0  0
    4.1173   -2.9629    0.5592 C   0  0  0  0  0  0  0  0  0  0  0  0
    3.0775   -1.9283    1.0486 C   0  0  0  0  0  0  0  0  0  0  0  0
    2.4299   -2.2316    2.7006 S   0  0  0  0  0  0  0  0  0  0  0  0
    1.4005   -0.7955    2.7699 C   0  0  0  0  0  0  0  0  0  0  0  0
    0.9056   -0.1527    1.6892 N   0  0  0  0  0  0  0  0  0  0  0  0
    0.1117    0.8596    2.0870 N   0  0  0  0  0  0  0  0  0  0  0  0
    0.2080    0.7619    3.4124 C   0  0  0  0  0  0  0  0  0  0  0  0
   -0.5071    1.6901    4.3108 C   0  0  0  0  0  0  0  0  0  0  0  0
   -0.5150    1.4976    5.7116 C   0  0  0  0  0  0  0  0  0  0  0  0
   -1.1954    2.4164    6.5286 C   0  0  0  0  0  0  0  0  0  0  0  0
   -1.8598    3.4854    6.0428 N   0  0  0  0  0  0  0  0  0  0  0  0
   -1.8542    3.6675    4.7054 C   0  0  0  0  0  0  0  0  0  0  0  0
   -1.2034    2.8091    3.8103 C   0  0  0  0  0  0  0  0  0  0  0  0
    0.9781   -0.2541    3.9082 N   0  0  0  0  0  0  0  0  0  0  0  0
    1.0032   -0.4215    0.7016 H   0  0  0  0  0  0  0  0  0  0  0  0
    7.0083   -0.2569    0.0997 H   0  0  0  0  0  0  0  0  0  0  0  0
    7.2473   -2.0053    0.0386 H   0  0  0  0  0  0  0  0  0  0  0  0
    6.1929   -1.2725    1.2685 H   0  0  0  0  0  0  0  0  0  0  0  0
    4.6347   -0.5040   -0.6227 H   0  0  0  0  0  0  0  0  0  0  0  0
    5.8025   -1.1168   -1.7453 H   0  0  0  0  0  0  0  0  0  0  0  0
    3.1210   -3.6403   -1.7108 H   0  0  0  0  0  0  0  0  0  0  0  0
    2.9309   -1.9054   -1.6717 H   0  0  0  0  0  0  0  0  0  0  0  0
    3.4114   -2.6515   -3.9642 H   0  0  0  0  0  0  0  0  0  0  0  0
    4.9018   -3.4547   -3.4383 H   0  0  0  0  0  0  0  0  0  0  0  0
    4.7596   -1.6883   -3.4484 H   0  0  0  0  0  0  0  0  0  0  0  0
    3.6568   -3.9576    0.5133 H   0  0  0  0  0  0  0  0  0  0  0  0
    4.9231   -3.0598    1.2912 H   0  0  0  0  0  0  0  0  0  0  0  0
    3.4921   -0.9226    1.0865 H   0  0  0  0  0  0  0  0  0  0  0  0
    2.2344   -1.9388    0.3685 H   0  0  0  0  0  0  0  0  0  0  0  0
    0.0082    0.6615    6.1546 H   0  0  0  0  0  0  0  0  0  0  0  0
   -1.2049    2.2905    7.6037 H   0  0  0  0  0  0  0  0  0  0  0  0
   -2.3832    4.5371    4.3497 H   0  0  0  0  0  0  0  0  0  0  0  0
   -1.2267    3.0206    2.7493 H   0  0  0  0  0  0  0  0  0  0  0  0
  1  2  1  0
  1 21  1  0
  1 22  1  0
  1 23  1  0
  2  3  1  0
  2 24  1  0
  2 25  1  0
  3  4  1  0
  3  6  1  0
  4  5  1  0
  4 26  1  0
  4 27  1  0
  5 28  1  0
  5 29  1  0
  5 30  1  0
  6  7  1  0
  6 31  1  0
  6 32  1  0
  7 33  1  0
  7 34  1  0
  7  8  1  0
  8  9  1  0
  9 10  1  0
  9 19  2  0
 10 11  1  0
 10 20  1  0
 11 12  2  0
 12 13  1  0
 12 19  1  0
 13 18  1  0
 13 14  2  0
 14 15  1  0
 14 35  1  0
 15 16  2  0
 15 36  1  0
 16 17  1  0
 17 18  2  0
 17 37  1  0
 18 38  1  0
M  END
>  <i_m_ct_stereo_status>  (447) 
1

>  <s_m_source_file>  (447) 
/var/tmp/pbs.5076255.sched01/tmp54n2b71h/144k2pf1zoq.sdf

>  <i_m_source_file_index>  (447) 
43

>  <i_lp_mmshare_version>  (447) 
48012

>  <i_f3d_flags>  (447) 
0

>  <s_epik_input>  (447) 
W0NIM11bQ0gyXU4oW0NIMl1bQ0gzXSlbQ0gyXVtDSDJdU2MxbltuSF1jKG4xKS1jMltjSF1bY0hdbltjSF1bY0hdMg==

>  <s_epik_cmdline>  (447) 
J2VwaWtfcHl0aG9uJywgJy1waHQnLCAnMi4wJywgJy1waCcsICc3LjAnLCAnLXRuJywgJzgnLCAnLW1hJywgJzIwMCcsICctaW1hZScsICc8aW5maWxlLm1hZT4nLCAnLW9tYWUnLCAnPG91dGZpbGUubWFlPic=

>  <r_epik_Ionization_Penalty>  (447) 
1.92812

>  <r_epik_Ionization_Penalty_Charging>  (447) 
0

>  <r_epik_Ionization_Penalty_Neutral>  (447) 
1.92812

>  <r_epik_State_Penalty>  (447) 
2.57751

>  <r_epik_Charging_Adjusted_Penalty>  (447) 
2.57751

>  <i_epik_Tot_Q>  (447) 
0

>  <i_epik_Tot_abs_Q>  (447) 
0

>  <s_lp_Force_Field>  (447) 
OPLS3e

>  <r_lp_Energy>  (447) 
27.436

>  <b_lp_Chiralities_Consistent>  (447) 
1

>  <s_lp_Variant>  (447) 
117:0-5

>  <s_i_glide_gridfile>  (447) 
pfpi4k_grid

>  <i_i_glide_lignum>  (447) 
43

>  <i_i_glide_rotatable_bonds>  (447) 
7

>  <r_i_docking_score>  (447) 
-2.69915

>  <r_i_glide_ligand_efficiency>  (447) 
-0.14206

>  <r_i_glide_ligand_efficiency_sa>  (447) 
-0.379074

>  <r_i_glide_ligand_efficiency_ln>  (447) 
-0.684291

>  <r_i_glide_gscore>  (447) 
-2.69915

>  <r_i_glide_lipo>  (447) 
-0.147012

>  <r_i_glide_hbond>  (447) 
-0.16

>  <r_i_glide_metal>  (447) 
-0

>  <r_i_glide_rewards>  (447) 
-1.5178

>  <r_i_glide_evdw>  (447) 
-20.2959

>  <r_i_glide_ecoul>  (447) 
-5.86632

>  <r_i_glide_erotb>  (447) 
1.17019

>  <r_i_glide_esite>  (447) 
-0.149783

>  <r_i_glide_emodel>  (447) 
-30.234

>  <r_i_glide_energy>  (447) 
-26.1622

>  <r_i_glide_einternal>  (447) 
2.03573

>  <r_i_glide_intrahb_reward>  (447) 
-0

>  <i_i_glide_confnum>  (447) 
6

>  <i_i_glide_posenum>  (447) 
3

>  <r_i_glide_eff_state_penalty>  (447) 
0

>  <ligand_id>  (447) 
117

>  <original_smiles>  (447) 
CCN(CC)CCSc1n[nH]c(-c2ccncc2)n1

>  <smiles>  (447) 
[H]c1nc([H])c([H])c(-c2nc(SC([H])([H])C([H])([H])N(C([H])([H])C([H])([H])[H])C([H])([H])C([H])([H])[H])n([H])n2)c1[H]

$$$$
118:0:0
     RDKit          3D

 53 57  0  0  1  0  0  0  0  0999 V2000
    5.6603   -6.2643    1.0273 C   0  0  0  0  0  0  0  0  0  0  0  0
    4.7121   -7.4060    1.2266 C   0  0  0  0  0  0  0  0  0  0  0  0
    5.0981   -8.6223    0.8811 N   0  0  0  0  0  0  0  0  0  0  0  0
    4.0545   -9.4492    1.1632 N   0  0  0  0  0  0  0  0  0  0  0  0
    2.9784   -8.7829    1.7020 C   0  0  0  0  0  0  0  0  0  0  0  0
    1.7933   -9.3155    2.0954 N   0  0  0  0  0  0  0  0  0  0  0  0
    0.9759   -8.3864    2.5776 C   0  0  0  0  0  0  0  0  0  0  0  0
    1.1859   -7.0823    2.7066 N   0  0  0  0  0  0  0  0  0  0  0  0
    2.3715   -6.5542    2.3045 C   0  0  0  0  0  0  0  0  0  0  0  0
    2.5048   -5.1059    2.5218 C   0  0  0  0  0  0  0  0  0  0  0  0
    1.9140   -4.2831    3.4525 C   0  0  0  0  0  0  0  0  0  0  0  0
    2.3746   -2.9851    3.2250 N   0  0  0  0  0  0  0  0  0  0  0  0
    2.0079   -1.8149    4.0287 C   0  0  0  0  0  0  0  0  0  0  0  0
    1.1799   -0.7583    3.2511 C   0  0  0  0  0  0  0  0  0  0  0  0
    1.5285   -0.4429    2.1154 O   0  0  0  0  0  0  0  0  0  0  0  0
    0.1213   -0.1641    3.8422 N   0  0  0  0  0  0  0  0  0  0  0  0
   -0.5213   -0.6520    5.0614 C   0  0  0  0  0  0  0  0  0  0  0  0
   -1.8592    0.0746    5.1506 C   0  0  1  0  0  0  0  0  0  0  0  0
   -2.1900    0.3074    6.4220 F   0  0  0  0  0  0  0  0  0  0  0  0
   -1.6509    1.3585    4.3657 C   0  0  0  0  0  0  0  0  0  0  0  0
   -0.6338    0.9756    3.2813 C   0  0  1  0  0  0  0  0  0  0  0  0
    0.2474    2.1875    2.8872 C   0  0  0  0  0  0  0  0  0  0  0  0
    3.2296   -3.0887    2.1910 C   0  0  0  0  0  0  0  0  0  0  0  0
    3.9886   -1.9499    1.5648 C   0  0  0  0  0  0  0  0  0  0  0  0
    3.7493   -1.6801    0.0716 C   0  0  0  0  0  0  0  0  0  0  0  0
    5.2518   -1.4188   -0.0678 C   0  0  0  0  0  0  0  0  0  0  0  0
    5.4734   -2.1360    1.2711 C   0  0  0  0  0  0  0  0  0  0  0  0
    3.3397   -4.3321    1.7300 N   0  0  0  0  0  0  0  0  0  0  0  0
    3.3663   -7.4178    1.7614 C   0  0  0  0  0  0  0  0  0  0  0  0
    4.1058  -10.4512    0.9421 H   0  0  0  0  0  0  0  0  0  0  0  0
    5.8601   -5.7414    1.9617 H   0  0  0  0  0  0  0  0  0  0  0  0
    5.2710   -5.5431    0.3098 H   0  0  0  0  0  0  0  0  0  0  0  0
    6.6201   -6.6021    0.6404 H   0  0  0  0  0  0  0  0  0  0  0  0
    0.0105   -8.7221    2.9056 H   0  0  0  0  0  0  0  0  0  0  0  0
    1.2274   -4.5215    4.2607 H   0  0  0  0  0  0  0  0  0  0  0  0
    1.5085   -2.1853    4.9246 H   0  0  0  0  0  0  0  0  0  0  0  0
    2.9176   -1.3331    4.3919 H   0  0  0  0  0  0  0  0  0  0  0  0
   -0.6980   -1.7320    5.0447 H   0  0  0  0  0  0  0  0  0  0  0  0
    0.1261   -0.3955    5.9060 H   0  0  0  0  0  0  0  0  0  0  0  0
   -2.6424   -0.5348    4.6924 H   0  0  0  0  0  0  0  0  0  0  0  0
   -2.5799    1.7572    3.9555 H   0  0  0  0  0  0  0  0  0  0  0  0
   -1.2140    2.1144    5.0214 H   0  0  0  0  0  0  0  0  0  0  0  0
   -1.1758    0.6051    2.4078 H   0  0  0  0  0  0  0  0  0  0  0  0
   -0.3797    2.9956    2.5067 H   0  0  0  0  0  0  0  0  0  0  0  0
    0.9551    1.9741    2.0869 H   0  0  0  0  0  0  0  0  0  0  0  0
    0.8224    2.5532    3.7430 H   0  0  0  0  0  0  0  0  0  0  0  0
    3.9080   -1.0391    2.1620 H   0  0  0  0  0  0  0  0  0  0  0  0
    3.4157   -2.5741   -0.4666 H   0  0  0  0  0  0  0  0  0  0  0  0
    3.0938   -0.8330   -0.1435 H   0  0  0  0  0  0  0  0  0  0  0  0
    5.7073   -1.9333   -0.9142 H   0  0  0  0  0  0  0  0  0  0  0  0
    5.4916   -0.3525   -0.0295 H   0  0  0  0  0  0  0  0  0  0  0  0
    6.1145   -1.6161    1.9846 H   0  0  0  0  0  0  0  0  0  0  0  0
    5.7475   -3.1895    1.1675 H   0  0  0  0  0  0  0  0  0  0  0  0
  1  2  1  0
  1 31  1  0
  1 32  1  0
  1 33  1  0
  2 29  1  0
  2  3  2  0
  3  4  1  0
  4 30  1  0
  4  5  1  0
  5 29  2  0
  5  6  1  0
  6  7  2  0
  7  8  1  0
  7 34  1  0
  8  9  2  0
  9 10  1  0
  9 29  1  0
 10 28  1  0
 10 11  2  0
 11 12  1  0
 11 35  1  0
 12 13  1  0
 12 23  1  0
 13 14  1  0
 13 36  1  0
 13 37  1  0
 14 15  2  0
 14 16  1  0
 16 21  1  0
 16 17  1  0
 17 18  1  0
 17 38  1  0
 17 39  1  0
 18 19  1  0
 18 20  1  0
 18 40  1  6
 20 21  1  0
 20 41  1  0
 20 42  1  0
 21 22  1  0
 21 43  1  6
 22 44  1  0
 22 45  1  0
 22 46  1  0
 23 24  1  0
 23 28  2  0
 24 27  1  0
 24 25  1  0
 24 47  1  0
 25 26  1  0
 25 48  1  0
 25 49  1  0
 26 27  1  0
 26 50  1  0
 26 51  1  0
 27 52  1  0
 27 53  1  0
M  END
>  <i_m_ct_stereo_status>  (448) 
1

>  <s_m_source_file>  (448) 
/var/tmp/pbs.5076255.sched01/tmp54n2b71h/144k2pf1zoq.sdf

>  <i_m_source_file_index>  (448) 
44

>  <i_lp_mmshare_version>  (448) 
48012

>  <i_f3d_flags>  (448) 
0

>  <s_epik_input>  (448) 
W25IXTFuYyhbQ0gzXSljKGMxMiljKG5bY0hdbjIpLWMzW2NIXW4oYyhuMylbQ0hdNFtDSDJdW0NIMl1bQ0gyXTQpW0NIMl1DKD1PKU41W0NIMl1bQ0BASF0oRilbQ0gyXVtDQEhdNVtDSDNd

>  <s_epik_cmdline>  (448) 
J2VwaWtfcHl0aG9uJywgJy1waHQnLCAnMi4wJywgJy1waCcsICc3LjAnLCAnLXRuJywgJzgnLCAnLW1hJywgJzIwMCcsICctaW1hZScsICc8aW5maWxlLm1hZT4nLCAnLW9tYWUnLCAnPG91dGZpbGUubWFlPic=

>  <r_lp_tautomer_probability>  (448) 
1

>  <r_epik_Ionization_Penalty>  (448) 
0.0101949

>  <r_epik_Ionization_Penalty_Charging>  (448) 
0.010178

>  <r_epik_Ionization_Penalty_Neutral>  (448) 
1.69192e-05

>  <r_epik_State_Penalty>  (448) 
0.00776962

>  <r_epik_Charging_Adjusted_Penalty>  (448) 
0.0179476

>  <i_epik_Tot_Q>  (448) 
0

>  <i_epik_Tot_abs_Q>  (448) 
0

>  <s_lp_Force_Field>  (448) 
OPLS3e

>  <r_lp_Energy>  (448) 
34.165

>  <b_lp_Chiralities_Consistent>  (448) 
1

>  <s_lp_Variant>  (448) 
118:0-1

>  <s_i_glide_gridfile>  (448) 
pfpi4k_grid

>  <i_i_glide_lignum>  (448) 
44

>  <i_i_glide_rotatable_bonds>  (448) 
5

>  <r_i_docking_score>  (448) 
-3.02041

>  <r_i_glide_ligand_efficiency>  (448) 
-0.104152

>  <r_i_glide_ligand_efficiency_sa>  (448) 
-0.319988

>  <r_i_glide_ligand_efficiency_ln>  (448) 
-0.691597

>  <r_i_glide_gscore>  (448) 
-3.02041

>  <r_i_glide_lipo>  (448) 
-0.295179

>  <r_i_glide_hbond>  (448) 
-0.16

>  <r_i_glide_metal>  (448) 
-0

>  <r_i_glide_rewards>  (448) 
-0.69921

>  <r_i_glide_evdw>  (448) 
-28.5638

>  <r_i_glide_ecoul>  (448) 
-5.26093

>  <r_i_glide_erotb>  (448) 
0.619592

>  <r_i_glide_esite>  (448) 
-0.268281

>  <r_i_glide_emodel>  (448) 
-39.6686

>  <r_i_glide_energy>  (448) 
-33.8248

>  <r_i_glide_einternal>  (448) 
2.16808

>  <r_i_glide_intrahb_reward>  (448) 
-0

>  <i_i_glide_confnum>  (448) 
4

>  <i_i_glide_posenum>  (448) 
27

>  <r_i_glide_eff_state_penalty>  (448) 
0

>  <ligand_id>  (448) 
118

>  <original_smiles>  (448) 
Cc1n[nH]c2ncnc(-c3cn(CC(=O)N4CC(F)CC4C)c(C4CCC4)n3)c12

>  <smiles>  (448) 
[H]c1nc(-c2nc(C3([H])C([H])([H])C([H])([H])C3([H])[H])n(C([H])([H])C(=O)N3C([H])([H])C([H])(F)C([H])([H])C3([H])C([H])([H])[H])c2[H])c2c(C([H])([H])[H])nn([H])c2n1

$$$$
118:0:1
     RDKit          3D

 53 57  0  0  1  0  0  0  0  0999 V2000
   -1.6011   -0.2199    4.6072 C   0  0  0  0  0  0  0  0  0  0  0  0
   -0.6279    0.4963    3.7265 C   0  0  0  0  0  0  0  0  0  0  0  0
   -0.8913    1.7312    3.3625 N   0  0  0  0  0  0  0  0  0  0  0  0
    0.1384    2.1255    2.5699 N   0  0  0  0  0  0  0  0  0  0  0  0
    1.0892    1.1478    2.4062 C   0  0  0  0  0  0  0  0  0  0  0  0
    2.2279    1.2286    1.6815 N   0  0  0  0  0  0  0  0  0  0  0  0
    2.9008    0.0878    1.7003 C   0  0  0  0  0  0  0  0  0  0  0  0
    2.5994   -1.0374    2.3366 N   0  0  0  0  0  0  0  0  0  0  0  0
    1.4773   -1.1073    3.0880 C   0  0  0  0  0  0  0  0  0  0  0  0
    1.2513   -2.4054    3.7385 C   0  0  0  0  0  0  0  0  0  0  0  0
    1.7556   -3.6549    3.4423 C   0  0  0  0  0  0  0  0  0  0  0  0
    1.2550   -4.5500    4.3904 N   0  0  0  0  0  0  0  0  0  0  0  0
    1.5586   -5.9802    4.4635 C   0  0  0  0  0  0  0  0  0  0  0  0
    0.6987   -6.8329    3.5088 C   0  0  0  0  0  0  0  0  0  0  0  0
   -0.0980   -6.2732    2.7502 O   0  0  0  0  0  0  0  0  0  0  0  0
    0.8492   -8.1801    3.5499 N   0  0  0  0  0  0  0  0  0  0  0  0
    1.9149   -8.8659    4.2906 C   0  0  0  0  0  0  0  0  0  0  0  0
    1.9245  -10.3137    3.7968 C   0  0  1  0  0  0  0  0  0  0  0  0
    2.2502  -11.1584    4.7710 F   0  0  0  0  0  0  0  0  0  0  0  0
    0.5120  -10.5419    3.2884 C   0  0  0  0  0  0  0  0  0  0  0  0
    0.0587   -9.1632    2.7846 C   0  0  1  0  0  0  0  0  0  0  0  0
   -1.4724   -8.9876    2.9212 C   0  0  0  0  0  0  0  0  0  0  0  0
    0.4697   -3.8098    5.1973 C   0  0  0  0  0  0  0  0  0  0  0  0
   -0.2177   -4.3245    6.4243 C   0  0  0  0  0  0  0  0  0  0  0  0
   -1.3696   -3.4870    7.0122 C   0  0  0  0  0  0  0  0  0  0  0  0
   -0.8256   -3.7797    8.4110 C   0  0  0  0  0  0  0  0  0  0  0  0
    0.5053   -4.1804    7.7703 C   0  0  0  0  0  0  0  0  0  0  0  0
    0.4311   -2.5274    4.8538 N   0  0  0  0  0  0  0  0  0  0  0  0
    0.6241    0.0352    3.1578 C   0  0  0  0  0  0  0  0  0  0  0  0
    0.1495    3.0404    2.1156 H   0  0  0  0  0  0  0  0  0  0  0  0
   -1.1229   -0.5338    5.5325 H   0  0  0  0  0  0  0  0  0  0  0  0
   -2.0213   -1.0928    4.1102 H   0  0  0  0  0  0  0  0  0  0  0  0
   -2.4385    0.4223    4.8882 H   0  0  0  0  0  0  0  0  0  0  0  0
    3.8268    0.0675    1.1525 H   0  0  0  0  0  0  0  0  0  0  0  0
    2.4316   -3.9636    2.6495 H   0  0  0  0  0  0  0  0  0  0  0  0
    2.6125   -6.1138    4.2161 H   0  0  0  0  0  0  0  0  0  0  0  0
    1.4278   -6.3399    5.4869 H   0  0  0  0  0  0  0  0  0  0  0  0
    2.9037   -8.4264    4.1458 H   0  0  0  0  0  0  0  0  0  0  0  0
    1.6740   -8.8294    5.3556 H   0  0  0  0  0  0  0  0  0  0  0  0
    2.6528  -10.4496    2.9918 H   0  0  0  0  0  0  0  0  0  0  0  0
    0.4688  -11.3222    2.5287 H   0  0  0  0  0  0  0  0  0  0  0  0
   -0.1169  -10.8603    4.1177 H   0  0  0  0  0  0  0  0  0  0  0  0
    0.3682   -9.0636    1.7398 H   0  0  0  0  0  0  0  0  0  0  0  0
   -1.9999   -9.7634    2.3667 H   0  0  0  0  0  0  0  0  0  0  0  0
   -1.8223   -8.0340    2.5348 H   0  0  0  0  0  0  0  0  0  0  0  0
   -1.7695   -9.0598    3.9673 H   0  0  0  0  0  0  0  0  0  0  0  0
   -0.5529   -5.3546    6.2750 H   0  0  0  0  0  0  0  0  0  0  0  0
   -1.2868   -2.4257    6.7685 H   0  0  0  0  0  0  0  0  0  0  0  0
   -2.3669   -3.8734    6.7944 H   0  0  0  0  0  0  0  0  0  0  0  0
   -0.7395   -2.9069    9.0570 H   0  0  0  0  0  0  0  0  0  0  0  0
   -1.3489   -4.6063    8.8955 H   0  0  0  0  0  0  0  0  0  0  0  0
    0.9375   -5.0985    8.1675 H   0  0  0  0  0  0  0  0  0  0  0  0
    1.2372   -3.3655    7.7645 H   0  0  0  0  0  0  0  0  0  0  0  0
  1  2  1  0
  1 31  1  0
  1 32  1  0
  1 33  1  0
  2 29  1  0
  2  3  2  0
  3  4  1  0
  4 30  1  0
  4  5  1  0
  5 29  2  0
  5  6  1  0
  6  7  2  0
  7  8  1  0
  7 34  1  0
  8  9  2  0
  9 10  1  0
  9 29  1  0
 10 28  1  0
 10 11  2  0
 11 12  1  0
 11 35  1  0
 12 13  1  0
 12 23  1  0
 13 14  1  0
 13 36  1  0
 13 37  1  0
 14 15  2  0
 14 16  1  0
 16 21  1  0
 16 17  1  0
 17 18  1  0
 17 38  1  0
 17 39  1  0
 18 19  1  0
 18 20  1  0
 18 40  1  6
 20 21  1  0
 20 41  1  0
 20 42  1  0
 21 22  1  0
 21 43  1  6
 22 44  1  0
 22 45  1  0
 22 46  1  0
 23 24  1  0
 23 28  2  0
 24 27  1  0
 24 25  1  0
 24 47  1  0
 25 26  1  0
 25 48  1  0
 25 49  1  0
 26 27  1  0
 26 50  1  0
 26 51  1  0
 27 52  1  0
 27 53  1  0
M  END
>  <i_m_ct_stereo_status>  (449) 
1

>  <s_m_source_file>  (449) 
/var/tmp/pbs.5076255.sched01/tmp54n2b71h/144k2pf1zoq.sdf

>  <i_m_source_file_index>  (449) 
44

>  <i_lp_mmshare_version>  (449) 
48012

>  <i_f3d_flags>  (449) 
0

>  <s_epik_input>  (449) 
W25IXTFuYyhbQ0gzXSljKGMxMiljKG5bY0hdbjIpLWMzW2NIXW4oYyhuMylbQ0hdNFtDSDJdW0NIMl1bQ0gyXTQpW0NIMl1DKD1PKU41W0NIMl1bQ0BASF0oRilbQ0gyXVtDQEhdNVtDSDNd

>  <s_epik_cmdline>  (449) 
J2VwaWtfcHl0aG9uJywgJy1waHQnLCAnMi4wJywgJy1waCcsICc3LjAnLCAnLXRuJywgJzgnLCAnLW1hJywgJzIwMCcsICctaW1hZScsICc8aW5maWxlLm1hZT4nLCAnLW9tYWUnLCAnPG91dGZpbGUubWFlPic=

>  <r_lp_tautomer_probability>  (449) 
1

>  <r_epik_Ionization_Penalty>  (449) 
0.0101949

>  <r_epik_Ionization_Penalty_Charging>  (449) 
0.010178

>  <r_epik_Ionization_Penalty_Neutral>  (449) 
1.69192e-05

>  <r_epik_State_Penalty>  (449) 
0.00776962

>  <r_epik_Charging_Adjusted_Penalty>  (449) 
0.0179476

>  <i_epik_Tot_Q>  (449) 
0

>  <i_epik_Tot_abs_Q>  (449) 
0

>  <s_lp_Force_Field>  (449) 
OPLS3e

>  <r_lp_Energy>  (449) 
34.165

>  <b_lp_Chiralities_Consistent>  (449) 
1

>  <s_lp_Variant>  (449) 
118:0-1

>  <s_i_glide_gridfile>  (449) 
pfpi4k_grid

>  <i_i_glide_lignum>  (449) 
44

>  <i_i_glide_rotatable_bonds>  (449) 
5

>  <r_i_docking_score>  (449) 
-2.96388

>  <r_i_glide_ligand_efficiency>  (449) 
-0.102203

>  <r_i_glide_ligand_efficiency_sa>  (449) 
-0.313999

>  <r_i_glide_ligand_efficiency_ln>  (449) 
-0.678652

>  <r_i_glide_gscore>  (449) 
-2.96388

>  <r_i_glide_lipo>  (449) 
-0.0680912

>  <r_i_glide_hbond>  (449) 
-0.309112

>  <r_i_glide_metal>  (449) 
-0

>  <r_i_glide_rewards>  (449) 
-0.701052

>  <r_i_glide_evdw>  (449) 
-29.1958

>  <r_i_glide_ecoul>  (449) 
-5.24617

>  <r_i_glide_erotb>  (449) 
0.619592

>  <r_i_glide_esite>  (449) 
-0.258495

>  <r_i_glide_emodel>  (449) 
-40.3516

>  <r_i_glide_energy>  (449) 
-34.442

>  <r_i_glide_einternal>  (449) 
2.12584

>  <r_i_glide_intrahb_reward>  (449) 
-0

>  <i_i_glide_confnum>  (449) 
4

>  <i_i_glide_posenum>  (449) 
10

>  <r_i_glide_eff_state_penalty>  (449) 
0

>  <ligand_id>  (449) 
118

>  <original_smiles>  (449) 
Cc1n[nH]c2ncnc(-c3cn(CC(=O)N4CC(F)CC4C)c(C4CCC4)n3)c12

>  <smiles>  (449) 
[H]c1nc(-c2nc(C3([H])C([H])([H])C([H])([H])C3([H])[H])n(C([H])([H])C(=O)N3C([H])([H])C([H])(F)C([H])([H])C3([H])C([H])([H])[H])c2[H])c2c(C([H])([H])[H])nn([H])c2n1

$$$$
118:0:2
     RDKit          3D

 53 57  0  0  1  0  0  0  0  0999 V2000
    3.7488   -8.9007    2.9189 C   0  0  0  0  0  0  0  0  0  0  0  0
    2.3028   -9.2760    2.9007 C   0  0  0  0  0  0  0  0  0  0  0  0
    1.9821  -10.5515    2.9006 N   0  0  0  0  0  0  0  0  0  0  0  0
    0.6301  -10.6062    2.8798 N   0  0  0  0  0  0  0  0  0  0  0  0
    0.0392   -9.3655    2.8726 C   0  0  0  0  0  0  0  0  0  0  0  0
   -1.2883   -9.0816    2.8520 N   0  0  0  0  0  0  0  0  0  0  0  0
   -1.5009   -7.7768    2.8846 C   0  0  0  0  0  0  0  0  0  0  0  0
   -0.6116   -6.7859    2.9094 N   0  0  0  0  0  0  0  0  0  0  0  0
    0.7087   -7.0777    2.9051 C   0  0  0  0  0  0  0  0  0  0  0  0
    1.5976   -5.9114    2.9589 C   0  0  0  0  0  0  0  0  0  0  0  0
    1.3978   -4.6678    3.5175 C   0  0  0  0  0  0  0  0  0  0  0  0
    2.5463   -3.9097    3.2909 N   0  0  0  0  0  0  0  0  0  0  0  0
    2.7664   -2.5414    3.7542 C   0  0  0  0  0  0  0  0  0  0  0  0
    2.2640   -1.4882    2.7479 C   0  0  0  0  0  0  0  0  0  0  0  0
    2.8696   -1.3804    1.6816 O   0  0  0  0  0  0  0  0  0  0  0  0
    1.2117   -0.6986    3.0883 N   0  0  0  0  0  0  0  0  0  0  0  0
    0.3795   -0.9168    4.2764 C   0  0  0  0  0  0  0  0  0  0  0  0
   -0.8429   -0.0165    4.1333 C   0  0  1  0  0  0  0  0  0  0  0  0
   -1.2812    0.4135    5.3165 F   0  0  0  0  0  0  0  0  0  0  0  0
   -0.3660    1.1084    3.2287 C   0  0  0  0  0  0  0  0  0  0  0  0
    0.6961    0.4564    2.3254 C   0  0  1  0  0  0  0  0  0  0  0  0
    1.7803    1.4774    1.9144 C   0  0  0  0  0  0  0  0  0  0  0  0
    3.3717   -4.7219    2.6017 C   0  0  0  0  0  0  0  0  0  0  0  0
    4.7380   -4.3577    2.1158 C   0  0  0  0  0  0  0  0  0  0  0  0
    5.0350   -4.5341    0.6220 C   0  0  0  0  0  0  0  0  0  0  0  0
    6.4021   -5.1091    1.0026 C   0  0  0  0  0  0  0  0  0  0  0  0
    5.8757   -5.3429    2.4196 C   0  0  0  0  0  0  0  0  0  0  0  0
    2.8579   -5.9286    2.3861 N   0  0  0  0  0  0  0  0  0  0  0  0
    1.1182   -8.4405    2.8913 C   0  0  0  0  0  0  0  0  0  0  0  0
    0.1451  -11.4933    2.8724 H   0  0  0  0  0  0  0  0  0  0  0  0
    3.9883   -8.2839    3.7840 H   0  0  0  0  0  0  0  0  0  0  0  0
    4.0259   -8.3584    2.0163 H   0  0  0  0  0  0  0  0  0  0  0  0
    4.3892   -9.7853    2.9636 H   0  0  0  0  0  0  0  0  0  0  0  0
   -2.5318   -7.4637    2.8745 H   0  0  0  0  0  0  0  0  0  0  0  0
    0.5464   -4.2785    4.0616 H   0  0  0  0  0  0  0  0  0  0  0  0
    2.3277   -2.4424    4.7466 H   0  0  0  0  0  0  0  0  0  0  0  0
    3.8279   -2.3587    3.9126 H   0  0  0  0  0  0  0  0  0  0  0  0
    0.0642   -1.9558    4.3866 H   0  0  0  0  0  0  0  0  0  0  0  0
    0.9533   -0.6275    5.1601 H   0  0  0  0  0  0  0  0  0  0  0  0
   -1.6663   -0.5606    3.6738 H   0  0  0  0  0  0  0  0  0  0  0  0
   -1.1849    1.5684    2.6725 H   0  0  0  0  0  0  0  0  0  0  0  0
    0.0946    1.8864    3.8413 H   0  0  0  0  0  0  0  0  0  0  0  0
    0.2028    0.0705    1.4315 H   0  0  0  0  0  0  0  0  0  0  0  0
    1.3384    2.3123    1.3692 H   0  0  0  0  0  0  0  0  0  0  0  0
    2.5317    1.0435    1.2589 H   0  0  0  0  0  0  0  0  0  0  0  0
    2.2967    1.8787    2.7878 H   0  0  0  0  0  0  0  0  0  0  0  0
    5.0306   -3.3525    2.4258 H   0  0  0  0  0  0  0  0  0  0  0  0
    4.3734   -5.2708    0.1580 H   0  0  0  0  0  0  0  0  0  0  0  0
    5.0578   -3.6029    0.0537 H   0  0  0  0  0  0  0  0  0  0  0  0
    6.6617   -6.0241    0.4723 H   0  0  0  0  0  0  0  0  0  0  0  0
    7.1967   -4.3633    0.9698 H   0  0  0  0  0  0  0  0  0  0  0  0
    6.5461   -5.0444    3.2257 H   0  0  0  0  0  0  0  0  0  0  0  0
    5.5129   -6.3621    2.5722 H   0  0  0  0  0  0  0  0  0  0  0  0
  1  2  1  0
  1 31  1  0
  1 32  1  0
  1 33  1  0
  2 29  1  0
  2  3  2  0
  3  4  1  0
  4 30  1  0
  4  5  1  0
  5 29  2  0
  5  6  1  0
  6  7  2  0
  7  8  1  0
  7 34  1  0
  8  9  2  0
  9 10  1  0
  9 29  1  0
 10 28  1  0
 10 11  2  0
 11 12  1  0
 11 35  1  0
 12 13  1  0
 12 23  1  0
 13 14  1  0
 13 36  1  0
 13 37  1  0
 14 15  2  0
 14 16  1  0
 16 21  1  0
 16 17  1  0
 17 18  1  0
 17 38  1  0
 17 39  1  0
 18 19  1  0
 18 20  1  0
 18 40  1  6
 20 21  1  0
 20 41  1  0
 20 42  1  0
 21 22  1  0
 21 43  1  6
 22 44  1  0
 22 45  1  0
 22 46  1  0
 23 24  1  0
 23 28  2  0
 24 27  1  0
 24 25  1  0
 24 47  1  0
 25 26  1  0
 25 48  1  0
 25 49  1  0
 26 27  1  0
 26 50  1  0
 26 51  1  0
 27 52  1  0
 27 53  1  0
M  END
>  <i_m_ct_stereo_status>  (450) 
1

>  <s_m_source_file>  (450) 
/var/tmp/pbs.5076255.sched01/tmp54n2b71h/144k2pf1zoq.sdf

>  <i_m_source_file_index>  (450) 
44

>  <i_lp_mmshare_version>  (450) 
48012

>  <i_f3d_flags>  (450) 
0

>  <s_epik_input>  (450) 
W25IXTFuYyhbQ0gzXSljKGMxMiljKG5bY0hdbjIpLWMzW2NIXW4oYyhuMylbQ0hdNFtDSDJdW0NIMl1bQ0gyXTQpW0NIMl1DKD1PKU41W0NIMl1bQ0BASF0oRilbQ0gyXVtDQEhdNVtDSDNd

>  <s_epik_cmdline>  (450) 
J2VwaWtfcHl0aG9uJywgJy1waHQnLCAnMi4wJywgJy1waCcsICc3LjAnLCAnLXRuJywgJzgnLCAnLW1hJywgJzIwMCcsICctaW1hZScsICc8aW5maWxlLm1hZT4nLCAnLW9tYWUnLCAnPG91dGZpbGUubWFlPic=

>  <r_lp_tautomer_probability>  (450) 
1

>  <r_epik_Ionization_Penalty>  (450) 
0.0101949

>  <r_epik_Ionization_Penalty_Charging>  (450) 
0.010178

>  <r_epik_Ionization_Penalty_Neutral>  (450) 
1.69192e-05

>  <r_epik_State_Penalty>  (450) 
0.00776962

>  <r_epik_Charging_Adjusted_Penalty>  (450) 
0.0179476

>  <i_epik_Tot_Q>  (450) 
0

>  <i_epik_Tot_abs_Q>  (450) 
0

>  <s_lp_Force_Field>  (450) 
OPLS3e

>  <r_lp_Energy>  (450) 
34.165

>  <b_lp_Chiralities_Consistent>  (450) 
1

>  <s_lp_Variant>  (450) 
118:0-1

>  <s_i_glide_gridfile>  (450) 
pfpi4k_grid

>  <i_i_glide_lignum>  (450) 
44

>  <i_i_glide_rotatable_bonds>  (450) 
5

>  <r_i_docking_score>  (450) 
-2.53528

>  <r_i_glide_ligand_efficiency>  (450) 
-0.0874235

>  <r_i_glide_ligand_efficiency_sa>  (450) 
-0.268593

>  <r_i_glide_ligand_efficiency_ln>  (450) 
-0.580515

>  <r_i_glide_gscore>  (450) 
-2.53528

>  <r_i_glide_lipo>  (450) 
-0.198858

>  <r_i_glide_hbond>  (450) 
-0.16

>  <r_i_glide_metal>  (450) 
-0

>  <r_i_glide_rewards>  (450) 
-0.69921

>  <r_i_glide_evdw>  (450) 
-30.1304

>  <r_i_glide_ecoul>  (450) 
-2.89919

>  <r_i_glide_erotb>  (450) 
0.619592

>  <r_i_glide_esite>  (450) 
-0.155408

>  <r_i_glide_emodel>  (450) 
-38.0762

>  <r_i_glide_energy>  (450) 
-33.0296

>  <r_i_glide_einternal>  (450) 
1.87409

>  <r_i_glide_intrahb_reward>  (450) 
-0

>  <i_i_glide_confnum>  (450) 
4

>  <i_i_glide_posenum>  (450) 
22

>  <r_i_glide_eff_state_penalty>  (450) 
0

>  <ligand_id>  (450) 
118

>  <original_smiles>  (450) 
Cc1n[nH]c2ncnc(-c3cn(CC(=O)N4CC(F)CC4C)c(C4CCC4)n3)c12

>  <smiles>  (450) 
[H]c1nc(-c2nc(C3([H])C([H])([H])C([H])([H])C3([H])[H])n(C([H])([H])C(=O)N3C([H])([H])C([H])(F)C([H])([H])C3([H])C([H])([H])[H])c2[H])c2c(C([H])([H])[H])nn([H])c2n1

$$$$
118:1:0
     RDKit          3D

 54 58  0  0  1  0  0  0  0  0999 V2000
    5.9644   -6.3250    0.7994 C   0  0  0  0  0  0  0  0  0  0  0  0
    4.9901   -7.4032    1.1347 C   0  0  0  0  0  0  0  0  0  0  0  0
    5.3921   -8.6478    1.2778 N   0  0  0  0  0  0  0  0  0  0  0  0
    4.2905   -9.3667    1.5984 N   0  0  0  0  0  0  0  0  0  0  0  0
    3.1496   -8.5972    1.6836 C   0  0  0  0  0  0  0  0  0  0  0  0
    1.8946   -8.9878    2.0116 N   0  0  0  0  0  0  0  0  0  0  0  0
    1.0398   -7.9732    1.9422 C   0  0  0  0  0  0  0  0  0  0  0  0
    1.2745   -6.6965    1.6132 N   0  0  0  0  0  0  0  0  0  0  0  0
    2.5395   -6.3165    1.3053 C   0  0  0  0  0  0  0  0  0  0  0  0
    2.7381   -4.9044    0.9528 C   0  0  0  0  0  0  0  0  0  0  0  0
    2.7057   -3.8133    1.7821 C   0  0  0  0  0  0  0  0  0  0  0  0
    2.8679   -2.7025    0.9716 N   0  0  0  0  0  0  0  0  0  0  0  0
    2.9409   -1.2838    1.4197 C   0  0  0  0  0  0  0  0  0  0  0  0
    1.8101   -0.8547    2.3838 C   0  0  0  0  0  0  0  0  0  0  0  0
    1.0465   -1.7068    2.8407 O   0  0  0  0  0  0  0  0  0  0  0  0
    1.6829    0.4569    2.7000 N   0  0  0  0  0  0  0  0  0  0  0  0
    2.6522    1.4911    2.3297 C   0  0  0  0  0  0  0  0  0  0  0  0
    2.3551    2.6876    3.2322 C   0  0  1  0  0  0  0  0  0  0  0  0
    2.6071    3.8462    2.6352 F   0  0  0  0  0  0  0  0  0  0  0  0
    0.8840    2.5286    3.5906 C   0  0  0  0  0  0  0  0  0  0  0  0
    0.6542    1.0176    3.5932 C   0  0  1  0  0  0  0  0  0  0  0  0
   -0.7900    0.6664    3.1812 C   0  0  0  0  0  0  0  0  0  0  0  0
    3.0202   -3.1078   -0.3150 C   0  0  0  0  0  0  0  0  0  0  0  0
    3.2925   -2.3093   -1.5609 C   0  0  0  0  0  0  0  0  0  0  0  0
    2.7147   -2.7840   -2.9068 C   0  0  0  0  0  0  0  0  0  0  0  0
    4.0152   -2.3458   -3.5811 C   0  0  0  0  0  0  0  0  0  0  0  0
    4.6860   -2.3835   -2.2055 C   0  0  0  0  0  0  0  0  0  0  0  0
    2.9325   -4.4442   -0.3197 N   0  0  0  0  0  0  0  0  0  0  0  0
    3.5701   -7.2895    1.3375 C   0  0  0  0  0  0  0  0  0  0  0  0
    4.3283  -10.3782    1.7056 H   0  0  0  0  0  0  0  0  0  0  0  0
    5.7787   -5.4210    1.3784 H   0  0  0  0  0  0  0  0  0  0  0  0
    5.9146   -6.0605   -0.2578 H   0  0  0  0  0  0  0  0  0  0  0  0
    6.9846   -6.6529    1.0160 H   0  0  0  0  0  0  0  0  0  0  0  0
    0.0172   -8.2336    2.1812 H   0  0  0  0  0  0  0  0  0  0  0  0
    2.5669   -3.7588    2.8537 H   0  0  0  0  0  0  0  0  0  0  0  0
    3.9053   -1.1635    1.9124 H   0  0  0  0  0  0  0  0  0  0  0  0
    2.9332   -0.6062    0.5643 H   0  0  0  0  0  0  0  0  0  0  0  0
    3.6885    1.1752    2.4618 H   0  0  0  0  0  0  0  0  0  0  0  0
    2.4846    1.7432    1.2797 H   0  0  0  0  0  0  0  0  0  0  0  0
    2.9724    2.6480    4.1315 H   0  0  0  0  0  0  0  0  0  0  0  0
    0.6318    3.0011    4.5381 H   0  0  0  0  0  0  0  0  0  0  0  0
    0.2714    2.9924    2.8144 H   0  0  0  0  0  0  0  0  0  0  0  0
    0.8626    0.6359    4.5954 H   0  0  0  0  0  0  0  0  0  0  0  0
   -1.5139    1.1864    3.8055 H   0  0  0  0  0  0  0  0  0  0  0  0
   -0.9979   -0.3922    3.2920 H   0  0  0  0  0  0  0  0  0  0  0  0
   -0.9774    0.9369    2.1403 H   0  0  0  0  0  0  0  0  0  0  0  0
    3.0084   -1.2717   -1.4010 H   0  0  0  0  0  0  0  0  0  0  0  0
    2.5594   -3.8576   -2.9539 H   0  0  0  0  0  0  0  0  0  0  0  0
    1.8208   -2.2496   -3.2290 H   0  0  0  0  0  0  0  0  0  0  0  0
    4.4088   -3.0677   -4.2929 H   0  0  0  0  0  0  0  0  0  0  0  0
    3.9587   -1.3395   -4.0029 H   0  0  0  0  0  0  0  0  0  0  0  0
    5.3329   -1.5324   -1.9921 H   0  0  0  0  0  0  0  0  0  0  0  0
    5.1869   -3.3351   -2.0020 H   0  0  0  0  0  0  0  0  0  0  0  0
    2.9964   -5.0139   -1.1644 H   0  0  0  0  0  0  0  0  0  0  0  0
  1  2  1  0
  1 31  1  0
  1 32  1  0
  1 33  1  0
  2 29  1  0
  2  3  2  0
  3  4  1  0
  4 30  1  0
  4  5  1  0
  5 29  2  0
  5  6  1  0
  6  7  2  0
  7  8  1  0
  7 34  1  0
  8  9  2  0
  9 10  1  0
  9 29  1  0
 10 28  1  0
 10 11  2  0
 11 12  1  0
 11 35  1  0
 12 13  1  0
 12 23  1  0
 13 14  1  0
 13 36  1  0
 13 37  1  0
 14 15  2  0
 14 16  1  0
 16 21  1  0
 16 17  1  0
 17 18  1  0
 17 38  1  0
 17 39  1  0
 18 19  1  0
 18 20  1  0
 18 40  1  1
 20 21  1  0
 20 41  1  0
 20 42  1  0
 21 22  1  0
 21 43  1  1
 22 44  1  0
 22 45  1  0
 22 46  1  0
 23 24  1  0
 23 28  2  0
 24 27  1  0
 24 25  1  0
 24 47  1  0
 25 26  1  0
 25 48  1  0
 25 49  1  0
 26 27  1  0
 26 50  1  0
 26 51  1  0
 27 52  1  0
 27 53  1  0
 28 54  1  0
M  CHG  1  28   1
M  END
>  <i_m_ct_stereo_status>  (451) 
1

>  <s_m_source_file>  (451) 
/var/tmp/pbs.5076255.sched01/tmp54n2b71h/144k2pf1zoq.sdf

>  <i_m_source_file_index>  (451) 
45

>  <i_lp_mmshare_version>  (451) 
48012

>  <i_f3d_flags>  (451) 
0

>  <s_epik_input>  (451) 
W25IXTFuYyhbQ0gzXSljKGMxMiljKG5bY0hdbjIpLWMzW2NIXW4oYyhuMylbQ0hdNFtDSDJdW0NIMl1bQ0gyXTQpW0NIMl1DKD1PKU41W0NIMl1bQ0BASF0oRilbQ0gyXVtDQEhdNVtDSDNd

>  <s_epik_cmdline>  (451) 
J2VwaWtfcHl0aG9uJywgJy1waHQnLCAnMi4wJywgJy1waCcsICc3LjAnLCAnLXRuJywgJzgnLCAnLW1hJywgJzIwMCcsICctaW1hZScsICc8aW5maWxlLm1hZT4nLCAnLW9tYWUnLCAnPG91dGZpbGUubWFlPic=

>  <r_lp_tautomer_probability>  (451) 
1

>  <r_epik_Ionization_Penalty>  (451) 
2.41307

>  <r_epik_Ionization_Penalty_Charging>  (451) 
0

>  <r_epik_Ionization_Penalty_Neutral>  (451) 
2.41307

>  <r_epik_State_Penalty>  (451) 
2.57178

>  <r_epik_Charging_Adjusted_Penalty>  (451) 
2.57178

>  <i_epik_Tot_Q>  (451) 
1

>  <i_epik_Tot_abs_Q>  (451) 
1

>  <s_lp_Force_Field>  (451) 
OPLS3e

>  <r_lp_Energy>  (451) 
38.45

>  <b_lp_Chiralities_Consistent>  (451) 
1

>  <s_lp_Variant>  (451) 
118:0-2

>  <s_i_glide_gridfile>  (451) 
pfpi4k_grid

>  <i_i_glide_lignum>  (451) 
45

>  <i_i_glide_rotatable_bonds>  (451) 
5

>  <r_i_docking_score>  (451) 
-3.73694

>  <r_i_glide_ligand_efficiency>  (451) 
-0.12886

>  <r_i_glide_ligand_efficiency_sa>  (451) 
-0.395899

>  <r_i_glide_ligand_efficiency_ln>  (451) 
-0.855665

>  <r_i_glide_gscore>  (451) 
-3.73694

>  <r_i_glide_lipo>  (451) 
-0.502306

>  <r_i_glide_hbond>  (451) 
-0.0518093

>  <r_i_glide_metal>  (451) 
-0

>  <r_i_glide_rewards>  (451) 
-0.692337

>  <r_i_glide_evdw>  (451) 
-32.7862

>  <r_i_glide_ecoul>  (451) 
-7.62332

>  <r_i_glide_erotb>  (451) 
0.616775

>  <r_i_glide_esite>  (451) 
-0.324458

>  <r_i_glide_emodel>  (451) 
-47.576

>  <r_i_glide_energy>  (451) 
-40.4095

>  <r_i_glide_einternal>  (451) 
6.41727

>  <r_i_glide_intrahb_reward>  (451) 
-0

>  <i_i_glide_confnum>  (451) 
1

>  <i_i_glide_posenum>  (451) 
20

>  <r_i_glide_eff_state_penalty>  (451) 
0

>  <ligand_id>  (451) 
118

>  <original_smiles>  (451) 
Cc1n[nH]c2ncnc(-c3cn(CC(=O)N4CC(F)CC4C)c(C4CCC4)n3)c12

>  <smiles>  (451) 
[H]c1nc(-c2c([H])n(C([H])([H])C(=O)N3C([H])([H])C([H])(F)C([H])([H])C3([H])C([H])([H])[H])c(C3([H])C([H])([H])C([H])([H])C3([H])[H])[n+]2[H])c2c(C([H])([H])[H])nn([H])c2n1

$$$$
118:1:1
     RDKit          3D

 54 58  0  0  1  0  0  0  0  0999 V2000
   -1.5523   -0.3029    4.5899 C   0  0  0  0  0  0  0  0  0  0  0  0
   -0.6110    0.4439    3.6971 C   0  0  0  0  0  0  0  0  0  0  0  0
   -0.9008    1.6850    3.3641 N   0  0  0  0  0  0  0  0  0  0  0  0
    0.1161    2.1166    2.5816 N   0  0  0  0  0  0  0  0  0  0  0  0
    1.0904    1.1632    2.4003 C   0  0  0  0  0  0  0  0  0  0  0  0
    2.2361    1.2914    1.6930 N   0  0  0  0  0  0  0  0  0  0  0  0
    2.9396    0.1678    1.7013 C   0  0  0  0  0  0  0  0  0  0  0  0
    2.6579   -0.9915    2.2972 N   0  0  0  0  0  0  0  0  0  0  0  0
    1.5139   -1.1187    3.0086 C   0  0  0  0  0  0  0  0  0  0  0  0
    1.2926   -2.4499    3.6157 C   0  0  0  0  0  0  0  0  0  0  0  0
    1.8442   -3.6695    3.2987 C   0  0  0  0  0  0  0  0  0  0  0  0
    1.2928   -4.5839    4.1837 N   0  0  0  0  0  0  0  0  0  0  0  0
    1.5834   -6.0275    4.2559 C   0  0  0  0  0  0  0  0  0  0  0  0
    0.6535   -6.8925    3.3808 C   0  0  0  0  0  0  0  0  0  0  0  0
   -0.1716   -6.3328    2.6512 O   0  0  0  0  0  0  0  0  0  0  0  0
    0.7709   -8.2411    3.4657 N   0  0  0  0  0  0  0  0  0  0  0  0
    1.8835   -8.9313    4.1352 C   0  0  0  0  0  0  0  0  0  0  0  0
    1.8459  -10.3759    3.6355 C   0  0  1  0  0  0  0  0  0  0  0  0
    2.2527  -11.2328    4.5677 F   0  0  0  0  0  0  0  0  0  0  0  0
    0.3952  -10.5991    3.2466 C   0  0  0  0  0  0  0  0  0  0  0  0
   -0.0921   -9.2190    2.7799 C   0  0  1  0  0  0  0  0  0  0  0  0
   -1.5955   -9.0265    3.0677 C   0  0  0  0  0  0  0  0  0  0  0  0
    0.4446   -3.9468    5.0199 C   0  0  0  0  0  0  0  0  0  0  0  0
   -0.3567   -4.4891    6.1751 C   0  0  0  0  0  0  0  0  0  0  0  0
   -1.3703   -3.5736    6.9009 C   0  0  0  0  0  0  0  0  0  0  0  0
   -0.9470   -4.1968    8.2298 C   0  0  0  0  0  0  0  0  0  0  0  0
    0.3357   -4.6632    7.5361 C   0  0  0  0  0  0  0  0  0  0  0  0
    0.4521   -2.6635    4.6629 N   0  0  0  0  0  0  0  0  0  0  0  0
    0.6448    0.0139    3.1116 C   0  0  0  0  0  0  0  0  0  0  0  0
    0.1103    3.0457    2.1516 H   0  0  0  0  0  0  0  0  0  0  0  0
   -1.0175   -0.7944    5.3968 H   0  0  0  0  0  0  0  0  0  0  0  0
   -2.1402   -1.0416    4.0392 H   0  0  0  0  0  0  0  0  0  0  0  0
   -2.2441    0.3779    5.0901 H   0  0  0  0  0  0  0  0  0  0  0  0
    3.8809    0.2156    1.1819 H   0  0  0  0  0  0  0  0  0  0  0  0
    2.5688   -3.9347    2.5373 H   0  0  0  0  0  0  0  0  0  0  0  0
    2.6144   -6.1547    3.9266 H   0  0  0  0  0  0  0  0  0  0  0  0
    1.5278   -6.3466    5.3023 H   0  0  0  0  0  0  0  0  0  0  0  0
    2.8601   -8.4961    3.9191 H   0  0  0  0  0  0  0  0  0  0  0  0
    1.7202   -8.8947    5.2149 H   0  0  0  0  0  0  0  0  0  0  0  0
    2.4975  -10.5087    2.7687 H   0  0  0  0  0  0  0  0  0  0  0  0
    0.2827  -11.3738    2.4897 H   0  0  0  0  0  0  0  0  0  0  0  0
   -0.1655  -10.9205    4.1251 H   0  0  0  0  0  0  0  0  0  0  0  0
    0.1038   -9.1204    1.7181 H   0  0  0  0  0  0  0  0  0  0  0  0
   -2.1742   -9.8386    2.6320 H   0  0  0  0  0  0  0  0  0  0  0  0
   -1.9803   -8.1003    2.6525 H   0  0  0  0  0  0  0  0  0  0  0  0
   -1.7889   -9.0195    4.1392 H   0  0  0  0  0  0  0  0  0  0  0  0
   -0.8394   -5.4155    5.8504 H   0  0  0  0  0  0  0  0  0  0  0  0
   -1.1011   -2.5161    6.8692 H   0  0  0  0  0  0  0  0  0  0  0  0
   -2.4176   -3.7334    6.6377 H   0  0  0  0  0  0  0  0  0  0  0  0
   -0.7829   -3.4836    9.0367 H   0  0  0  0  0  0  0  0  0  0  0  0
   -1.5954   -5.0167    8.5431 H   0  0  0  0  0  0  0  0  0  0  0  0
    0.6272   -5.6862    7.7741 H   0  0  0  0  0  0  0  0  0  0  0  0
    1.1672   -3.9645    7.6724 H   0  0  0  0  0  0  0  0  0  0  0  0
   -0.0701   -1.9377    5.1333 H   0  0  0  0  0  0  0  0  0  0  0  0
  1  2  1  0
  1 31  1  0
  1 32  1  0
  1 33  1  0
  2 29  1  0
  2  3  2  0
  3  4  1  0
  4 30  1  0
  4  5  1  0
  5 29  2  0
  5  6  1  0
  6  7  2  0
  7  8  1  0
  7 34  1  0
  8  9  2  0
  9 10  1  0
  9 29  1  0
 10 28  1  0
 10 11  2  0
 11 12  1  0
 11 35  1  0
 12 13  1  0
 12 23  1  0
 13 14  1  0
 13 36  1  0
 13 37  1  0
 14 15  2  0
 14 16  1  0
 16 21  1  0
 16 17  1  0
 17 18  1  0
 17 38  1  0
 17 39  1  0
 18 19  1  0
 18 20  1  0
 18 40  1  6
 20 21  1  0
 20 41  1  0
 20 42  1  0
 21 22  1  0
 21 43  1  6
 22 44  1  0
 22 45  1  0
 22 46  1  0
 23 24  1  0
 23 28  2  0
 24 27  1  0
 24 25  1  0
 24 47  1  0
 25 26  1  0
 25 48  1  0
 25 49  1  0
 26 27  1  0
 26 50  1  0
 26 51  1  0
 27 52  1  0
 27 53  1  0
 28 54  1  0
M  CHG  1  28   1
M  END
>  <i_m_ct_stereo_status>  (452) 
1

>  <s_m_source_file>  (452) 
/var/tmp/pbs.5076255.sched01/tmp54n2b71h/144k2pf1zoq.sdf

>  <i_m_source_file_index>  (452) 
45

>  <i_lp_mmshare_version>  (452) 
48012

>  <i_f3d_flags>  (452) 
0

>  <s_epik_input>  (452) 
W25IXTFuYyhbQ0gzXSljKGMxMiljKG5bY0hdbjIpLWMzW2NIXW4oYyhuMylbQ0hdNFtDSDJdW0NIMl1bQ0gyXTQpW0NIMl1DKD1PKU41W0NIMl1bQ0BASF0oRilbQ0gyXVtDQEhdNVtDSDNd

>  <s_epik_cmdline>  (452) 
J2VwaWtfcHl0aG9uJywgJy1waHQnLCAnMi4wJywgJy1waCcsICc3LjAnLCAnLXRuJywgJzgnLCAnLW1hJywgJzIwMCcsICctaW1hZScsICc8aW5maWxlLm1hZT4nLCAnLW9tYWUnLCAnPG91dGZpbGUubWFlPic=

>  <r_lp_tautomer_probability>  (452) 
1

>  <r_epik_Ionization_Penalty>  (452) 
2.41307

>  <r_epik_Ionization_Penalty_Charging>  (452) 
0

>  <r_epik_Ionization_Penalty_Neutral>  (452) 
2.41307

>  <r_epik_State_Penalty>  (452) 
2.57178

>  <r_epik_Charging_Adjusted_Penalty>  (452) 
2.57178

>  <i_epik_Tot_Q>  (452) 
1

>  <i_epik_Tot_abs_Q>  (452) 
1

>  <s_lp_Force_Field>  (452) 
OPLS3e

>  <r_lp_Energy>  (452) 
38.45

>  <b_lp_Chiralities_Consistent>  (452) 
1

>  <s_lp_Variant>  (452) 
118:0-2

>  <s_i_glide_gridfile>  (452) 
pfpi4k_grid

>  <i_i_glide_lignum>  (452) 
45

>  <i_i_glide_rotatable_bonds>  (452) 
5

>  <r_i_docking_score>  (452) 
-3.23219

>  <r_i_glide_ligand_efficiency>  (452) 
-0.111455

>  <r_i_glide_ligand_efficiency_sa>  (452) 
-0.342424

>  <r_i_glide_ligand_efficiency_ln>  (452) 
-0.740089

>  <r_i_glide_gscore>  (452) 
-3.23219

>  <r_i_glide_lipo>  (452) 
-0.0855225

>  <r_i_glide_hbond>  (452) 
-0.32

>  <r_i_glide_metal>  (452) 
-0

>  <r_i_glide_rewards>  (452) 
-0.699773

>  <r_i_glide_evdw>  (452) 
-28.7646

>  <r_i_glide_ecoul>  (452) 
-7.06979

>  <r_i_glide_erotb>  (452) 
0.616775

>  <r_i_glide_esite>  (452) 
-0.244971

>  <r_i_glide_emodel>  (452) 
-43.8372

>  <r_i_glide_energy>  (452) 
-35.8344

>  <r_i_glide_einternal>  (452) 
1.16478

>  <r_i_glide_intrahb_reward>  (452) 
-0

>  <i_i_glide_confnum>  (452) 
2

>  <i_i_glide_posenum>  (452) 
5

>  <r_i_glide_eff_state_penalty>  (452) 
0

>  <ligand_id>  (452) 
118

>  <original_smiles>  (452) 
Cc1n[nH]c2ncnc(-c3cn(CC(=O)N4CC(F)CC4C)c(C4CCC4)n3)c12

>  <smiles>  (452) 
[H]c1nc(-c2c([H])n(C([H])([H])C(=O)N3C([H])([H])C([H])(F)C([H])([H])C3([H])C([H])([H])[H])c(C3([H])C([H])([H])C([H])([H])C3([H])[H])[n+]2[H])c2c(C([H])([H])[H])nn([H])c2n1

$$$$
118:1:2
     RDKit          3D

 54 58  0  0  1  0  0  0  0  0999 V2000
    0.2895   -3.0608    5.2052 C   0  0  0  0  0  0  0  0  0  0  0  0
   -0.0004   -1.6303    4.9043 C   0  0  0  0  0  0  0  0  0  0  0  0
   -0.8577   -1.0018    5.6835 N   0  0  0  0  0  0  0  0  0  0  0  0
   -0.8882    0.2781    5.2616 N   0  0  0  0  0  0  0  0  0  0  0  0
   -0.0768    0.5082    4.1779 C   0  0  0  0  0  0  0  0  0  0  0  0
    0.0826    1.6863    3.5355 N   0  0  0  0  0  0  0  0  0  0  0  0
    0.9047    1.5647    2.5005 C   0  0  0  0  0  0  0  0  0  0  0  0
    1.5496    0.4646    2.0922 N   0  0  0  0  0  0  0  0  0  0  0  0
    1.4005   -0.7156    2.7530 C   0  0  0  0  0  0  0  0  0  0  0  0
    2.1408   -1.8685    2.1731 C   0  0  0  0  0  0  0  0  0  0  0  0
    2.4668   -3.1024    2.7030 C   0  0  0  0  0  0  0  0  0  0  0  0
    3.1252   -3.7916    1.7096 N   0  0  0  0  0  0  0  0  0  0  0  0
    3.6549   -5.1602    1.8820 C   0  0  0  0  0  0  0  0  0  0  0  0
    2.5893   -6.2570    1.6807 C   0  0  0  0  0  0  0  0  0  0  0  0
    1.4847   -5.9345    1.2304 O   0  0  0  0  0  0  0  0  0  0  0  0
    2.9104   -7.5261    2.0480 N   0  0  0  0  0  0  0  0  0  0  0  0
    4.2544   -7.9507    2.4718 C   0  0  0  0  0  0  0  0  0  0  0  0
    4.2808   -9.4781    2.3736 C   0  0  1  0  0  0  0  0  0  0  0  0
    5.0632  -10.0180    3.2972 F   0  0  0  0  0  0  0  0  0  0  0  0
    2.8296   -9.8854    2.5544 C   0  0  0  0  0  0  0  0  0  0  0  0
    2.0366   -8.7125    1.9650 C   0  0  1  0  0  0  0  0  0  0  0  0
    0.6772   -8.5567    2.6766 C   0  0  0  0  0  0  0  0  0  0  0  0
    3.2235   -3.0193    0.6023 C   0  0  0  0  0  0  0  0  0  0  0  0
    3.8844   -3.3619   -0.6828 C   0  0  0  0  0  0  0  0  0  0  0  0
    5.1429   -2.5798   -1.0917 C   0  0  0  0  0  0  0  0  0  0  0  0
    4.6392   -2.6198   -2.5328 C   0  0  0  0  0  0  0  0  0  0  0  0
    3.2389   -2.9268   -2.0059 C   0  0  0  0  0  0  0  0  0  0  0  0
    2.6192   -1.8547    0.8763 N   0  0  0  0  0  0  0  0  0  0  0  0
    0.5271   -0.7414    3.8844 C   0  0  0  0  0  0  0  0  0  0  0  0
   -1.4542    0.9801    5.7133 H   0  0  0  0  0  0  0  0  0  0  0  0
    1.3519   -3.1976    5.3531 H   0  0  0  0  0  0  0  0  0  0  0  0
   -0.1076   -3.7091    4.4106 H   0  0  0  0  0  0  0  0  0  0  0  0
   -0.1685   -3.3664    6.1591 H   0  0  0  0  0  0  0  0  0  0  0  0
    1.1047    2.4862    1.9660 H   0  0  0  0  0  0  0  0  0  0  0  0
    2.3249   -3.5751    3.6523 H   0  0  0  0  0  0  0  0  0  0  0  0
    4.5247   -5.3200    1.2529 H   0  0  0  0  0  0  0  0  0  0  0  0
    3.9968   -5.1988    2.9188 H   0  0  0  0  0  0  0  0  0  0  0  0
    5.0638   -7.5466    1.8632 H   0  0  0  0  0  0  0  0  0  0  0  0
    4.4164   -7.6443    3.5094 H   0  0  0  0  0  0  0  0  0  0  0  0
    4.6535   -9.8148    1.4006 H   0  0  0  0  0  0  0  0  0  0  0  0
    2.6219  -10.8464    2.0795 H   0  0  0  0  0  0  0  0  0  0  0  0
    2.6182  -10.0038    3.6199 H   0  0  0  0  0  0  0  0  0  0  0  0
    1.8953   -8.9220    0.9048 H   0  0  0  0  0  0  0  0  0  0  0  0
    0.1149   -9.4901    2.6512 H   0  0  0  0  0  0  0  0  0  0  0  0
    0.0528   -7.8060    2.2040 H   0  0  0  0  0  0  0  0  0  0  0  0
    0.8110   -8.2683    3.7198 H   0  0  0  0  0  0  0  0  0  0  0  0
    4.0658   -4.4425   -0.6987 H   0  0  0  0  0  0  0  0  0  0  0  0
    5.1490   -1.5737   -0.6594 H   0  0  0  0  0  0  0  0  0  0  0  0
    6.0817   -3.1061   -0.9089 H   0  0  0  0  0  0  0  0  0  0  0  0
    4.7055   -1.6689   -3.0498 H   0  0  0  0  0  0  0  0  0  0  0  0
    5.0605   -3.4468   -3.1029 H   0  0  0  0  0  0  0  0  0  0  0  0
    2.7016   -3.7315   -2.5115 H   0  0  0  0  0  0  0  0  0  0  0  0
    2.6158   -2.0362   -1.8833 H   0  0  0  0  0  0  0  0  0  0  0  0
    2.4454   -1.1193    0.1993 H   0  0  0  0  0  0  0  0  0  0  0  0
  1  2  1  0
  1 31  1  0
  1 32  1  0
  1 33  1  0
  2 29  1  0
  2  3  2  0
  3  4  1  0
  4 30  1  0
  4  5  1  0
  5 29  2  0
  5  6  1  0
  6  7  2  0
  7  8  1  0
  7 34  1  0
  8  9  2  0
  9 10  1  0
  9 29  1  0
 10 28  1  0
 10 11  2  0
 11 12  1  0
 11 35  1  0
 12 13  1  0
 12 23  1  0
 13 14  1  0
 13 36  1  0
 13 37  1  0
 14 15  2  0
 14 16  1  0
 16 21  1  0
 16 17  1  0
 17 18  1  0
 17 38  1  0
 17 39  1  0
 18 19  1  0
 18 20  1  0
 18 40  1  6
 20 21  1  0
 20 41  1  0
 20 42  1  0
 21 22  1  0
 21 43  1  6
 22 44  1  0
 22 45  1  0
 22 46  1  0
 23 24  1  0
 23 28  2  0
 24 27  1  0
 24 25  1  0
 24 47  1  0
 25 26  1  0
 25 48  1  0
 25 49  1  0
 26 27  1  0
 26 50  1  0
 26 51  1  0
 27 52  1  0
 27 53  1  0
 28 54  1  0
M  CHG  1  28   1
M  END
>  <i_m_ct_stereo_status>  (453) 
1

>  <s_m_source_file>  (453) 
/var/tmp/pbs.5076255.sched01/tmp54n2b71h/144k2pf1zoq.sdf

>  <i_m_source_file_index>  (453) 
45

>  <i_lp_mmshare_version>  (453) 
48012

>  <i_f3d_flags>  (453) 
0

>  <s_epik_input>  (453) 
W25IXTFuYyhbQ0gzXSljKGMxMiljKG5bY0hdbjIpLWMzW2NIXW4oYyhuMylbQ0hdNFtDSDJdW0NIMl1bQ0gyXTQpW0NIMl1DKD1PKU41W0NIMl1bQ0BASF0oRilbQ0gyXVtDQEhdNVtDSDNd

>  <s_epik_cmdline>  (453) 
J2VwaWtfcHl0aG9uJywgJy1waHQnLCAnMi4wJywgJy1waCcsICc3LjAnLCAnLXRuJywgJzgnLCAnLW1hJywgJzIwMCcsICctaW1hZScsICc8aW5maWxlLm1hZT4nLCAnLW9tYWUnLCAnPG91dGZpbGUubWFlPic=

>  <r_lp_tautomer_probability>  (453) 
1

>  <r_epik_Ionization_Penalty>  (453) 
2.41307

>  <r_epik_Ionization_Penalty_Charging>  (453) 
0

>  <r_epik_Ionization_Penalty_Neutral>  (453) 
2.41307

>  <r_epik_State_Penalty>  (453) 
2.57178

>  <r_epik_Charging_Adjusted_Penalty>  (453) 
2.57178

>  <i_epik_Tot_Q>  (453) 
1

>  <i_epik_Tot_abs_Q>  (453) 
1

>  <s_lp_Force_Field>  (453) 
OPLS3e

>  <r_lp_Energy>  (453) 
38.45

>  <b_lp_Chiralities_Consistent>  (453) 
1

>  <s_lp_Variant>  (453) 
118:0-2

>  <s_i_glide_gridfile>  (453) 
pfpi4k_grid

>  <i_i_glide_lignum>  (453) 
45

>  <i_i_glide_rotatable_bonds>  (453) 
5

>  <r_i_docking_score>  (453) 
-3.21257

>  <r_i_glide_ligand_efficiency>  (453) 
-0.110778

>  <r_i_glide_ligand_efficiency_sa>  (453) 
-0.340346

>  <r_i_glide_ligand_efficiency_ln>  (453) 
-0.735598

>  <r_i_glide_gscore>  (453) 
-3.21257

>  <r_i_glide_lipo>  (453) 
-0.166687

>  <r_i_glide_hbond>  (453) 
-0.216498

>  <r_i_glide_metal>  (453) 
-0

>  <r_i_glide_rewards>  (453) 
-0.695082

>  <r_i_glide_evdw>  (453) 
-28.5526

>  <r_i_glide_ecoul>  (453) 
-7.57853

>  <r_i_glide_erotb>  (453) 
0.616775

>  <r_i_glide_esite>  (453) 
-0.186672

>  <r_i_glide_emodel>  (453) 
-44.22

>  <r_i_glide_energy>  (453) 
-36.1311

>  <r_i_glide_einternal>  (453) 
0.743685

>  <r_i_glide_intrahb_reward>  (453) 
-0

>  <i_i_glide_confnum>  (453) 
4

>  <i_i_glide_posenum>  (453) 
8

>  <r_i_glide_eff_state_penalty>  (453) 
0

>  <ligand_id>  (453) 
118

>  <original_smiles>  (453) 
Cc1n[nH]c2ncnc(-c3cn(CC(=O)N4CC(F)CC4C)c(C4CCC4)n3)c12

>  <smiles>  (453) 
[H]c1nc(-c2c([H])n(C([H])([H])C(=O)N3C([H])([H])C([H])(F)C([H])([H])C3([H])C([H])([H])[H])c(C3([H])C([H])([H])C([H])([H])C3([H])[H])[n+]2[H])c2c(C([H])([H])[H])nn([H])c2n1

$$$$
