0:0:0
     RDKit          3D

 68 74  0  0  1  0  0  0  0  0999 V2000
    5.5616   -4.9187    3.9305 C   0  0  0  0  0  0  0  0  0  0  0  0
    5.2863   -3.5189    3.8643 O   0  0  0  0  0  0  0  0  0  0  0  0
    4.0074   -3.1802    3.3193 C   0  0  2  0  0  0  0  0  0  0  0  0
    3.9128   -3.4291    1.8005 C   0  0  1  0  0  0  0  0  0  0  0  0
    2.5570   -2.9928    1.2218 C   0  0  1  0  0  0  0  0  0  0  0  0
    1.8350   -1.7391    1.8168 C   0  0  0  0  0  0  0  0  0  0  0  0
    2.0854   -1.4980    3.3419 C   0  0  2  0  0  0  0  0  0  0  0  0
    1.3152   -2.4247    4.0874 O   0  0  0  0  0  0  0  0  0  0  0  0
    1.6595   -0.0982    3.8781 C   0  0  2  0  0  0  0  0  0  0  0  0
    0.3181    0.1800    3.4806 O   0  0  0  0  0  0  0  0  0  0  0  0
   -0.1331    1.4501    3.7606 C   0  0  0  0  0  0  0  0  0  0  0  0
    0.6463    2.5077    4.0773 C   0  0  0  0  0  0  0  0  0  0  0  0
    0.0357    3.8685    4.4224 C   0  0  0  0  0  0  0  0  0  0  0  0
    0.6317    5.0061    3.5781 C   0  0  1  0  0  0  0  0  0  0  0  0
    0.0911    6.2447    3.9813 O   0  0  0  0  0  0  0  0  0  0  0  0
    2.1582    5.0010    3.6284 C   0  0  0  0  0  0  0  0  0  0  0  0
    2.7339    3.6181    3.2482 C   0  0  0  0  0  0  0  0  0  0  0  0
    2.1753    2.4228    4.0777 C   0  0  1  0  0  0  0  0  0  0  0  0
    2.6759    2.5130    5.5403 C   0  0  0  0  0  0  0  0  0  0  0  0
    2.5906    1.0651    3.4198 C   0  0  1  0  0  0  0  0  0  0  0  0
    4.0312    0.7113    3.5651 N   0  0  0  0  0  0  0  0  0  0  0  0
    4.3412   -0.5997    2.9457 C   0  0  1  0  0  0  0  0  0  0  0  0
    5.7790   -0.9059    2.5957 C   0  0  2  0  0  0  0  0  0  0  0  0
    6.0852   -0.6514    1.2190 O   0  0  0  0  0  0  0  0  0  0  0  0
    6.1479   -2.0207    1.6103 C   0  0  2  0  0  0  0  0  0  0  0  0
    5.1571   -3.0042    0.9921 C   0  0  2  0  0  0  0  0  0  0  0  0
    4.9730   -2.9063   -0.4126 O   0  0  0  0  0  0  0  0  0  0  0  0
    3.7150   -2.5280   -0.9012 C   0  0  0  0  0  0  0  0  0  0  0  0
    3.6534   -1.0053   -1.0071 C   0  0  0  0  0  0  0  0  0  0  0  0
    3.6191   -3.1193   -2.3064 C   0  0  0  0  0  0  0  0  0  0  0  0
    2.6116   -3.0532   -0.2003 O   0  0  0  0  0  0  0  0  0  0  0  0
    3.5796   -1.7314    3.6789 C   0  0  2  0  0  0  0  0  0  0  0  0
    6.5969   -5.0770    4.2333 H   0  0  0  0  0  0  0  0  0  0  0  0
    5.4353   -5.4249    2.9727 H   0  0  0  0  0  0  0  0  0  0  0  0
    4.9189   -5.4099    4.6624 H   0  0  0  0  0  0  0  0  0  0  0  0
    3.2979   -3.8533    3.8008 H   0  0  0  0  0  0  0  0  0  0  0  0
    3.8856   -4.5107    1.6565 H   0  0  0  0  0  0  0  0  0  0  0  0
    1.8826   -3.8081    1.5002 H   0  0  0  0  0  0  0  0  0  0  0  0
    2.0827   -0.8528    1.2384 H   0  0  0  0  0  0  0  0  0  0  0  0
    0.7658   -1.8282    1.6525 H   0  0  0  0  0  0  0  0  0  0  0  0
    0.4210   -2.3599    3.7995 H   0  0  0  0  0  0  0  0  0  0  0  0
    1.6983   -0.1515    4.9689 H   0  0  0  0  0  0  0  0  0  0  0  0
   -1.2109    1.4952    3.7412 H   0  0  0  0  0  0  0  0  0  0  0  0
   -1.0458    3.8370    4.2806 H   0  0  0  0  0  0  0  0  0  0  0  0
    0.2070    4.0805    5.4789 H   0  0  0  0  0  0  0  0  0  0  0  0
    0.3466    4.9164    2.5443 H   0  0  0  0  0  0  0  0  0  0  0  0
    0.2178    6.8666    3.2654 H   0  0  0  0  0  0  0  0  0  0  0  0
    2.5363    5.7438    2.9248 H   0  0  0  0  0  0  0  0  0  0  0  0
    2.4975    5.3044    4.6182 H   0  0  0  0  0  0  0  0  0  0  0  0
    2.5185    3.4511    2.1896 H   0  0  0  0  0  0  0  0  0  0  0  0
    3.8167    3.6628    3.3410 H   0  0  0  0  0  0  0  0  0  0  0  0
    3.7626    2.4773    5.6042 H   0  0  0  0  0  0  0  0  0  0  0  0
    2.2702    1.7108    6.1594 H   0  0  0  0  0  0  0  0  0  0  0  0
    2.3674    3.4470    6.0092 H   0  0  0  0  0  0  0  0  0  0  0  0
    2.4199    1.1713    2.3479 H   0  0  0  0  0  0  0  0  0  0  0  0
    4.5559    1.4458    3.0889 H   0  0  0  0  0  0  0  0  0  0  0  0
    3.9381   -0.4855    1.9590 H   0  0  0  0  0  0  0  0  0  0  0  0
    6.5406   -0.6013    3.3144 H   0  0  0  0  0  0  0  0  0  0  0  0
    7.1558   -2.4093    1.6650 H   0  0  0  0  0  0  0  0  0  0  0  0
    5.7555   -3.9171    1.0133 H   0  0  0  0  0  0  0  0  0  0  0  0
    3.9362   -0.5240   -0.0832 H   0  0  0  0  0  0  0  0  0  0  0  0
    2.6678   -0.6859   -1.2992 H   0  0  0  0  0  0  0  0  0  0  0  0
    4.3528   -0.6523   -1.7668 H   0  0  0  0  0  0  0  0  0  0  0  0
    3.6952   -4.1963   -2.2280 H   0  0  0  0  0  0  0  0  0  0  0  0
    4.4366   -2.7588   -2.9383 H   0  0  0  0  0  0  0  0  0  0  0  0
    2.6652   -2.8462   -2.7568 H   0  0  0  0  0  0  0  0  0  0  0  0
    3.7396   -1.6271    4.7540 H   0  0  0  0  0  0  0  0  0  0  0  0
    4.2993    0.6997    4.5412 H   0  0  0  0  0  0  0  0  0  0  0  0
  1  2  1  0
  1 33  1  0
  1 34  1  0
  1 35  1  0
  2  3  1  0
  3 32  1  0
  3  4  1  0
  3 36  1  1
  4 26  1  0
  4  5  1  0
  4 37  1  1
  5 31  1  0
  5  6  1  0
  5 38  1  1
  6  7  1  0
  6 39  1  0
  6 40  1  0
  7 32  1  0
  7  8  1  1
  7  9  1  0
  8 41  1  0
  9 20  1  0
  9 10  1  0
  9 42  1  1
 10 11  1  0
 11 12  2  0
 11 43  1  0
 12 18  1  0
 12 13  1  0
 13 14  1  0
 13 44  1  0
 13 45  1  0
 14 15  1  0
 14 16  1  0
 14 46  1  6
 15 47  1  0
 16 17  1  0
 16 48  1  0
 16 49  1  0
 17 18  1  0
 17 50  1  0
 17 51  1  0
 18 19  1  1
 18 20  1  0
 19 52  1  0
 19 53  1  0
 19 54  1  0
 20 21  1  0
 20 55  1  6
 21 22  1  0
 21 56  1  0
 21 68  1  0
 22 23  1  0
 22 32  1  0
 22 57  1  6
 23 25  1  0
 23 24  1  0
 23 58  1  1
 24 25  1  0
 25 26  1  0
 25 59  1  1
 26 27  1  0
 26 60  1  6
 27 28  1  0
 28 29  1  0
 28 30  1  0
 28 31  1  0
 29 61  1  0
 29 62  1  0
 29 63  1  0
 30 64  1  0
 30 65  1  0
 30 66  1  0
 32 67  1  1
M  CHG  1  21   1
M  END
>  <i_m_ct_stereo_status>  (1) 
1

>  <s_m_source_file>  (1) 
/var/tmp/pbs.5076255.sched01/tmp6yc3ji7b/0haed4tc5.sdf

>  <i_m_source_file_index>  (1) 
1

>  <i_lp_mmshare_version>  (1) 
48012

>  <i_f3d_flags>  (1) 
0

>  <s_epik_input>  (1) 
TzFDKFtDSDNdKShbQ0gzXSlPW0NASF0oW0NIMl0yKVtDQEhdKFtDQEhdKFtDQEhdMzQpT1tDSDNdKVtDQEBIXTFbQ0BASF0oTzUpW0NAQEhdNVtDQEBIXTRbTkhdW0NAQEhdKFtDQEBIXTZbQ0BAXTIzW09IXSlbQ0BdNyhbQ0gzXSlDKD1bQ0hdTzYpW0NIMl1bQ0BASF0oW09IXSlbQ0gyXVtDSDJdNw==

>  <s_epik_cmdline>  (1) 
J2VwaWtfcHl0aG9uJywgJy1waHQnLCAnMi4wJywgJy1waCcsICc3LjAnLCAnLXRuJywgJzgnLCAnLW1hJywgJzIwMCcsICctaW1hZScsICc8aW5maWxlLm1hZT4nLCAnLW9tYWUnLCAnPG91dGZpbGUubWFlPic=

>  <r_epik_Ionization_Penalty>  (1) 
0.0317607

>  <r_epik_Ionization_Penalty_Charging>  (1) 
0.0317547

>  <r_epik_Ionization_Penalty_Neutral>  (1) 
5.99215e-06

>  <r_epik_State_Penalty>  (1) 
0.0262646

>  <r_epik_Charging_Adjusted_Penalty>  (1) 
0.0580192

>  <i_epik_Tot_Q>  (1) 
1

>  <i_epik_Tot_abs_Q>  (1) 
1

>  <s_lp_Force_Field>  (1) 
OPLS3e

>  <r_lp_Energy>  (1) 
63.2397

>  <b_lp_Chiralities_Consistent>  (1) 
1

>  <s_lp_Variant>  (1) 
0:0-1

>  <s_i_glide_gridfile>  (1) 
pfpi4k_grid

>  <i_i_glide_lignum>  (1) 
1

>  <i_i_glide_rotatable_bonds>  (1) 
3

>  <r_i_docking_score>  (1) 
-3.02447

>  <r_i_glide_ligand_efficiency>  (1) 
-0.0945145

>  <r_i_glide_ligand_efficiency_sa>  (1) 
-0.300065

>  <r_i_glide_ligand_efficiency_ln>  (1) 
-0.67726

>  <r_i_glide_gscore>  (1) 
-3.02447

>  <r_i_glide_lipo>  (1) 
-0.314026

>  <r_i_glide_hbond>  (1) 
-0.16

>  <r_i_glide_metal>  (1) 
-0

>  <r_i_glide_rewards>  (1) 
-0.337192

>  <r_i_glide_evdw>  (1) 
-14.6244

>  <r_i_glide_ecoul>  (1) 
-9.59426

>  <r_i_glide_erotb>  (1) 
0

>  <r_i_glide_esite>  (1) 
-0.0428881

>  <r_i_glide_emodel>  (1) 
-29.0503

>  <r_i_glide_energy>  (1) 
-24.2187

>  <r_i_glide_einternal>  (1) 
1.05674

>  <r_i_glide_intrahb_reward>  (1) 
-0

>  <i_i_glide_confnum>  (1) 
1

>  <i_i_glide_posenum>  (1) 
16

>  <r_i_glide_eff_state_penalty>  (1) 
0

>  <ligand_id>  (1) 
0

>  <original_smiles>  (1) 
COC1C2C3CC4(O)C5OC=C6CC(O)CCC6(C)C5NC(C5OC5C2OC(C)(C)O3)C14

>  <smiles>  (1) 
[H]OC1([H])C([H])([H])C2=C([H])OC3([H])C4(O[H])C([H])([H])C5([H])OC(C([H])([H])[H])(C([H])([H])[H])OC6([H])C7([H])OC7([H])C([H])(C4([H])C([H])(OC([H])([H])[H])C56[H])[N+]([H])([H])C3([H])C2(C([H])([H])[H])C([H])([H])C1([H])[H]

$$$$
0:0:1
     RDKit          3D

 68 74  0  0  1  0  0  0  0  0999 V2000
    3.8349  -10.4787    5.8630 C   0  0  0  0  0  0  0  0  0  0  0  0
    4.1050   -9.6113    4.7566 O   0  0  0  0  0  0  0  0  0  0  0  0
    3.4004   -8.3641    4.7793 C   0  0  2  0  0  0  0  0  0  0  0  0
    1.8833   -8.5169    4.5591 C   0  0  1  0  0  0  0  0  0  0  0  0
    1.1489   -7.1594    4.5286 C   0  0  1  0  0  0  0  0  0  0  0  0
    1.8578   -5.9215    3.9008 C   0  0  0  0  0  0  0  0  0  0  0  0
    3.4191   -5.9117    4.0553 C   0  0  2  0  0  0  0  0  0  0  0  0
    3.7455   -5.5587    5.3859 O   0  0  0  0  0  0  0  0  0  0  0  0
    4.1766   -4.8851    3.1573 C   0  0  2  0  0  0  0  0  0  0  0  0
    3.5768   -3.5977    3.2901 O   0  0  0  0  0  0  0  0  0  0  0  0
    4.0562   -2.6236    2.4508 C   0  0  0  0  0  0  0  0  0  0  0  0
    4.7788   -2.8430    1.3347 C   0  0  0  0  0  0  0  0  0  0  0  0
    5.2830   -1.6783    0.4876 C   0  0  0  0  0  0  0  0  0  0  0  0
    4.8273   -1.8125   -0.9702 C   0  0  1  0  0  0  0  0  0  0  0  0
    5.4117   -0.7874   -1.7397 O   0  0  0  0  0  0  0  0  0  0  0  0
    5.2412   -3.1738   -1.5456 C   0  0  0  0  0  0  0  0  0  0  0  0
    4.6975   -4.3313   -0.6829 C   0  0  0  0  0  0  0  0  0  0  0  0
    5.0838   -4.2579    0.8225 C   0  0  1  0  0  0  0  0  0  0  0  0
    6.5971   -4.5243    1.0044 C   0  0  0  0  0  0  0  0  0  0  0  0
    4.2180   -5.2668    1.6482 C   0  0  1  0  0  0  0  0  0  0  0  0
    4.5748   -6.7082    1.4381 N   0  0  0  0  0  0  0  0  0  0  0  0
    3.7504   -7.6059    2.2939 C   0  0  1  0  0  0  0  0  0  0  0  0
    3.6865   -9.0602    1.9151 C   0  0  2  0  0  0  0  0  0  0  0  0
    2.5439   -9.3559    1.1177 O   0  0  0  0  0  0  0  0  0  0  0  0
    2.5480   -9.9659    2.4069 C   0  0  2  0  0  0  0  0  0  0  0  0
    1.4957   -9.5270    3.4528 C   0  0  2  0  0  0  0  0  0  0  0  0
    0.1453   -9.4289    3.0170 O   0  0  0  0  0  0  0  0  0  0  0  0
   -0.4955   -8.1857    3.0183 C   0  0  0  0  0  0  0  0  0  0  0  0
   -0.2418   -7.4746    1.6822 C   0  0  0  0  0  0  0  0  0  0  0  0
   -1.9934   -8.4924    3.1582 C   0  0  0  0  0  0  0  0  0  0  0  0
   -0.2007   -7.3419    4.1058 O   0  0  0  0  0  0  0  0  0  0  0  0
    4.0024   -7.3248    3.7928 C   0  0  2  0  0  0  0  0  0  0  0  0
    4.3192  -11.4401    5.6979 H   0  0  0  0  0  0  0  0  0  0  0  0
    2.7711  -10.6836    5.9964 H   0  0  0  0  0  0  0  0  0  0  0  0
    4.2195  -10.0593    6.7955 H   0  0  0  0  0  0  0  0  0  0  0  0
    3.5469   -7.9789    5.7876 H   0  0  0  0  0  0  0  0  0  0  0  0
    1.4728   -8.9674    5.4659 H   0  0  0  0  0  0  0  0  0  0  0  0
    1.0571   -6.8782    5.5793 H   0  0  0  0  0  0  0  0  0  0  0  0
    1.5659   -5.8148    2.8600 H   0  0  0  0  0  0  0  0  0  0  0  0
    1.4468   -5.0207    4.3577 H   0  0  0  0  0  0  0  0  0  0  0  0
    3.3657   -6.1964    5.9712 H   0  0  0  0  0  0  0  0  0  0  0  0
    5.2021   -4.8291    3.5307 H   0  0  0  0  0  0  0  0  0  0  0  0
    3.8232   -1.6342    2.8224 H   0  0  0  0  0  0  0  0  0  0  0  0
    4.9299   -0.7261    0.8932 H   0  0  0  0  0  0  0  0  0  0  0  0
    6.3721   -1.6434    0.5347 H   0  0  0  0  0  0  0  0  0  0  0  0
    3.7419   -1.7050   -1.0326 H   0  0  0  0  0  0  0  0  0  0  0  0
    5.0138    0.0412   -1.4969 H   0  0  0  0  0  0  0  0  0  0  0  0
    4.8556   -3.2690   -2.5621 H   0  0  0  0  0  0  0  0  0  0  0  0
    6.3269   -3.2361   -1.6297 H   0  0  0  0  0  0  0  0  0  0  0  0
    3.6105   -4.3100   -0.7756 H   0  0  0  0  0  0  0  0  0  0  0  0
    5.0152   -5.2806   -1.1116 H   0  0  0  0  0  0  0  0  0  0  0  0
    6.8798   -5.5115    0.6403 H   0  0  0  0  0  0  0  0  0  0  0  0
    6.8999   -4.4462    2.0491 H   0  0  0  0  0  0  0  0  0  0  0  0
    7.1987   -3.8033    0.4521 H   0  0  0  0  0  0  0  0  0  0  0  0
    3.1927   -5.1646    1.2969 H   0  0  0  0  0  0  0  0  0  0  0  0
    4.4089   -6.9420    0.4665 H   0  0  0  0  0  0  0  0  0  0  0  0
    2.7513   -7.2956    2.0502 H   0  0  0  0  0  0  0  0  0  0  0  0
    4.6186   -9.5519    1.6268 H   0  0  0  0  0  0  0  0  0  0  0  0
    2.7458  -11.0332    2.3803 H   0  0  0  0  0  0  0  0  0  0  0  0
    1.4111  -10.4519    4.0278 H   0  0  0  0  0  0  0  0  0  0  0  0
    0.8089   -7.4767    1.4319 H   0  0  0  0  0  0  0  0  0  0  0  0
   -0.6029   -6.4513    1.7271 H   0  0  0  0  0  0  0  0  0  0  0  0
   -0.7649   -7.9971    0.8816 H   0  0  0  0  0  0  0  0  0  0  0  0
   -2.1768   -8.9960    4.1080 H   0  0  0  0  0  0  0  0  0  0  0  0
   -2.3232   -9.1490    2.3502 H   0  0  0  0  0  0  0  0  0  0  0  0
   -2.5691   -7.5668    3.1332 H   0  0  0  0  0  0  0  0  0  0  0  0
    5.0809   -7.3211    3.9691 H   0  0  0  0  0  0  0  0  0  0  0  0
    5.5477   -6.8646    1.6511 H   0  0  0  0  0  0  0  0  0  0  0  0
  1  2  1  0
  1 33  1  0
  1 34  1  0
  1 35  1  0
  2  3  1  0
  3 32  1  0
  3  4  1  0
  3 36  1  1
  4 26  1  0
  4  5  1  0
  4 37  1  1
  5 31  1  0
  5  6  1  0
  5 38  1  1
  6  7  1  0
  6 39  1  0
  6 40  1  0
  7 32  1  0
  7  8  1  1
  7  9  1  0
  8 41  1  0
  9 20  1  0
  9 10  1  0
  9 42  1  1
 10 11  1  0
 11 12  2  0
 11 43  1  0
 12 18  1  0
 12 13  1  0
 13 14  1  0
 13 44  1  0
 13 45  1  0
 14 15  1  0
 14 16  1  0
 14 46  1  1
 15 47  1  0
 16 17  1  0
 16 48  1  0
 16 49  1  0
 17 18  1  0
 17 50  1  0
 17 51  1  0
 18 19  1  6
 18 20  1  0
 19 52  1  0
 19 53  1  0
 19 54  1  0
 20 21  1  0
 20 55  1  6
 21 22  1  0
 21 56  1  0
 21 68  1  0
 22 23  1  0
 22 32  1  0
 22 57  1  6
 23 25  1  0
 23 24  1  0
 23 58  1  6
 24 25  1  0
 25 26  1  0
 25 59  1  6
 26 27  1  0
 26 60  1  1
 27 28  1  0
 28 29  1  0
 28 30  1  0
 28 31  1  0
 29 61  1  0
 29 62  1  0
 29 63  1  0
 30 64  1  0
 30 65  1  0
 30 66  1  0
 32 67  1  6
M  CHG  1  21   1
M  END
>  <i_m_ct_stereo_status>  (2) 
1

>  <s_m_source_file>  (2) 
/var/tmp/pbs.5076255.sched01/tmp6yc3ji7b/0haed4tc5.sdf

>  <i_m_source_file_index>  (2) 
1

>  <i_lp_mmshare_version>  (2) 
48012

>  <i_f3d_flags>  (2) 
0

>  <s_epik_input>  (2) 
TzFDKFtDSDNdKShbQ0gzXSlPW0NASF0oW0NIMl0yKVtDQEhdKFtDQEhdKFtDQEhdMzQpT1tDSDNdKVtDQEBIXTFbQ0BASF0oTzUpW0NAQEhdNVtDQEBIXTRbTkhdW0NAQEhdKFtDQEBIXTZbQ0BAXTIzW09IXSlbQ0BdNyhbQ0gzXSlDKD1bQ0hdTzYpW0NIMl1bQ0BASF0oW09IXSlbQ0gyXVtDSDJdNw==

>  <s_epik_cmdline>  (2) 
J2VwaWtfcHl0aG9uJywgJy1waHQnLCAnMi4wJywgJy1waCcsICc3LjAnLCAnLXRuJywgJzgnLCAnLW1hJywgJzIwMCcsICctaW1hZScsICc8aW5maWxlLm1hZT4nLCAnLW9tYWUnLCAnPG91dGZpbGUubWFlPic=

>  <r_epik_Ionization_Penalty>  (2) 
0.0317607

>  <r_epik_Ionization_Penalty_Charging>  (2) 
0.0317547

>  <r_epik_Ionization_Penalty_Neutral>  (2) 
5.99215e-06

>  <r_epik_State_Penalty>  (2) 
0.0262646

>  <r_epik_Charging_Adjusted_Penalty>  (2) 
0.0580192

>  <i_epik_Tot_Q>  (2) 
1

>  <i_epik_Tot_abs_Q>  (2) 
1

>  <s_lp_Force_Field>  (2) 
OPLS3e

>  <r_lp_Energy>  (2) 
63.2397

>  <b_lp_Chiralities_Consistent>  (2) 
1

>  <s_lp_Variant>  (2) 
0:0-1

>  <s_i_glide_gridfile>  (2) 
pfpi4k_grid

>  <i_i_glide_lignum>  (2) 
1

>  <i_i_glide_rotatable_bonds>  (2) 
3

>  <r_i_docking_score>  (2) 
-2.84719

>  <r_i_glide_ligand_efficiency>  (2) 
-0.0889747

>  <r_i_glide_ligand_efficiency_sa>  (2) 
-0.282477

>  <r_i_glide_ligand_efficiency_ln>  (2) 
-0.637563

>  <r_i_glide_gscore>  (2) 
-2.84719

>  <r_i_glide_lipo>  (2) 
-0.326431

>  <r_i_glide_hbond>  (2) 
-0.259653

>  <r_i_glide_metal>  (2) 
-0

>  <r_i_glide_rewards>  (2) 
-0.337192

>  <r_i_glide_evdw>  (2) 
-23.6525

>  <r_i_glide_ecoul>  (2) 
-4.6054

>  <r_i_glide_erotb>  (2) 
0

>  <r_i_glide_esite>  (2) 
-0.0504814

>  <r_i_glide_emodel>  (2) 
-32.8755

>  <r_i_glide_energy>  (2) 
-28.2578

>  <r_i_glide_einternal>  (2) 
1.06487

>  <r_i_glide_intrahb_reward>  (2) 
-0

>  <i_i_glide_confnum>  (2) 
2

>  <i_i_glide_posenum>  (2) 
19

>  <r_i_glide_eff_state_penalty>  (2) 
0

>  <ligand_id>  (2) 
0

>  <original_smiles>  (2) 
COC1C2C3CC4(O)C5OC=C6CC(O)CCC6(C)C5NC(C5OC5C2OC(C)(C)O3)C14

>  <smiles>  (2) 
[H]OC1([H])C([H])([H])C2=C([H])OC3([H])C4(O[H])C([H])([H])C5([H])OC(C([H])([H])[H])(C([H])([H])[H])OC6([H])C7([H])OC7([H])C([H])(C4([H])C([H])(OC([H])([H])[H])C56[H])[N+]([H])([H])C3([H])C2(C([H])([H])[H])C([H])([H])C1([H])[H]

$$$$
0:0:2
     RDKit          3D

 68 74  0  0  1  0  0  0  0  0999 V2000
    6.1273   -5.1839    3.0823 C   0  0  0  0  0  0  0  0  0  0  0  0
    5.7727   -3.7991    3.1408 O   0  0  0  0  0  0  0  0  0  0  0  0
    4.4487   -3.4954    2.7038 C   0  0  2  0  0  0  0  0  0  0  0  0
    4.2848   -3.6099    1.1799 C   0  0  1  0  0  0  0  0  0  0  0  0
    2.8712   -3.2028    0.7175 C   0  0  1  0  0  0  0  0  0  0  0  0
    2.1433   -2.0349    1.4618 C   0  0  0  0  0  0  0  0  0  0  0  0
    2.4421   -1.9508    2.9890 C   0  0  2  0  0  0  0  0  0  0  0  0
    1.7768   -3.0020    3.6687 O   0  0  0  0  0  0  0  0  0  0  0  0
    1.9421   -0.6413    3.6876 C   0  0  2  0  0  0  0  0  0  0  0  0
    0.5741   -0.4142    3.3839 O   0  0  0  0  0  0  0  0  0  0  0  0
    0.0440    0.7880    3.8081 C   0  0  0  0  0  0  0  0  0  0  0  0
    0.7724    1.8575    4.1967 C   0  0  0  0  0  0  0  0  0  0  0  0
    0.0910    3.1361    4.6988 C   0  0  0  0  0  0  0  0  0  0  0  0
    0.5440    4.3693    3.9023 C   0  0  1  0  0  0  0  0  0  0  0  0
   -0.0104    5.5629    4.4316 O   0  0  0  0  0  0  0  0  0  0  0  0
    2.0731    4.4755    3.8899 C   0  0  0  0  0  0  0  0  0  0  0  0
    2.7222    3.1817    3.3625 C   0  0  0  0  0  0  0  0  0  0  0  0
    2.2964    1.8817    4.1037 C   0  0  1  0  0  0  0  0  0  0  0  0
    2.8779    1.8694    5.5385 C   0  0  0  0  0  0  0  0  0  0  0  0
    2.7672    0.6199    3.2936 C   0  0  1  0  0  0  0  0  0  0  0  0
    4.2257    0.3632    3.3247 N   0  0  0  0  0  0  0  0  0  0  0  0
    4.5941   -0.8603    2.5802 C   0  0  1  0  0  0  0  0  0  0  0  0
    6.0215   -1.0358    2.1358 C   0  0  2  0  0  0  0  0  0  0  0  0
    6.2259   -0.6418    0.7642 O   0  0  0  0  0  0  0  0  0  0  0  0
    6.4203   -2.0388    1.0278 C   0  0  2  0  0  0  0  0  0  0  0  0
    5.4608   -3.0258    0.3590 C   0  0  2  0  0  0  0  0  0  0  0  0
    5.1868   -2.8108   -1.0203 O   0  0  0  0  0  0  0  0  0  0  0  0
    3.8856   -2.4833   -1.4010 C   0  0  0  0  0  0  0  0  0  0  0  0
    3.6996   -0.9710   -1.3668 C   0  0  0  0  0  0  0  0  0  0  0  0
    3.7312   -2.9407   -2.8622 C   0  0  0  0  0  0  0  0  0  0  0  0
    2.8588   -3.1400   -0.7040 O   0  0  0  0  0  0  0  0  0  0  0  0
    3.9600   -2.1134    3.2348 C   0  0  2  0  0  0  0  0  0  0  0  0
    7.1842   -5.3045    3.3129 H   0  0  0  0  0  0  0  0  0  0  0  0
    5.9694   -5.6170    2.0944 H   0  0  0  0  0  0  0  0  0  0  0  0
    5.5592   -5.7593    3.8159 H   0  0  0  0  0  0  0  0  0  0  0  0
    3.8152   -4.2578    3.1594 H   0  0  0  0  0  0  0  0  0  0  0  0
    4.3189   -4.6749    0.9324 H   0  0  0  0  0  0  0  0  0  0  0  0
    2.2558   -4.0703    0.9437 H   0  0  0  0  0  0  0  0  0  0  0  0
    2.3177   -1.0913    0.9497 H   0  0  0  0  0  0  0  0  0  0  0  0
    1.0779   -2.1111    1.3550 H   0  0  0  0  0  0  0  0  0  0  0  0
    2.0790   -3.8250    3.3263 H   0  0  0  0  0  0  0  0  0  0  0  0
    2.0411   -0.7943    4.7640 H   0  0  0  0  0  0  0  0  0  0  0  0
   -1.0334    0.7531    3.8490 H   0  0  0  0  0  0  0  0  0  0  0  0
   -0.9948    3.0394    4.6161 H   0  0  0  0  0  0  0  0  0  0  0  0
    0.3159    3.2711    5.7595 H   0  0  0  0  0  0  0  0  0  0  0  0
    0.1731    4.2708    2.8913 H   0  0  0  0  0  0  0  0  0  0  0  0
    0.2404    6.2761    3.8614 H   0  0  0  0  0  0  0  0  0  0  0  0
    2.3742    5.3078    3.2515 H   0  0  0  0  0  0  0  0  0  0  0  0
    2.4468    4.7083    4.8878 H   0  0  0  0  0  0  0  0  0  0  0  0
    2.4684    3.0977    2.3032 H   0  0  0  0  0  0  0  0  0  0  0  0
    3.7963    3.3034    3.4182 H   0  0  0  0  0  0  0  0  0  0  0  0
    3.9662    1.9028    5.5422 H   0  0  0  0  0  0  0  0  0  0  0  0
    2.5638    0.9864    6.0968 H   0  0  0  0  0  0  0  0  0  0  0  0
    2.5390    2.7321    6.1126 H   0  0  0  0  0  0  0  0  0  0  0  0
    2.5212    0.8150    2.2480 H   0  0  0  0  0  0  0  0  0  0  0  0
    4.6612    1.1772    2.8916 H   0  0  0  0  0  0  0  0  0  0  0  0
    4.1469   -0.6792    1.6243 H   0  0  0  0  0  0  0  0  0  0  0  0
    6.7946   -0.7195    2.8306 H   0  0  0  0  0  0  0  0  0  0  0  0
    7.4618   -2.3338    1.0000 H   0  0  0  0  0  0  0  0  0  0  0  0
    6.1151   -3.8935    0.2585 H   0  0  0  0  0  0  0  0  0  0  0  0
    3.9863   -0.5504   -0.4133 H   0  0  0  0  0  0  0  0  0  0  0  0
    2.6497   -0.7792   -1.5645 H   0  0  0  0  0  0  0  0  0  0  0  0
    4.3007   -0.4824   -2.1327 H   0  0  0  0  0  0  0  0  0  0  0  0
    3.8512   -4.0202   -2.9119 H   0  0  0  0  0  0  0  0  0  0  0  0
    4.4871   -2.4663   -3.4911 H   0  0  0  0  0  0  0  0  0  0  0  0
    2.7380   -2.6773   -3.2297 H   0  0  0  0  0  0  0  0  0  0  0  0
    4.1752   -2.0935    4.3060 H   0  0  0  0  0  0  0  0  0  0  0  0
    4.5553    0.2846    4.2785 H   0  0  0  0  0  0  0  0  0  0  0  0
  1  2  1  0
  1 33  1  0
  1 34  1  0
  1 35  1  0
  2  3  1  0
  3 32  1  0
  3  4  1  0
  3 36  1  1
  4 26  1  0
  4  5  1  0
  4 37  1  1
  5 31  1  0
  5  6  1  0
  5 38  1  6
  6  7  1  0
  6 39  1  0
  6 40  1  0
  7 32  1  0
  7  8  1  1
  7  9  1  0
  8 41  1  0
  9 20  1  0
  9 10  1  0
  9 42  1  1
 10 11  1  0
 11 12  2  0
 11 43  1  0
 12 18  1  0
 12 13  1  0
 13 14  1  0
 13 44  1  0
 13 45  1  0
 14 15  1  0
 14 16  1  0
 14 46  1  6
 15 47  1  0
 16 17  1  0
 16 48  1  0
 16 49  1  0
 17 18  1  0
 17 50  1  0
 17 51  1  0
 18 19  1  1
 18 20  1  0
 19 52  1  0
 19 53  1  0
 19 54  1  0
 20 21  1  0
 20 55  1  6
 21 22  1  0
 21 56  1  0
 21 68  1  0
 22 23  1  0
 22 32  1  0
 22 57  1  6
 23 25  1  0
 23 24  1  0
 23 58  1  1
 24 25  1  0
 25 26  1  0
 25 59  1  1
 26 27  1  0
 26 60  1  6
 27 28  1  0
 28 29  1  0
 28 30  1  0
 28 31  1  0
 29 61  1  0
 29 62  1  0
 29 63  1  0
 30 64  1  0
 30 65  1  0
 30 66  1  0
 32 67  1  1
M  CHG  1  21   1
M  END
>  <i_m_ct_stereo_status>  (3) 
1

>  <s_m_source_file>  (3) 
/var/tmp/pbs.5076255.sched01/tmp6yc3ji7b/0haed4tc5.sdf

>  <i_m_source_file_index>  (3) 
1

>  <i_lp_mmshare_version>  (3) 
48012

>  <i_f3d_flags>  (3) 
0

>  <s_epik_input>  (3) 
TzFDKFtDSDNdKShbQ0gzXSlPW0NASF0oW0NIMl0yKVtDQEhdKFtDQEhdKFtDQEhdMzQpT1tDSDNdKVtDQEBIXTFbQ0BASF0oTzUpW0NAQEhdNVtDQEBIXTRbTkhdW0NAQEhdKFtDQEBIXTZbQ0BAXTIzW09IXSlbQ0BdNyhbQ0gzXSlDKD1bQ0hdTzYpW0NIMl1bQ0BASF0oW09IXSlbQ0gyXVtDSDJdNw==

>  <s_epik_cmdline>  (3) 
J2VwaWtfcHl0aG9uJywgJy1waHQnLCAnMi4wJywgJy1waCcsICc3LjAnLCAnLXRuJywgJzgnLCAnLW1hJywgJzIwMCcsICctaW1hZScsICc8aW5maWxlLm1hZT4nLCAnLW9tYWUnLCAnPG91dGZpbGUubWFlPic=

>  <r_epik_Ionization_Penalty>  (3) 
0.0317607

>  <r_epik_Ionization_Penalty_Charging>  (3) 
0.0317547

>  <r_epik_Ionization_Penalty_Neutral>  (3) 
5.99215e-06

>  <r_epik_State_Penalty>  (3) 
0.0262646

>  <r_epik_Charging_Adjusted_Penalty>  (3) 
0.0580192

>  <i_epik_Tot_Q>  (3) 
1

>  <i_epik_Tot_abs_Q>  (3) 
1

>  <s_lp_Force_Field>  (3) 
OPLS3e

>  <r_lp_Energy>  (3) 
63.2397

>  <b_lp_Chiralities_Consistent>  (3) 
1

>  <s_lp_Variant>  (3) 
0:0-1

>  <s_i_glide_gridfile>  (3) 
pfpi4k_grid

>  <i_i_glide_lignum>  (3) 
1

>  <i_i_glide_rotatable_bonds>  (3) 
3

>  <r_i_docking_score>  (3) 
-2.33746

>  <r_i_glide_ligand_efficiency>  (3) 
-0.0730458

>  <r_i_glide_ligand_efficiency_sa>  (3) 
-0.231906

>  <r_i_glide_ligand_efficiency_ln>  (3) 
-0.523422

>  <r_i_glide_gscore>  (3) 
-2.33746

>  <r_i_glide_lipo>  (3) 
-0.356191

>  <r_i_glide_hbond>  (3) 
0

>  <r_i_glide_metal>  (3) 
-0

>  <r_i_glide_rewards>  (3) 
-0.337192

>  <r_i_glide_evdw>  (3) 
-18.7771

>  <r_i_glide_ecoul>  (3) 
-4.473

>  <r_i_glide_erotb>  (3) 
0

>  <r_i_glide_esite>  (3) 
-0.0342739

>  <r_i_glide_emodel>  (3) 
-26.8101

>  <r_i_glide_energy>  (3) 
-23.2501

>  <r_i_glide_einternal>  (3) 
0.929228

>  <r_i_glide_intrahb_reward>  (3) 
-0

>  <i_i_glide_confnum>  (3) 
1

>  <i_i_glide_posenum>  (3) 
9

>  <r_i_glide_eff_state_penalty>  (3) 
0

>  <ligand_id>  (3) 
0

>  <original_smiles>  (3) 
COC1C2C3CC4(O)C5OC=C6CC(O)CCC6(C)C5NC(C5OC5C2OC(C)(C)O3)C14

>  <smiles>  (3) 
[H]OC1([H])C([H])([H])C2=C([H])OC3([H])C4(O[H])C([H])([H])C5([H])OC(C([H])([H])[H])(C([H])([H])[H])OC6([H])C7([H])OC7([H])C([H])(C4([H])C([H])(OC([H])([H])[H])C56[H])[N+]([H])([H])C3([H])C2(C([H])([H])[H])C([H])([H])C1([H])[H]

$$$$
0:1:0
     RDKit          3D

 67 73  0  0  1  0  0  0  0  0999 V2000
    2.4774   -0.7992    7.9888 C   0  0  0  0  0  0  0  0  0  0  0  0
    1.5109   -0.0580    7.2535 O   0  0  0  0  0  0  0  0  0  0  0  0
    1.9932    0.6055    6.0835 C   0  0  2  0  0  0  0  0  0  0  0  0
    0.9275    1.5736    5.5431 C   0  0  1  0  0  0  0  0  0  0  0  0
    1.3852    2.3016    4.2583 C   0  0  1  0  0  0  0  0  0  0  0  0
    2.2752    1.5400    3.2263 C   0  0  0  0  0  0  0  0  0  0  0  0
    3.2275    0.4751    3.8620 C   0  0  2  0  0  0  0  0  0  0  0  0
    4.3154    1.1550    4.4549 O   0  0  0  0  0  0  0  0  0  0  0  0
    3.8536   -0.5552    2.8756 C   0  0  2  0  0  0  0  0  0  0  0  0
    4.4408    0.1266    1.7655 O   0  0  0  0  0  0  0  0  0  0  0  0
    4.8937   -0.6650    0.7412 C   0  0  0  0  0  0  0  0  0  0  0  0
    4.5752   -1.9658    0.5639 C   0  0  0  0  0  0  0  0  0  0  0  0
    5.1508   -2.7711   -0.5914 C   0  0  0  0  0  0  0  0  0  0  0  0
    4.0390   -3.4087   -1.4354 C   0  0  1  0  0  0  0  0  0  0  0  0
    4.6269   -4.2275   -2.4244 O   0  0  0  0  0  0  0  0  0  0  0  0
    3.1016   -4.2463   -0.5505 C   0  0  0  0  0  0  0  0  0  0  0  0
    2.5220   -3.4020    0.5878 C   0  0  0  0  0  0  0  0  0  0  0  0
    3.5697   -2.6852    1.4716 C   0  0  1  0  0  0  0  0  0  0  0  0
    4.3215   -3.7216    2.3354 C   0  0  0  0  0  0  0  0  0  0  0  0
    2.8457   -1.6113    2.3385 C   0  0  1  0  0  0  0  0  0  0  0  0
    1.9786   -2.1857    3.3927 N   0  0  0  0  0  0  0  0  0  0  0  0
    1.4005   -1.1306    4.2311 C   0  0  1  0  0  0  0  0  0  0  0  0
    0.2276   -1.5382    5.0832 C   0  0  2  0  0  0  0  0  0  0  0  0
   -1.0382   -1.2595    4.4636 O   0  0  0  0  0  0  0  0  0  0  0  0
   -0.7516   -0.5013    5.6344 C   0  0  2  0  0  0  0  0  0  0  0  0
   -0.5193    1.0152    5.5169 C   0  0  2  0  0  0  0  0  0  0  0  0
   -1.4417    1.7483    4.7158 O   0  0  0  0  0  0  0  0  0  0  0  0
   -0.9748    2.3899    3.5596 C   0  0  0  0  0  0  0  0  0  0  0  0
   -1.0182    1.4202    2.3652 C   0  0  0  0  0  0  0  0  0  0  0  0
   -1.9567    3.5448    3.3086 C   0  0  0  0  0  0  0  0  0  0  0  0
    0.2850    3.0083    3.6883 O   0  0  0  0  0  0  0  0  0  0  0  0
    2.5064   -0.3346    4.9608 C   0  0  2  0  0  0  0  0  0  0  0  0
    2.0355   -1.1460    8.9236 H   0  0  0  0  0  0  0  0  0  0  0  0
    3.3490   -0.1918    8.2354 H   0  0  0  0  0  0  0  0  0  0  0  0
    2.8020   -1.6831    7.4417 H   0  0  0  0  0  0  0  0  0  0  0  0
    2.8182    1.2224    6.4263 H   0  0  0  0  0  0  0  0  0  0  0  0
    0.8687    2.3800    6.2771 H   0  0  0  0  0  0  0  0  0  0  0  0
    2.0458    3.0961    4.6114 H   0  0  0  0  0  0  0  0  0  0  0  0
    1.6603    1.0875    2.4543 H   0  0  0  0  0  0  0  0  0  0  0  0
    2.8582    2.2714    2.6647 H   0  0  0  0  0  0  0  0  0  0  0  0
    4.6189    1.7973    3.8275 H   0  0  0  0  0  0  0  0  0  0  0  0
    4.6481   -1.0798    3.4111 H   0  0  0  0  0  0  0  0  0  0  0  0
    5.5874   -0.1324    0.1097 H   0  0  0  0  0  0  0  0  0  0  0  0
    5.7818   -2.1423   -1.2216 H   0  0  0  0  0  0  0  0  0  0  0  0
    5.7973   -3.5508   -0.1901 H   0  0  0  0  0  0  0  0  0  0  0  0
    3.4653   -2.6298   -1.9448 H   0  0  0  0  0  0  0  0  0  0  0  0
    3.9929   -4.9011   -2.6707 H   0  0  0  0  0  0  0  0  0  0  0  0
    2.2552   -4.6212   -1.1243 H   0  0  0  0  0  0  0  0  0  0  0  0
    3.6237   -5.1193   -0.1636 H   0  0  0  0  0  0  0  0  0  0  0  0
    1.8727   -2.6557    0.1283 H   0  0  0  0  0  0  0  0  0  0  0  0
    1.8830   -4.0243    1.2084 H   0  0  0  0  0  0  0  0  0  0  0  0
    3.6425   -4.2703    2.9857 H   0  0  0  0  0  0  0  0  0  0  0  0
    5.0833   -3.2508    2.9545 H   0  0  0  0  0  0  0  0  0  0  0  0
    4.8302   -4.4636    1.7206 H   0  0  0  0  0  0  0  0  0  0  0  0
    2.1990   -1.0485    1.6647 H   0  0  0  0  0  0  0  0  0  0  0  0
    2.4972   -2.8408    3.9635 H   0  0  0  0  0  0  0  0  0  0  0  0
    0.9224   -0.4516    3.5522 H   0  0  0  0  0  0  0  0  0  0  0  0
    0.3009   -2.4865    5.6128 H   0  0  0  0  0  0  0  0  0  0  0  0
   -1.3640   -0.7987    6.4808 H   0  0  0  0  0  0  0  0  0  0  0  0
   -0.8804    1.3296    6.4984 H   0  0  0  0  0  0  0  0  0  0  0  0
   -0.5395    0.4794    2.5888 H   0  0  0  0  0  0  0  0  0  0  0  0
   -0.5409    1.8634    1.4934 H   0  0  0  0  0  0  0  0  0  0  0  0
   -2.0528    1.1980    2.1084 H   0  0  0  0  0  0  0  0  0  0  0  0
   -1.9194    4.2457    4.1421 H   0  0  0  0  0  0  0  0  0  0  0  0
   -2.9770    3.1659    3.2037 H   0  0  0  0  0  0  0  0  0  0  0  0
   -1.6833    4.0747    2.3969 H   0  0  0  0  0  0  0  0  0  0  0  0
    3.2231   -1.0357    5.3910 H   0  0  0  0  0  0  0  0  0  0  0  0
  1  2  1  0
  1 33  1  0
  1 34  1  0
  1 35  1  0
  2  3  1  0
  3 32  1  0
  3  4  1  0
  3 36  1  1
  4 26  1  0
  4  5  1  0
  4 37  1  1
  5 31  1  0
  5  6  1  0
  5 38  1  1
  6  7  1  0
  6 39  1  0
  6 40  1  0
  7 32  1  0
  7  8  1  1
  7  9  1  0
  8 41  1  0
  9 20  1  0
  9 10  1  0
  9 42  1  1
 10 11  1  0
 11 12  2  0
 11 43  1  0
 12 18  1  0
 12 13  1  0
 13 14  1  0
 13 44  1  0
 13 45  1  0
 14 15  1  0
 14 16  1  0
 14 46  1  6
 15 47  1  0
 16 17  1  0
 16 48  1  0
 16 49  1  0
 17 18  1  0
 17 50  1  0
 17 51  1  0
 18 19  1  1
 18 20  1  0
 19 52  1  0
 19 53  1  0
 19 54  1  0
 20 21  1  0
 20 55  1  6
 21 22  1  0
 21 56  1  0
 22 23  1  0
 22 32  1  0
 22 57  1  6
 23 25  1  0
 23 24  1  0
 23 58  1  1
 24 25  1  0
 25 26  1  0
 25 59  1  1
 26 27  1  0
 26 60  1  1
 27 28  1  0
 28 29  1  0
 28 30  1  0
 28 31  1  0
 29 61  1  0
 29 62  1  0
 29 63  1  0
 30 64  1  0
 30 65  1  0
 30 66  1  0
 32 67  1  1
M  END
>  <i_m_ct_stereo_status>  (4) 
1

>  <s_m_source_file>  (4) 
/var/tmp/pbs.5076255.sched01/tmp6yc3ji7b/0haed4tc5.sdf

>  <i_m_source_file_index>  (4) 
2

>  <i_lp_mmshare_version>  (4) 
48012

>  <i_f3d_flags>  (4) 
0

>  <s_epik_input>  (4) 
TzFDKFtDSDNdKShbQ0gzXSlPW0NASF0oW0NIMl0yKVtDQEhdKFtDQEhdKFtDQEhdMzQpT1tDSDNdKVtDQEBIXTFbQ0BASF0oTzUpW0NAQEhdNVtDQEBIXTRbTkhdW0NAQEhdKFtDQEBIXTZbQ0BAXTIzW09IXSlbQ0BdNyhbQ0gzXSlDKD1bQ0hdTzYpW0NIMl1bQ0BASF0oW09IXSlbQ0gyXVtDSDJdNw==

>  <s_epik_cmdline>  (4) 
J2VwaWtfcHl0aG9uJywgJy1waHQnLCAnMi4wJywgJy1waCcsICc3LjAnLCAnLXRuJywgJzgnLCAnLW1hJywgJzIwMCcsICctaW1hZScsICc8aW5maWxlLm1hZT4nLCAnLW9tYWUnLCAnPG91dGZpbGUubWFlPic=

>  <r_epik_Ionization_Penalty>  (4) 
1.74959

>  <r_epik_Ionization_Penalty_Charging>  (4) 
0

>  <r_epik_Ionization_Penalty_Neutral>  (4) 
1.74959

>  <r_epik_State_Penalty>  (4) 
1.85933

>  <r_epik_Charging_Adjusted_Penalty>  (4) 
1.85933

>  <i_epik_Tot_Q>  (4) 
0

>  <i_epik_Tot_abs_Q>  (4) 
0

>  <s_lp_Force_Field>  (4) 
OPLS3e

>  <r_lp_Energy>  (4) 
58.7574

>  <b_lp_Chiralities_Consistent>  (4) 
1

>  <s_lp_Variant>  (4) 
0:0-2

>  <s_i_glide_gridfile>  (4) 
pfpi4k_grid

>  <i_i_glide_lignum>  (4) 
2

>  <i_i_glide_rotatable_bonds>  (4) 
3

>  <r_i_docking_score>  (4) 
-2.74939

>  <r_i_glide_ligand_efficiency>  (4) 
-0.0859184

>  <r_i_glide_ligand_efficiency_sa>  (4) 
-0.272774

>  <r_i_glide_ligand_efficiency_ln>  (4) 
-0.615663

>  <r_i_glide_gscore>  (4) 
-2.74939

>  <r_i_glide_lipo>  (4) 
-0.167338

>  <r_i_glide_hbond>  (4) 
-0.352252

>  <r_i_glide_metal>  (4) 
-0

>  <r_i_glide_rewards>  (4) 
-0.344065

>  <r_i_glide_evdw>  (4) 
-19.6907

>  <r_i_glide_ecoul>  (4) 
-5.71705

>  <r_i_glide_erotb>  (4) 
0

>  <r_i_glide_esite>  (4) 
-0.0436439

>  <r_i_glide_emodel>  (4) 
-29.4935

>  <r_i_glide_energy>  (4) 
-25.4077

>  <r_i_glide_einternal>  (4) 
1.08669

>  <r_i_glide_intrahb_reward>  (4) 
-0

>  <i_i_glide_confnum>  (4) 
2

>  <i_i_glide_posenum>  (4) 
33

>  <r_i_glide_eff_state_penalty>  (4) 
0

>  <ligand_id>  (4) 
0

>  <original_smiles>  (4) 
COC1C2C3CC4(O)C5OC=C6CC(O)CCC6(C)C5NC(C5OC5C2OC(C)(C)O3)C14

>  <smiles>  (4) 
[H]OC1([H])C([H])([H])C2=C([H])OC3([H])C([H])(N([H])C4([H])C5([H])OC5([H])C5([H])OC(C([H])([H])[H])(C([H])([H])[H])OC6([H])C([H])([H])C3(O[H])C4([H])C([H])(OC([H])([H])[H])C65[H])C2(C([H])([H])[H])C([H])([H])C1([H])[H]

$$$$
0:1:1
     RDKit          3D

 67 73  0  0  1  0  0  0  0  0999 V2000
    3.8116   -2.1746    8.2646 C   0  0  0  0  0  0  0  0  0  0  0  0
    2.6893   -1.4113    7.8365 O   0  0  0  0  0  0  0  0  0  0  0  0
    2.9280   -0.5064    6.7571 C   0  0  2  0  0  0  0  0  0  0  0  0
    1.7431    0.4612    6.6022 C   0  0  1  0  0  0  0  0  0  0  0  0
    1.9368    1.4479    5.4283 C   0  0  1  0  0  0  0  0  0  0  0  0
    2.6691    0.9629    4.1371 C   0  0  0  0  0  0  0  0  0  0  0  0
    3.7603   -0.1338    4.3798 C   0  0  2  0  0  0  0  0  0  0  0  0
    4.9229    0.4838    4.8954 O   0  0  0  0  0  0  0  0  0  0  0  0
    4.2373   -0.9156    3.1194 C   0  0  2  0  0  0  0  0  0  0  0  0
    4.5969    0.0027    2.0883 O   0  0  0  0  0  0  0  0  0  0  0  0
    4.8868   -0.5470    0.8640 C   0  0  0  0  0  0  0  0  0  0  0  0
    4.5859   -1.8042    0.4853 C   0  0  0  0  0  0  0  0  0  0  0  0
    4.9834   -2.3319   -0.8869 C   0  0  0  0  0  0  0  0  0  0  0  0
    3.7708   -2.8751   -1.6517 C   0  0  1  0  0  0  0  0  0  0  0  0
    4.2105   -3.4513   -2.8671 O   0  0  0  0  0  0  0  0  0  0  0  0
    3.0288   -3.9263   -0.8140 C   0  0  0  0  0  0  0  0  0  0  0  0
    2.6189   -3.3674    0.5600 C   0  0  0  0  0  0  0  0  0  0  0  0
    3.7827   -2.7543    1.3825 C   0  0  1  0  0  0  0  0  0  0  0  0
    4.7231   -3.8722    1.8897 C   0  0  0  0  0  0  0  0  0  0  0  0
    3.1895   -1.9183    2.5576 C   0  0  1  0  0  0  0  0  0  0  0  0
    2.5440   -2.7397    3.6069 N   0  0  0  0  0  0  0  0  0  0  0  0
    2.0857   -1.9047    4.7219 C   0  0  1  0  0  0  0  0  0  0  0  0
    1.0912   -2.5477    5.6487 C   0  0  2  0  0  0  0  0  0  0  0  0
   -0.2695   -2.2414    5.3013 O   0  0  0  0  0  0  0  0  0  0  0  0
    0.1876   -1.7126    6.5470 C   0  0  2  0  0  0  0  0  0  0  0  0
    0.3370   -0.1881    6.7106 C   0  0  2  0  0  0  0  0  0  0  0  0
   -0.7446    0.6120    6.2380 O   0  0  0  0  0  0  0  0  0  0  0  0
   -0.5160    1.4888    5.1658 C   0  0  0  0  0  0  0  0  0  0  0  0
   -0.7384    0.7570    3.8313 C   0  0  0  0  0  0  0  0  0  0  0  0
   -1.5657    2.6028    5.3086 C   0  0  0  0  0  0  0  0  0  0  0  0
    0.7239    2.1610    5.1895 O   0  0  0  0  0  0  0  0  0  0  0  0
    3.2715   -1.1825    5.4035 C   0  0  2  0  0  0  0  0  0  0  0  0
    3.5501   -2.7276    9.1670 H   0  0  0  0  0  0  0  0  0  0  0  0
    4.6669   -1.5401    8.4996 H   0  0  0  0  0  0  0  0  0  0  0  0
    4.1079   -2.9072    7.5154 H   0  0  0  0  0  0  0  0  0  0  0  0
    3.7733    0.0984    7.0712 H   0  0  0  0  0  0  0  0  0  0  0  0
    1.7822    1.1090    7.4803 H   0  0  0  0  0  0  0  0  0  0  0  0
    2.6112    2.2119    5.8187 H   0  0  0  0  0  0  0  0  0  0  0  0
    1.9462    0.6201    3.4043 H   0  0  0  0  0  0  0  0  0  0  0  0
    3.1130    1.8281    3.6435 H   0  0  0  0  0  0  0  0  0  0  0  0
    5.1804    1.1688    4.2938 H   0  0  0  0  0  0  0  0  0  0  0  0
    5.1355   -1.4697    3.4026 H   0  0  0  0  0  0  0  0  0  0  0  0
    5.4376    0.1461    0.2456 H   0  0  0  0  0  0  0  0  0  0  0  0
    5.4630   -1.5459   -1.4724 H   0  0  0  0  0  0  0  0  0  0  0  0
    5.7248   -3.1206   -0.7611 H   0  0  0  0  0  0  0  0  0  0  0  0
    3.0868   -2.0577   -1.8946 H   0  0  0  0  0  0  0  0  0  0  0  0
    3.7872   -4.2994   -2.9597 H   0  0  0  0  0  0  0  0  0  0  0  0
    2.1347   -4.2493   -1.3503 H   0  0  0  0  0  0  0  0  0  0  0  0
    3.6490   -4.8138   -0.6893 H   0  0  0  0  0  0  0  0  0  0  0  0
    1.8630   -2.6032    0.3906 H   0  0  0  0  0  0  0  0  0  0  0  0
    2.1363   -4.1490    1.1426 H   0  0  0  0  0  0  0  0  0  0  0  0
    4.1965   -4.5827    2.5246 H   0  0  0  0  0  0  0  0  0  0  0  0
    5.5633   -3.4686    2.4540 H   0  0  0  0  0  0  0  0  0  0  0  0
    5.1468   -4.4448    1.0652 H   0  0  0  0  0  0  0  0  0  0  0  0
    2.4143   -1.2835    2.1280 H   0  0  0  0  0  0  0  0  0  0  0  0
    3.1768   -3.4564    3.9402 H   0  0  0  0  0  0  0  0  0  0  0  0
    1.4715   -1.1438    4.2797 H   0  0  0  0  0  0  0  0  0  0  0  0
    1.2902   -3.5699    5.9667 H   0  0  0  0  0  0  0  0  0  0  0  0
   -0.2345   -2.2205    7.4104 H   0  0  0  0  0  0  0  0  0  0  0  0
    0.1469   -0.0973    7.7826 H   0  0  0  0  0  0  0  0  0  0  0  0
   -0.1769   -0.1621    3.7768 H   0  0  0  0  0  0  0  0  0  0  0  0
   -0.4555    1.3958    2.9968 H   0  0  0  0  0  0  0  0  0  0  0  0
   -1.7888    0.4884    3.7268 H   0  0  0  0  0  0  0  0  0  0  0  0
   -1.4089    3.1410    6.2435 H   0  0  0  0  0  0  0  0  0  0  0  0
   -2.5748    2.1833    5.3083 H   0  0  0  0  0  0  0  0  0  0  0  0
   -1.4760    3.3075    4.4811 H   0  0  0  0  0  0  0  0  0  0  0  0
    4.0781   -1.8987    5.5673 H   0  0  0  0  0  0  0  0  0  0  0  0
  1  2  1  0
  1 33  1  0
  1 34  1  0
  1 35  1  0
  2  3  1  0
  3 32  1  0
  3  4  1  0
  3 36  1  1
  4 26  1  0
  4  5  1  0
  4 37  1  1
  5 31  1  0
  5  6  1  0
  5 38  1  1
  6  7  1  0
  6 39  1  0
  6 40  1  0
  7 32  1  0
  7  8  1  1
  7  9  1  0
  8 41  1  0
  9 20  1  0
  9 10  1  0
  9 42  1  1
 10 11  1  0
 11 12  2  0
 11 43  1  0
 12 18  1  0
 12 13  1  0
 13 14  1  0
 13 44  1  0
 13 45  1  0
 14 15  1  0
 14 16  1  0
 14 46  1  6
 15 47  1  0
 16 17  1  0
 16 48  1  0
 16 49  1  0
 17 18  1  0
 17 50  1  0
 17 51  1  0
 18 19  1  1
 18 20  1  0
 19 52  1  0
 19 53  1  0
 19 54  1  0
 20 21  1  0
 20 55  1  6
 21 22  1  0
 21 56  1  0
 22 23  1  0
 22 32  1  0
 22 57  1  6
 23 25  1  0
 23 24  1  0
 23 58  1  1
 24 25  1  0
 25 26  1  0
 25 59  1  1
 26 27  1  0
 26 60  1  1
 27 28  1  0
 28 29  1  0
 28 30  1  0
 28 31  1  0
 29 61  1  0
 29 62  1  0
 29 63  1  0
 30 64  1  0
 30 65  1  0
 30 66  1  0
 32 67  1  1
M  END
>  <i_m_ct_stereo_status>  (5) 
1

>  <s_m_source_file>  (5) 
/var/tmp/pbs.5076255.sched01/tmp6yc3ji7b/0haed4tc5.sdf

>  <i_m_source_file_index>  (5) 
2

>  <i_lp_mmshare_version>  (5) 
48012

>  <i_f3d_flags>  (5) 
0

>  <s_epik_input>  (5) 
TzFDKFtDSDNdKShbQ0gzXSlPW0NASF0oW0NIMl0yKVtDQEhdKFtDQEhdKFtDQEhdMzQpT1tDSDNdKVtDQEBIXTFbQ0BASF0oTzUpW0NAQEhdNVtDQEBIXTRbTkhdW0NAQEhdKFtDQEBIXTZbQ0BAXTIzW09IXSlbQ0BdNyhbQ0gzXSlDKD1bQ0hdTzYpW0NIMl1bQ0BASF0oW09IXSlbQ0gyXVtDSDJdNw==

>  <s_epik_cmdline>  (5) 
J2VwaWtfcHl0aG9uJywgJy1waHQnLCAnMi4wJywgJy1waCcsICc3LjAnLCAnLXRuJywgJzgnLCAnLW1hJywgJzIwMCcsICctaW1hZScsICc8aW5maWxlLm1hZT4nLCAnLW9tYWUnLCAnPG91dGZpbGUubWFlPic=

>  <r_epik_Ionization_Penalty>  (5) 
1.74959

>  <r_epik_Ionization_Penalty_Charging>  (5) 
0

>  <r_epik_Ionization_Penalty_Neutral>  (5) 
1.74959

>  <r_epik_State_Penalty>  (5) 
1.85933

>  <r_epik_Charging_Adjusted_Penalty>  (5) 
1.85933

>  <i_epik_Tot_Q>  (5) 
0

>  <i_epik_Tot_abs_Q>  (5) 
0

>  <s_lp_Force_Field>  (5) 
OPLS3e

>  <r_lp_Energy>  (5) 
58.7574

>  <b_lp_Chiralities_Consistent>  (5) 
1

>  <s_lp_Variant>  (5) 
0:0-2

>  <s_i_glide_gridfile>  (5) 
pfpi4k_grid

>  <i_i_glide_lignum>  (5) 
2

>  <i_i_glide_rotatable_bonds>  (5) 
3

>  <r_i_docking_score>  (5) 
-2.61383

>  <r_i_glide_ligand_efficiency>  (5) 
-0.0816821

>  <r_i_glide_ligand_efficiency_sa>  (5) 
-0.259324

>  <r_i_glide_ligand_efficiency_ln>  (5) 
-0.585307

>  <r_i_glide_gscore>  (5) 
-2.61383

>  <r_i_glide_lipo>  (5) 
-0.227076

>  <r_i_glide_hbond>  (5) 
-0.380184

>  <r_i_glide_metal>  (5) 
-0

>  <r_i_glide_rewards>  (5) 
-0.344065

>  <r_i_glide_evdw>  (5) 
-20.2561

>  <r_i_glide_ecoul>  (5) 
-4.2587

>  <r_i_glide_erotb>  (5) 
0

>  <r_i_glide_esite>  (5) 
-0.0108893

>  <r_i_glide_emodel>  (5) 
-28.2551

>  <r_i_glide_energy>  (5) 
-24.5148

>  <r_i_glide_einternal>  (5) 
1.419

>  <r_i_glide_intrahb_reward>  (5) 
-0

>  <i_i_glide_confnum>  (5) 
2

>  <i_i_glide_posenum>  (5) 
2

>  <r_i_glide_eff_state_penalty>  (5) 
0

>  <ligand_id>  (5) 
0

>  <original_smiles>  (5) 
COC1C2C3CC4(O)C5OC=C6CC(O)CCC6(C)C5NC(C5OC5C2OC(C)(C)O3)C14

>  <smiles>  (5) 
[H]OC1([H])C([H])([H])C2=C([H])OC3([H])C([H])(N([H])C4([H])C5([H])OC5([H])C5([H])OC(C([H])([H])[H])(C([H])([H])[H])OC6([H])C([H])([H])C3(O[H])C4([H])C([H])(OC([H])([H])[H])C65[H])C2(C([H])([H])[H])C([H])([H])C1([H])[H]

$$$$
0:1:2
     RDKit          3D

 67 73  0  0  1  0  0  0  0  0999 V2000
    4.4291   -4.0716    7.6136 C   0  0  0  0  0  0  0  0  0  0  0  0
    3.1890   -3.3927    7.4508 O   0  0  0  0  0  0  0  0  0  0  0  0
    3.2274   -2.2102    6.6508 C   0  0  2  0  0  0  0  0  0  0  0  0
    1.9184   -1.4187    6.8111 C   0  0  1  0  0  0  0  0  0  0  0  0
    1.8958   -0.1377    5.9459 C   0  0  1  0  0  0  0  0  0  0  0  0
    2.5842   -0.1522    4.5449 C   0  0  0  0  0  0  0  0  0  0  0  0
    3.8241   -1.1036    4.4379 C   0  0  2  0  0  0  0  0  0  0  0  0
    4.9309   -0.4840    5.0633 O   0  0  0  0  0  0  0  0  0  0  0  0
    4.3014   -1.4450    2.9955 C   0  0  2  0  0  0  0  0  0  0  0  0
    4.4575   -0.2394    2.2483 O   0  0  0  0  0  0  0  0  0  0  0  0
    4.7197   -0.3912    0.9094 C   0  0  0  0  0  0  0  0  0  0  0  0
    4.5599   -1.5327    0.2075 C   0  0  0  0  0  0  0  0  0  0  0  0
    4.9197   -1.6141   -1.2712 C   0  0  0  0  0  0  0  0  0  0  0  0
    3.7312   -2.1072   -2.1083 C   0  0  1  0  0  0  0  0  0  0  0  0
    4.1268   -2.2749   -3.4571 O   0  0  0  0  0  0  0  0  0  0  0  0
    3.1948   -3.4414   -1.5690 C   0  0  0  0  0  0  0  0  0  0  0  0
    2.8182   -3.3273   -0.0805 C   0  0  0  0  0  0  0  0  0  0  0  0
    3.9546   -2.7966    0.8361 C   0  0  1  0  0  0  0  0  0  0  0  0
    5.0663   -3.8612    0.9793 C   0  0  0  0  0  0  0  0  0  0  0  0
    3.3506   -2.3999    2.2176 C   0  0  1  0  0  0  0  0  0  0  0  0
    2.8975   -3.5546    3.0247 N   0  0  0  0  0  0  0  0  0  0  0  0
    2.4279   -3.1244    4.3448 C   0  0  1  0  0  0  0  0  0  0  0  0
    1.6025   -4.1261    5.1008 C   0  0  2  0  0  0  0  0  0  0  0  0
    0.1990   -3.9332    4.8858 O   0  0  0  0  0  0  0  0  0  0  0  0
    0.6549   -3.6996    6.2178 C   0  0  2  0  0  0  0  0  0  0  0  0
    0.6228   -2.2693    6.7893 C   0  0  2  0  0  0  0  0  0  0  0  0
   -0.5810   -1.5245    6.5958 O   0  0  0  0  0  0  0  0  0  0  0  0
   -0.5489   -0.3755    5.7946 C   0  0  0  0  0  0  0  0  0  0  0  0
   -0.7810   -0.7529    4.3233 C   0  0  0  0  0  0  0  0  0  0  0  0
   -1.7215    0.4960    6.2748 C   0  0  0  0  0  0  0  0  0  0  0  0
    0.5882    0.4357    5.9549 O   0  0  0  0  0  0  0  0  0  0  0  0
    3.5555   -2.4452    5.1527 C   0  0  2  0  0  0  0  0  0  0  0  0
    4.3078   -4.8782    8.3375 H   0  0  0  0  0  0  0  0  0  0  0  0
    5.2076   -3.4045    7.9855 H   0  0  0  0  0  0  0  0  0  0  0  0
    4.7647   -4.5251    6.6821 H   0  0  0  0  0  0  0  0  0  0  0  0
    4.0087   -1.5957    7.0865 H   0  0  0  0  0  0  0  0  0  0  0  0
    1.9412   -1.0309    7.8317 H   0  0  0  0  0  0  0  0  0  0  0  0
    2.4947    0.5824    6.5060 H   0  0  0  0  0  0  0  0  0  0  0  0
    1.8580   -0.3889    3.7742 H   0  0  0  0  0  0  0  0  0  0  0  0
    2.8739    0.8684    4.2915 H   0  0  0  0  0  0  0  0  0  0  0  0
    5.0480    0.3724    4.6762 H   0  0  0  0  0  0  0  0  0  0  0  0
    5.2821   -1.9200    3.0802 H   0  0  0  0  0  0  0  0  0  0  0  0
    5.1272    0.5158    0.4873 H   0  0  0  0  0  0  0  0  0  0  0  0
    5.2485   -0.6400   -1.6393 H   0  0  0  0  0  0  0  0  0  0  0  0
    5.7611   -2.2947   -1.3963 H   0  0  0  0  0  0  0  0  0  0  0  0
    2.9375   -1.3556   -2.0876 H   0  0  0  0  0  0  0  0  0  0  0  0
    3.3578   -2.5262   -3.9497 H   0  0  0  0  0  0  0  0  0  0  0  0
    2.3157   -3.7395   -2.1435 H   0  0  0  0  0  0  0  0  0  0  0  0
    3.9352   -4.2273   -1.7131 H   0  0  0  0  0  0  0  0  0  0  0  0
    1.9685   -2.6573   -0.0052 H   0  0  0  0  0  0  0  0  0  0  0  0
    2.4738   -4.2959    0.2777 H   0  0  0  0  0  0  0  0  0  0  0  0
    4.6844   -4.7839    1.4144 H   0  0  0  0  0  0  0  0  0  0  0  0
    5.8880   -3.5072    1.6021 H   0  0  0  0  0  0  0  0  0  0  0  0
    5.4976   -4.1280    0.0139 H   0  0  0  0  0  0  0  0  0  0  0  0
    2.4707   -1.7922    2.0073 H   0  0  0  0  0  0  0  0  0  0  0  0
    3.6399   -4.2366    3.1213 H   0  0  0  0  0  0  0  0  0  0  0  0
    1.6866   -2.3725    4.1517 H   0  0  0  0  0  0  0  0  0  0  0  0
    1.9501   -5.1584    5.1096 H   0  0  0  0  0  0  0  0  0  0  0  0
    0.3512   -4.4743    6.9186 H   0  0  0  0  0  0  0  0  0  0  0  0
    0.4997   -2.4975    7.8510 H   0  0  0  0  0  0  0  0  0  0  0  0
   -0.1134   -1.5367    3.9985 H   0  0  0  0  0  0  0  0  0  0  0  0
   -0.6449    0.1173    3.6839 H   0  0  0  0  0  0  0  0  0  0  0  0
   -1.7959   -1.1283    4.1946 H   0  0  0  0  0  0  0  0  0  0  0  0
   -1.5655    0.7888    7.3142 H   0  0  0  0  0  0  0  0  0  0  0  0
   -2.6623   -0.0499    6.1824 H   0  0  0  0  0  0  0  0  0  0  0  0
   -1.7861    1.4009    5.6687 H   0  0  0  0  0  0  0  0  0  0  0  0
    4.4562   -3.0563    5.0822 H   0  0  0  0  0  0  0  0  0  0  0  0
  1  2  1  0
  1 33  1  0
  1 34  1  0
  1 35  1  0
  2  3  1  0
  3 32  1  0
  3  4  1  0
  3 36  1  1
  4 26  1  0
  4  5  1  0
  4 37  1  1
  5 31  1  0
  5  6  1  0
  5 38  1  1
  6  7  1  0
  6 39  1  0
  6 40  1  0
  7 32  1  0
  7  8  1  1
  7  9  1  0
  8 41  1  0
  9 20  1  0
  9 10  1  0
  9 42  1  1
 10 11  1  0
 11 12  2  0
 11 43  1  0
 12 18  1  0
 12 13  1  0
 13 14  1  0
 13 44  1  0
 13 45  1  0
 14 15  1  0
 14 16  1  0
 14 46  1  6
 15 47  1  0
 16 17  1  0
 16 48  1  0
 16 49  1  0
 17 18  1  0
 17 50  1  0
 17 51  1  0
 18 19  1  1
 18 20  1  0
 19 52  1  0
 19 53  1  0
 19 54  1  0
 20 21  1  0
 20 55  1  6
 21 22  1  0
 21 56  1  0
 22 23  1  0
 22 32  1  0
 22 57  1  6
 23 25  1  0
 23 24  1  0
 23 58  1  1
 24 25  1  0
 25 26  1  0
 25 59  1  1
 26 27  1  0
 26 60  1  1
 27 28  1  0
 28 29  1  0
 28 30  1  0
 28 31  1  0
 29 61  1  0
 29 62  1  0
 29 63  1  0
 30 64  1  0
 30 65  1  0
 30 66  1  0
 32 67  1  1
M  END
>  <i_m_ct_stereo_status>  (6) 
1

>  <s_m_source_file>  (6) 
/var/tmp/pbs.5076255.sched01/tmp6yc3ji7b/0haed4tc5.sdf

>  <i_m_source_file_index>  (6) 
2

>  <i_lp_mmshare_version>  (6) 
48012

>  <i_f3d_flags>  (6) 
0

>  <s_epik_input>  (6) 
TzFDKFtDSDNdKShbQ0gzXSlPW0NASF0oW0NIMl0yKVtDQEhdKFtDQEhdKFtDQEhdMzQpT1tDSDNdKVtDQEBIXTFbQ0BASF0oTzUpW0NAQEhdNVtDQEBIXTRbTkhdW0NAQEhdKFtDQEBIXTZbQ0BAXTIzW09IXSlbQ0BdNyhbQ0gzXSlDKD1bQ0hdTzYpW0NIMl1bQ0BASF0oW09IXSlbQ0gyXVtDSDJdNw==

>  <s_epik_cmdline>  (6) 
J2VwaWtfcHl0aG9uJywgJy1waHQnLCAnMi4wJywgJy1waCcsICc3LjAnLCAnLXRuJywgJzgnLCAnLW1hJywgJzIwMCcsICctaW1hZScsICc8aW5maWxlLm1hZT4nLCAnLW9tYWUnLCAnPG91dGZpbGUubWFlPic=

>  <r_epik_Ionization_Penalty>  (6) 
1.74959

>  <r_epik_Ionization_Penalty_Charging>  (6) 
0

>  <r_epik_Ionization_Penalty_Neutral>  (6) 
1.74959

>  <r_epik_State_Penalty>  (6) 
1.85933

>  <r_epik_Charging_Adjusted_Penalty>  (6) 
1.85933

>  <i_epik_Tot_Q>  (6) 
0

>  <i_epik_Tot_abs_Q>  (6) 
0

>  <s_lp_Force_Field>  (6) 
OPLS3e

>  <r_lp_Energy>  (6) 
58.7574

>  <b_lp_Chiralities_Consistent>  (6) 
1

>  <s_lp_Variant>  (6) 
0:0-2

>  <s_i_glide_gridfile>  (6) 
pfpi4k_grid

>  <i_i_glide_lignum>  (6) 
2

>  <i_i_glide_rotatable_bonds>  (6) 
3

>  <r_i_docking_score>  (6) 
-2.10987

>  <r_i_glide_ligand_efficiency>  (6) 
-0.0659333

>  <r_i_glide_ligand_efficiency_sa>  (6) 
-0.209325

>  <r_i_glide_ligand_efficiency_ln>  (6) 
-0.472457

>  <r_i_glide_gscore>  (6) 
-2.10987

>  <r_i_glide_lipo>  (6) 
-0.310196

>  <r_i_glide_hbond>  (6) 
0

>  <r_i_glide_metal>  (6) 
-0

>  <r_i_glide_rewards>  (6) 
-0.344065

>  <r_i_glide_evdw>  (6) 
-21.7958

>  <r_i_glide_ecoul>  (6) 
-2.18496

>  <r_i_glide_erotb>  (6) 
0

>  <r_i_glide_esite>  (6) 
-0.03807

>  <r_i_glide_emodel>  (6) 
-27.459

>  <r_i_glide_energy>  (6) 
-23.9808

>  <r_i_glide_einternal>  (6) 
0.325616

>  <r_i_glide_intrahb_reward>  (6) 
-0

>  <i_i_glide_confnum>  (6) 
2

>  <i_i_glide_posenum>  (6) 
38

>  <r_i_glide_eff_state_penalty>  (6) 
0

>  <ligand_id>  (6) 
0

>  <original_smiles>  (6) 
COC1C2C3CC4(O)C5OC=C6CC(O)CCC6(C)C5NC(C5OC5C2OC(C)(C)O3)C14

>  <smiles>  (6) 
[H]OC1([H])C([H])([H])C2=C([H])OC3([H])C([H])(N([H])C4([H])C5([H])OC5([H])C5([H])OC(C([H])([H])[H])(C([H])([H])[H])OC6([H])C([H])([H])C3(O[H])C4([H])C([H])(OC([H])([H])[H])C65[H])C2(C([H])([H])[H])C([H])([H])C1([H])[H]

$$$$
1:0:0
     RDKit          3D

 21 23  0  0  1  0  0  0  0  0999 V2000
    2.1203   -5.9047    1.5842 C   0  0  0  0  0  0  0  0  0  0  0  0
    3.2097   -4.9831    1.5413 C   0  0  0  0  0  0  0  0  0  0  0  0
    3.1345   -4.4312    0.2901 C   0  0  0  0  0  0  0  0  0  0  0  0
    3.9569   -3.4271   -0.3909 C   0  0  0  0  0  0  0  0  0  0  0  0
    5.0484   -2.9961    0.2855 N   0  0  0  0  0  0  0  0  0  0  0  0
    5.8427   -2.0772   -0.2660 C   0  0  0  0  0  0  0  0  0  0  0  0
    5.7347   -1.4786   -1.4530 N   0  0  0  0  0  0  0  0  0  0  0  0
    4.6288   -1.9150   -2.1186 C   0  0  0  0  0  0  0  0  0  0  0  0
    4.2100   -1.4989   -3.3633 N   0  0  0  0  0  0  0  0  0  0  0  0
    3.0501   -2.1609   -3.7236 C   0  0  0  0  0  0  0  0  0  0  0  0
    2.6972   -3.0235   -2.7181 C   0  0  0  0  0  0  0  0  0  0  0  0
    3.6870   -2.8856   -1.6779 C   0  0  0  0  0  0  0  0  0  0  0  0
    2.0519   -5.0197   -0.3199 N   0  0  0  0  0  0  0  0  0  0  0  0
    1.4088   -5.9038    0.4677 N   0  0  0  0  0  0  0  0  0  0  0  0
    4.6601   -0.7907   -3.9223 H   0  0  0  0  0  0  0  0  0  0  0  0
    1.7967   -4.8670   -1.2873 H   0  0  0  0  0  0  0  0  0  0  0  0
    1.8065   -6.5649    2.3814 H   0  0  0  0  0  0  0  0  0  0  0  0
    3.9384   -4.7615    2.3078 H   0  0  0  0  0  0  0  0  0  0  0  0
    6.6964   -1.7845    0.3236 H   0  0  0  0  0  0  0  0  0  0  0  0
    2.5623   -1.9602   -4.6640 H   0  0  0  0  0  0  0  0  0  0  0  0
    1.8332   -3.6661   -2.7191 H   0  0  0  0  0  0  0  0  0  0  0  0
  1 14  2  0
  1  2  1  0
  1 17  1  0
  2  3  2  0
  2 18  1  0
  3  4  1  0
  3 13  1  0
  4 12  1  0
  4  5  2  0
  5  6  1  0
  6  7  2  0
  6 19  1  0
  7  8  1  0
  8 12  2  0
  8  9  1  0
  9 15  1  0
  9 10  1  0
 10 11  2  0
 10 20  1  0
 11 12  1  0
 11 21  1  0
 13 16  1  0
 13 14  1  0
M  END
>  <i_m_ct_stereo_status>  (7) 
1

>  <s_m_source_file>  (7) 
/var/tmp/pbs.5076255.sched01/tmp6yc3ji7b/0haed4tc5.sdf

>  <i_m_source_file_index>  (7) 
3

>  <i_lp_mmshare_version>  (7) 
48012

>  <i_f3d_flags>  (7) 
0

>  <s_epik_input>  (7) 
W25IXTFuW2NIXVtjSF1jMS1jKG5bY0hdbjIpYyhjMjMpW2NIXVtjSF1bbkhdMw==

>  <s_epik_cmdline>  (7) 
J2VwaWtfcHl0aG9uJywgJy1waHQnLCAnMi4wJywgJy1waCcsICc3LjAnLCAnLXRuJywgJzgnLCAnLW1hJywgJzIwMCcsICctaW1hZScsICc8aW5maWxlLm1hZT4nLCAnLW9tYWUnLCAnPG91dGZpbGUubWFlPic=

>  <r_lp_tautomer_probability>  (7) 
0.5

>  <r_epik_Ionization_Penalty>  (7) 
1.05302e-05

>  <r_epik_Ionization_Penalty_Charging>  (7) 
0

>  <r_epik_Ionization_Penalty_Neutral>  (7) 
1.05302e-05

>  <r_epik_State_Penalty>  (7) 
0.41068

>  <r_epik_Charging_Adjusted_Penalty>  (7) 
0.41068

>  <i_epik_Tot_Q>  (7) 
0

>  <i_epik_Tot_abs_Q>  (7) 
0

>  <s_lp_Force_Field>  (7) 
OPLS3e

>  <r_lp_Energy>  (7) 
15.7315

>  <b_lp_Chiralities_Consistent>  (7) 
1

>  <s_lp_Variant>  (7) 
1:0-1

>  <s_i_glide_gridfile>  (7) 
pfpi4k_grid

>  <i_i_glide_lignum>  (7) 
3

>  <i_i_glide_rotatable_bonds>  (7) 
1

>  <r_i_docking_score>  (7) 
-4.30558

>  <r_i_glide_ligand_efficiency>  (7) 
-0.307541

>  <r_i_glide_ligand_efficiency_sa>  (7) 
-0.741219

>  <r_i_glide_ligand_efficiency_ln>  (7) 
-1.18316

>  <r_i_glide_gscore>  (7) 
-4.30558

>  <r_i_glide_lipo>  (7) 
-0.242469

>  <r_i_glide_hbond>  (7) 
-0.270543

>  <r_i_glide_metal>  (7) 
-0

>  <r_i_glide_rewards>  (7) 
-2.14646

>  <r_i_glide_evdw>  (7) 
-17.8657

>  <r_i_glide_ecoul>  (7) 
-7.33876

>  <r_i_glide_erotb>  (7) 
0.463908

>  <r_i_glide_esite>  (7) 
-0.115916

>  <r_i_glide_emodel>  (7) 
-32.2497

>  <r_i_glide_energy>  (7) 
-25.2044

>  <r_i_glide_einternal>  (7) 
0.229377

>  <r_i_glide_intrahb_reward>  (7) 
-0

>  <i_i_glide_confnum>  (7) 
2

>  <i_i_glide_posenum>  (7) 
11

>  <r_i_glide_eff_state_penalty>  (7) 
0

>  <ligand_id>  (7) 
1

>  <original_smiles>  (7) 
c1cc(-c2ncnc3[nH]ccc23)[nH]n1

>  <smiles>  (7) 
[H]c1nc(-c2c([H])c([H])nn2[H])c2c([H])c([H])n([H])c2n1

$$$$
1:0:1
     RDKit          3D

 21 23  0  0  1  0  0  0  0  0999 V2000
    2.3255   -0.6258    2.2760 C   0  0  0  0  0  0  0  0  0  0  0  0
    1.1690    0.0960    2.6998 C   0  0  0  0  0  0  0  0  0  0  0  0
    1.6073    1.3876    2.8270 C   0  0  0  0  0  0  0  0  0  0  0  0
    0.9067    2.6161    3.2286 C   0  0  0  0  0  0  0  0  0  0  0  0
   -0.3989    2.4728    3.5685 N   0  0  0  0  0  0  0  0  0  0  0  0
   -1.1084    3.5510    3.9115 C   0  0  0  0  0  0  0  0  0  0  0  0
   -0.7143    4.8222    4.0217 N   0  0  0  0  0  0  0  0  0  0  0  0
    0.6044    4.9496    3.6922 C   0  0  0  0  0  0  0  0  0  0  0  0
    1.3381    6.1168    3.6885 N   0  0  0  0  0  0  0  0  0  0  0  0
    2.6411    5.8579    3.3037 C   0  0  0  0  0  0  0  0  0  0  0  0
    2.7749    4.5197    3.0436 C   0  0  0  0  0  0  0  0  0  0  0  0
    1.4942    3.9098    3.2947 C   0  0  0  0  0  0  0  0  0  0  0  0
    2.9463    1.3654    2.4943 N   0  0  0  0  0  0  0  0  0  0  0  0
    3.3952    0.1407    2.1622 N   0  0  0  0  0  0  0  0  0  0  0  0
    0.9724    7.0491    3.8398 H   0  0  0  0  0  0  0  0  0  0  0  0
    3.5654    2.1672    2.4802 H   0  0  0  0  0  0  0  0  0  0  0  0
    2.4416   -1.6765    2.0559 H   0  0  0  0  0  0  0  0  0  0  0  0
    0.1704   -0.2769    2.8795 H   0  0  0  0  0  0  0  0  0  0  0  0
   -2.1419    3.3658    4.1597 H   0  0  0  0  0  0  0  0  0  0  0  0
    3.3624    6.6556    3.2165 H   0  0  0  0  0  0  0  0  0  0  0  0
    3.6697    4.0370    2.6969 H   0  0  0  0  0  0  0  0  0  0  0  0
  1 14  2  0
  1  2  1  0
  1 17  1  0
  2  3  2  0
  2 18  1  0
  3  4  1  0
  3 13  1  0
  4 12  1  0
  4  5  2  0
  5  6  1  0
  6  7  2  0
  6 19  1  0
  7  8  1  0
  8 12  2  0
  8  9  1  0
  9 15  1  0
  9 10  1  0
 10 11  2  0
 10 20  1  0
 11 12  1  0
 11 21  1  0
 13 16  1  0
 13 14  1  0
M  END
>  <i_m_ct_stereo_status>  (8) 
1

>  <s_m_source_file>  (8) 
/var/tmp/pbs.5076255.sched01/tmp6yc3ji7b/0haed4tc5.sdf

>  <i_m_source_file_index>  (8) 
3

>  <i_lp_mmshare_version>  (8) 
48012

>  <i_f3d_flags>  (8) 
0

>  <s_epik_input>  (8) 
W25IXTFuW2NIXVtjSF1jMS1jKG5bY0hdbjIpYyhjMjMpW2NIXVtjSF1bbkhdMw==

>  <s_epik_cmdline>  (8) 
J2VwaWtfcHl0aG9uJywgJy1waHQnLCAnMi4wJywgJy1waCcsICc3LjAnLCAnLXRuJywgJzgnLCAnLW1hJywgJzIwMCcsICctaW1hZScsICc8aW5maWxlLm1hZT4nLCAnLW9tYWUnLCAnPG91dGZpbGUubWFlPic=

>  <r_lp_tautomer_probability>  (8) 
0.5

>  <r_epik_Ionization_Penalty>  (8) 
1.05302e-05

>  <r_epik_Ionization_Penalty_Charging>  (8) 
0

>  <r_epik_Ionization_Penalty_Neutral>  (8) 
1.05302e-05

>  <r_epik_State_Penalty>  (8) 
0.41068

>  <r_epik_Charging_Adjusted_Penalty>  (8) 
0.41068

>  <i_epik_Tot_Q>  (8) 
0

>  <i_epik_Tot_abs_Q>  (8) 
0

>  <s_lp_Force_Field>  (8) 
OPLS3e

>  <r_lp_Energy>  (8) 
15.7315

>  <b_lp_Chiralities_Consistent>  (8) 
1

>  <s_lp_Variant>  (8) 
1:0-1

>  <s_i_glide_gridfile>  (8) 
pfpi4k_grid

>  <i_i_glide_lignum>  (8) 
3

>  <i_i_glide_rotatable_bonds>  (8) 
1

>  <r_i_docking_score>  (8) 
-4.07716

>  <r_i_glide_ligand_efficiency>  (8) 
-0.291226

>  <r_i_glide_ligand_efficiency_sa>  (8) 
-0.701896

>  <r_i_glide_ligand_efficiency_ln>  (8) 
-1.12039

>  <r_i_glide_gscore>  (8) 
-4.07716

>  <r_i_glide_lipo>  (8) 
-0.00403101

>  <r_i_glide_hbond>  (8) 
-0.321018

>  <r_i_glide_metal>  (8) 
-0

>  <r_i_glide_rewards>  (8) 
-2.14646

>  <r_i_glide_evdw>  (8) 
-15.8822

>  <r_i_glide_ecoul>  (8) 
-6.94019

>  <r_i_glide_erotb>  (8) 
0.463908

>  <r_i_glide_esite>  (8) 
-0.234417

>  <r_i_glide_emodel>  (8) 
-29.4957

>  <r_i_glide_energy>  (8) 
-22.8224

>  <r_i_glide_einternal>  (8) 
0.184843

>  <r_i_glide_intrahb_reward>  (8) 
-0

>  <i_i_glide_confnum>  (8) 
4

>  <i_i_glide_posenum>  (8) 
3

>  <r_i_glide_eff_state_penalty>  (8) 
0

>  <ligand_id>  (8) 
1

>  <original_smiles>  (8) 
c1cc(-c2ncnc3[nH]ccc23)[nH]n1

>  <smiles>  (8) 
[H]c1nc(-c2c([H])c([H])nn2[H])c2c([H])c([H])n([H])c2n1

$$$$
1:0:2
     RDKit          3D

 21 23  0  0  1  0  0  0  0  0999 V2000
    3.6255   -0.1075    2.1319 C   0  0  0  0  0  0  0  0  0  0  0  0
    3.4873   -0.6915    0.8376 C   0  0  0  0  0  0  0  0  0  0  0  0
    4.7138   -1.2378    0.5826 C   0  0  0  0  0  0  0  0  0  0  0  0
    5.2323   -1.9788   -0.5712 C   0  0  0  0  0  0  0  0  0  0  0  0
    6.5597   -2.2733   -0.5675 N   0  0  0  0  0  0  0  0  0  0  0  0
    7.0628   -2.9958   -1.5719 C   0  0  0  0  0  0  0  0  0  0  0  0
    6.4391   -3.4531   -2.6541 N   0  0  0  0  0  0  0  0  0  0  0  0
    5.1296   -3.1260   -2.6711 C   0  0  0  0  0  0  0  0  0  0  0  0
    4.2237   -3.4345   -3.6606 N   0  0  0  0  0  0  0  0  0  0  0  0
    2.9686   -2.9609   -3.3169 C   0  0  0  0  0  0  0  0  0  0  0  0
    3.0668   -2.3276   -2.1039 C   0  0  0  0  0  0  0  0  0  0  0  0
    4.4352   -2.4003   -1.6747 C   0  0  0  0  0  0  0  0  0  0  0  0
    5.4912   -0.9645    1.6893 N   0  0  0  0  0  0  0  0  0  0  0  0
    4.8364   -0.2715    2.6429 N   0  0  0  0  0  0  0  0  0  0  0  0
    4.4224   -3.9940   -4.4758 H   0  0  0  0  0  0  0  0  0  0  0  0
    6.4565   -1.2388    1.7987 H   0  0  0  0  0  0  0  0  0  0  0  0
    2.8895    0.4391    2.7044 H   0  0  0  0  0  0  0  0  0  0  0  0
    2.6191   -0.6948    0.1958 H   0  0  0  0  0  0  0  0  0  0  0  0
    8.1212   -3.1999   -1.5337 H   0  0  0  0  0  0  0  0  0  0  0  0
    2.1014   -3.1241   -3.9416 H   0  0  0  0  0  0  0  0  0  0  0  0
    2.2592   -1.8679   -1.5771 H   0  0  0  0  0  0  0  0  0  0  0  0
  1 14  2  0
  1  2  1  0
  1 17  1  0
  2  3  2  0
  2 18  1  0
  3  4  1  0
  3 13  1  0
  4 12  1  0
  4  5  2  0
  5  6  1  0
  6  7  2  0
  6 19  1  0
  7  8  1  0
  8 12  2  0
  8  9  1  0
  9 15  1  0
  9 10  1  0
 10 11  2  0
 10 20  1  0
 11 12  1  0
 11 21  1  0
 13 16  1  0
 13 14  1  0
M  END
>  <i_m_ct_stereo_status>  (9) 
1

>  <s_m_source_file>  (9) 
/var/tmp/pbs.5076255.sched01/tmp6yc3ji7b/0haed4tc5.sdf

>  <i_m_source_file_index>  (9) 
3

>  <i_lp_mmshare_version>  (9) 
48012

>  <i_f3d_flags>  (9) 
0

>  <s_epik_input>  (9) 
W25IXTFuW2NIXVtjSF1jMS1jKG5bY0hdbjIpYyhjMjMpW2NIXVtjSF1bbkhdMw==

>  <s_epik_cmdline>  (9) 
J2VwaWtfcHl0aG9uJywgJy1waHQnLCAnMi4wJywgJy1waCcsICc3LjAnLCAnLXRuJywgJzgnLCAnLW1hJywgJzIwMCcsICctaW1hZScsICc8aW5maWxlLm1hZT4nLCAnLW9tYWUnLCAnPG91dGZpbGUubWFlPic=

>  <r_lp_tautomer_probability>  (9) 
0.5

>  <r_epik_Ionization_Penalty>  (9) 
1.05302e-05

>  <r_epik_Ionization_Penalty_Charging>  (9) 
0

>  <r_epik_Ionization_Penalty_Neutral>  (9) 
1.05302e-05

>  <r_epik_State_Penalty>  (9) 
0.41068

>  <r_epik_Charging_Adjusted_Penalty>  (9) 
0.41068

>  <i_epik_Tot_Q>  (9) 
0

>  <i_epik_Tot_abs_Q>  (9) 
0

>  <s_lp_Force_Field>  (9) 
OPLS3e

>  <r_lp_Energy>  (9) 
15.7315

>  <b_lp_Chiralities_Consistent>  (9) 
1

>  <s_lp_Variant>  (9) 
1:0-1

>  <s_i_glide_gridfile>  (9) 
pfpi4k_grid

>  <i_i_glide_lignum>  (9) 
3

>  <i_i_glide_rotatable_bonds>  (9) 
1

>  <r_i_docking_score>  (9) 
-3.4931

>  <r_i_glide_ligand_efficiency>  (9) 
-0.249507

>  <r_i_glide_ligand_efficiency_sa>  (9) 
-0.601347

>  <r_i_glide_ligand_efficiency_ln>  (9) 
-0.95989

>  <r_i_glide_gscore>  (9) 
-3.4931

>  <r_i_glide_lipo>  (9) 
-0.188785

>  <r_i_glide_hbond>  (9) 
-0.0405225

>  <r_i_glide_metal>  (9) 
-0

>  <r_i_glide_rewards>  (9) 
-2.4263

>  <r_i_glide_evdw>  (9) 
-19.8695

>  <r_i_glide_ecoul>  (9) 
-2.02702

>  <r_i_glide_erotb>  (9) 
0.463908

>  <r_i_glide_esite>  (9) 
-0.00387122

>  <r_i_glide_emodel>  (9) 
-27.6678

>  <r_i_glide_energy>  (9) 
-21.8965

>  <r_i_glide_einternal>  (9) 
0.0709182

>  <r_i_glide_intrahb_reward>  (9) 
-0

>  <i_i_glide_confnum>  (9) 
3

>  <i_i_glide_posenum>  (9) 
7

>  <r_i_glide_eff_state_penalty>  (9) 
0

>  <ligand_id>  (9) 
1

>  <original_smiles>  (9) 
c1cc(-c2ncnc3[nH]ccc23)[nH]n1

>  <smiles>  (9) 
[H]c1nc(-c2c([H])c([H])nn2[H])c2c([H])c([H])n([H])c2n1

$$$$
1:1:0
     RDKit          3D

 21 23  0  0  1  0  0  0  0  0999 V2000
    0.4572   -3.7722    5.4341 C   0  0  0  0  0  0  0  0  0  0  0  0
    0.5481   -2.6050    4.7333 C   0  0  0  0  0  0  0  0  0  0  0  0
   -0.3788   -1.7132    5.3609 C   0  0  0  0  0  0  0  0  0  0  0  0
   -0.7072   -0.3106    5.0080 C   0  0  0  0  0  0  0  0  0  0  0  0
   -1.4929    0.3948    5.8673 N   0  0  0  0  0  0  0  0  0  0  0  0
   -1.7878    1.6690    5.5909 C   0  0  0  0  0  0  0  0  0  0  0  0
   -1.4253    2.4047    4.5397 N   0  0  0  0  0  0  0  0  0  0  0  0
   -0.6425    1.6969    3.6759 C   0  0  0  0  0  0  0  0  0  0  0  0
   -0.0921    2.1448    2.4873 N   0  0  0  0  0  0  0  0  0  0  0  0
    0.6367    1.1298    1.8982 C   0  0  0  0  0  0  0  0  0  0  0  0
    0.5842    0.0132    2.6879 C   0  0  0  0  0  0  0  0  0  0  0  0
   -0.2293    0.3393    3.8317 C   0  0  0  0  0  0  0  0  0  0  0  0
   -0.9842   -2.3180    6.3858 N   0  0  0  0  0  0  0  0  0  0  0  0
   -0.4735   -3.5644    6.4196 N   0  0  0  0  0  0  0  0  0  0  0  0
   -0.1859    3.0636    2.0440 H   0  0  0  0  0  0  0  0  0  0  0  0
   -0.7580   -4.2508    7.1066 H   0  0  0  0  0  0  0  0  0  0  0  0
    0.9734   -4.7125    5.3110 H   0  0  0  0  0  0  0  0  0  0  0  0
    1.2016   -2.4375    3.8937 H   0  0  0  0  0  0  0  0  0  0  0  0
   -2.4056    2.1705    6.3206 H   0  0  0  0  0  0  0  0  0  0  0  0
    1.1231    1.2709    0.9450 H   0  0  0  0  0  0  0  0  0  0  0  0
    1.0556   -0.9243    2.4463 H   0  0  0  0  0  0  0  0  0  0  0  0
  1 14  1  0
  1 17  1  0
  1  2  2  0
  2  3  1  0
  2 18  1  0
  3  4  1  0
  3 13  2  0
  4 12  1  0
  4  5  2  0
  5  6  1  0
  6  7  2  0
  6 19  1  0
  7  8  1  0
  8 12  2  0
  8  9  1  0
  9 15  1  0
  9 10  1  0
 10 11  2  0
 10 20  1  0
 11 12  1  0
 11 21  1  0
 13 14  1  0
 14 16  1  0
M  END
>  <i_m_ct_stereo_status>  (10) 
1

>  <s_m_source_file>  (10) 
/var/tmp/pbs.5076255.sched01/tmp6yc3ji7b/0haed4tc5.sdf

>  <i_m_source_file_index>  (10) 
4

>  <i_lp_mmshare_version>  (10) 
48012

>  <i_f3d_flags>  (10) 
0

>  <s_epik_input>  (10) 
W25IXTFuW2NIXVtjSF1jMS1jKG5bY0hdbjIpYyhjMjMpW2NIXVtjSF1bbkhdMw==

>  <s_epik_cmdline>  (10) 
J2VwaWtfcHl0aG9uJywgJy1waHQnLCAnMi4wJywgJy1waCcsICc3LjAnLCAnLXRuJywgJzgnLCAnLW1hJywgJzIwMCcsICctaW1hZScsICc8aW5maWxlLm1hZT4nLCAnLW9tYWUnLCAnPG91dGZpbGUubWFlPic=

>  <r_lp_tautomer_probability>  (10) 
0.5

>  <r_epik_Ionization_Penalty>  (10) 
4.82626e-06

>  <r_epik_Ionization_Penalty_Charging>  (10) 
0

>  <r_epik_Ionization_Penalty_Neutral>  (10) 
4.82626e-06

>  <r_epik_State_Penalty>  (10) 
0.41068

>  <r_epik_Charging_Adjusted_Penalty>  (10) 
0.41068

>  <i_epik_Tot_Q>  (10) 
0

>  <i_epik_Tot_abs_Q>  (10) 
0

>  <s_lp_Force_Field>  (10) 
OPLS3e

>  <r_lp_Energy>  (10) 
18.8466

>  <b_lp_Chiralities_Consistent>  (10) 
1

>  <s_lp_Variant>  (10) 
1:0-2

>  <s_i_glide_gridfile>  (10) 
pfpi4k_grid

>  <i_i_glide_lignum>  (10) 
4

>  <i_i_glide_rotatable_bonds>  (10) 
1

>  <r_i_docking_score>  (10) 
-3.87011

>  <r_i_glide_ligand_efficiency>  (10) 
-0.276437

>  <r_i_glide_ligand_efficiency_sa>  (10) 
-0.666252

>  <r_i_glide_ligand_efficiency_ln>  (10) 
-1.06349

>  <r_i_glide_gscore>  (10) 
-3.87011

>  <r_i_glide_lipo>  (10) 
-0.0221953

>  <r_i_glide_hbond>  (10) 
-0.16

>  <r_i_glide_metal>  (10) 
-0

>  <r_i_glide_rewards>  (10) 
-2.14646

>  <r_i_glide_evdw>  (10) 
-15.0806

>  <r_i_glide_ecoul>  (10) 
-7.19741

>  <r_i_glide_erotb>  (10) 
0.463908

>  <r_i_glide_esite>  (10) 
-0.17172

>  <r_i_glide_emodel>  (10) 
-28.285

>  <r_i_glide_energy>  (10) 
-22.278

>  <r_i_glide_einternal>  (10) 
2.32579

>  <r_i_glide_intrahb_reward>  (10) 
-0

>  <i_i_glide_confnum>  (10) 
5

>  <i_i_glide_posenum>  (10) 
1

>  <r_i_glide_eff_state_penalty>  (10) 
0

>  <ligand_id>  (10) 
1

>  <original_smiles>  (10) 
c1cc(-c2ncnc3[nH]ccc23)[nH]n1

>  <smiles>  (10) 
[H]c1nc(-c2nn([H])c([H])c2[H])c2c([H])c([H])n([H])c2n1

$$$$
1:1:1
     RDKit          3D

 21 23  0  0  1  0  0  0  0  0999 V2000
   -2.9275    3.5626    9.1764 C   0  0  0  0  0  0  0  0  0  0  0  0
   -2.8990    3.3520    7.8274 C   0  0  0  0  0  0  0  0  0  0  0  0
   -2.0891    2.1904    7.6529 C   0  0  0  0  0  0  0  0  0  0  0  0
   -1.7333    1.5036    6.3984 C   0  0  0  0  0  0  0  0  0  0  0  0
   -1.5880    0.1516    6.4358 N   0  0  0  0  0  0  0  0  0  0  0  0
   -1.2537   -0.5071    5.3238 C   0  0  0  0  0  0  0  0  0  0  0  0
   -1.0686   -0.0340    4.0959 N   0  0  0  0  0  0  0  0  0  0  0  0
   -1.2596    1.3153    4.0568 C   0  0  0  0  0  0  0  0  0  0  0  0
   -1.1572    2.1300    2.9508 N   0  0  0  0  0  0  0  0  0  0  0  0
   -1.4075    3.4476    3.2899 C   0  0  0  0  0  0  0  0  0  0  0  0
   -1.6813    3.5117    4.6345 C   0  0  0  0  0  0  0  0  0  0  0  0
   -1.5935    2.1665    5.1450 C   0  0  0  0  0  0  0  0  0  0  0  0
   -1.6324    1.7464    8.8226 N   0  0  0  0  0  0  0  0  0  0  0  0
   -2.1665    2.5711    9.7487 N   0  0  0  0  0  0  0  0  0  0  0  0
   -0.9023    1.8346    2.0190 H   0  0  0  0  0  0  0  0  0  0  0  0
   -2.0092    2.4531   10.7481 H   0  0  0  0  0  0  0  0  0  0  0  0
   -3.4059    4.3274    9.7690 H   0  0  0  0  0  0  0  0  0  0  0  0
   -3.3801    3.9382    7.0640 H   0  0  0  0  0  0  0  0  0  0  0  0
   -1.1318   -1.5711    5.4344 H   0  0  0  0  0  0  0  0  0  0  0  0
   -1.3445    4.2205    2.5339 H   0  0  0  0  0  0  0  0  0  0  0  0
   -1.8980    4.3935    5.2127 H   0  0  0  0  0  0  0  0  0  0  0  0
  1 14  1  0
  1 17  1  0
  1  2  2  0
  2  3  1  0
  2 18  1  0
  3  4  1  0
  3 13  2  0
  4 12  1  0
  4  5  2  0
  5  6  1  0
  6  7  2  0
  6 19  1  0
  7  8  1  0
  8 12  2  0
  8  9  1  0
  9 15  1  0
  9 10  1  0
 10 11  2  0
 10 20  1  0
 11 12  1  0
 11 21  1  0
 13 14  1  0
 14 16  1  0
M  END
>  <i_m_ct_stereo_status>  (11) 
1

>  <s_m_source_file>  (11) 
/var/tmp/pbs.5076255.sched01/tmp6yc3ji7b/0haed4tc5.sdf

>  <i_m_source_file_index>  (11) 
4

>  <i_lp_mmshare_version>  (11) 
48012

>  <i_f3d_flags>  (11) 
0

>  <s_epik_input>  (11) 
W25IXTFuW2NIXVtjSF1jMS1jKG5bY0hdbjIpYyhjMjMpW2NIXVtjSF1bbkhdMw==

>  <s_epik_cmdline>  (11) 
J2VwaWtfcHl0aG9uJywgJy1waHQnLCAnMi4wJywgJy1waCcsICc3LjAnLCAnLXRuJywgJzgnLCAnLW1hJywgJzIwMCcsICctaW1hZScsICc8aW5maWxlLm1hZT4nLCAnLW9tYWUnLCAnPG91dGZpbGUubWFlPic=

>  <r_lp_tautomer_probability>  (11) 
0.5

>  <r_epik_Ionization_Penalty>  (11) 
4.82626e-06

>  <r_epik_Ionization_Penalty_Charging>  (11) 
0

>  <r_epik_Ionization_Penalty_Neutral>  (11) 
4.82626e-06

>  <r_epik_State_Penalty>  (11) 
0.41068

>  <r_epik_Charging_Adjusted_Penalty>  (11) 
0.41068

>  <i_epik_Tot_Q>  (11) 
0

>  <i_epik_Tot_abs_Q>  (11) 
0

>  <s_lp_Force_Field>  (11) 
OPLS3e

>  <r_lp_Energy>  (11) 
18.8466

>  <b_lp_Chiralities_Consistent>  (11) 
1

>  <s_lp_Variant>  (11) 
1:0-2

>  <s_i_glide_gridfile>  (11) 
pfpi4k_grid

>  <i_i_glide_lignum>  (11) 
4

>  <i_i_glide_rotatable_bonds>  (11) 
1

>  <r_i_docking_score>  (11) 
-3.85337

>  <r_i_glide_ligand_efficiency>  (11) 
-0.275241

>  <r_i_glide_ligand_efficiency_sa>  (11) 
-0.663369

>  <r_i_glide_ligand_efficiency_ln>  (11) 
-1.05889

>  <r_i_glide_gscore>  (11) 
-3.85337

>  <r_i_glide_lipo>  (11) 
-0.138727

>  <r_i_glide_hbond>  (11) 
-0.16

>  <r_i_glide_metal>  (11) 
-0

>  <r_i_glide_rewards>  (11) 
-2.14646

>  <r_i_glide_evdw>  (11) 
-16.6283

>  <r_i_glide_ecoul>  (11) 
-5.72578

>  <r_i_glide_erotb>  (11) 
0.463908

>  <r_i_glide_esite>  (11) 
-0.181807

>  <r_i_glide_emodel>  (11) 
-28.1992

>  <r_i_glide_energy>  (11) 
-22.3541

>  <r_i_glide_einternal>  (11) 
2.5868

>  <r_i_glide_intrahb_reward>  (11) 
-0

>  <i_i_glide_confnum>  (11) 
2

>  <i_i_glide_posenum>  (11) 
13

>  <r_i_glide_eff_state_penalty>  (11) 
0

>  <ligand_id>  (11) 
1

>  <original_smiles>  (11) 
c1cc(-c2ncnc3[nH]ccc23)[nH]n1

>  <smiles>  (11) 
[H]c1nc(-c2nn([H])c([H])c2[H])c2c([H])c([H])n([H])c2n1

$$$$
1:1:2
     RDKit          3D

 21 23  0  0  1  0  0  0  0  0999 V2000
    3.4219   -0.8740   -4.5047 C   0  0  0  0  0  0  0  0  0  0  0  0
    3.6664   -2.0481   -3.8490 C   0  0  0  0  0  0  0  0  0  0  0  0
    4.2182   -1.6469   -2.5914 C   0  0  0  0  0  0  0  0  0  0  0  0
    4.6509   -2.5012   -1.4673 C   0  0  0  0  0  0  0  0  0  0  0  0
    4.6456   -3.8336   -1.6908 N   0  0  0  0  0  0  0  0  0  0  0  0
    5.0117   -4.6715   -0.7212 C   0  0  0  0  0  0  0  0  0  0  0  0
    5.4313   -4.3911    0.5099 N   0  0  0  0  0  0  0  0  0  0  0  0
    5.4392   -3.0501    0.7282 C   0  0  0  0  0  0  0  0  0  0  0  0
    5.8124   -2.4172    1.8894 N   0  0  0  0  0  0  0  0  0  0  0  0
    5.6903   -1.0440    1.7515 C   0  0  0  0  0  0  0  0  0  0  0  0
    5.2255   -0.7715    0.4910 C   0  0  0  0  0  0  0  0  0  0  0  0
    5.0679   -2.0305   -0.1904 C   0  0  0  0  0  0  0  0  0  0  0  0
    4.3202   -0.3271   -2.5171 N   0  0  0  0  0  0  0  0  0  0  0  0
    3.8139    0.1374   -3.6667 N   0  0  0  0  0  0  0  0  0  0  0  0
    6.1176   -2.8896    2.7266 H   0  0  0  0  0  0  0  0  0  0  0  0
    3.7032    1.1307   -3.8420 H   0  0  0  0  0  0  0  0  0  0  0  0
    3.0048   -0.6611   -5.4769 H   0  0  0  0  0  0  0  0  0  0  0  0
    3.4613   -3.0483   -4.2059 H   0  0  0  0  0  0  0  0  0  0  0  0
    4.9807   -5.7177   -0.9809 H   0  0  0  0  0  0  0  0  0  0  0  0
    5.9340   -0.3708    2.5611 H   0  0  0  0  0  0  0  0  0  0  0  0
    5.0053    0.1961    0.0786 H   0  0  0  0  0  0  0  0  0  0  0  0
  1 14  1  0
  1 17  1  0
  1  2  2  0
  2  3  1  0
  2 18  1  0
  3  4  1  0
  3 13  2  0
  4 12  1  0
  4  5  2  0
  5  6  1  0
  6  7  2  0
  6 19  1  0
  7  8  1  0
  8 12  2  0
  8  9  1  0
  9 15  1  0
  9 10  1  0
 10 11  2  0
 10 20  1  0
 11 12  1  0
 11 21  1  0
 13 14  1  0
 14 16  1  0
M  END
>  <i_m_ct_stereo_status>  (12) 
1

>  <s_m_source_file>  (12) 
/var/tmp/pbs.5076255.sched01/tmp6yc3ji7b/0haed4tc5.sdf

>  <i_m_source_file_index>  (12) 
4

>  <i_lp_mmshare_version>  (12) 
48012

>  <i_f3d_flags>  (12) 
0

>  <s_epik_input>  (12) 
W25IXTFuW2NIXVtjSF1jMS1jKG5bY0hdbjIpYyhjMjMpW2NIXVtjSF1bbkhdMw==

>  <s_epik_cmdline>  (12) 
J2VwaWtfcHl0aG9uJywgJy1waHQnLCAnMi4wJywgJy1waCcsICc3LjAnLCAnLXRuJywgJzgnLCAnLW1hJywgJzIwMCcsICctaW1hZScsICc8aW5maWxlLm1hZT4nLCAnLW9tYWUnLCAnPG91dGZpbGUubWFlPic=

>  <r_lp_tautomer_probability>  (12) 
0.5

>  <r_epik_Ionization_Penalty>  (12) 
4.82626e-06

>  <r_epik_Ionization_Penalty_Charging>  (12) 
0

>  <r_epik_Ionization_Penalty_Neutral>  (12) 
4.82626e-06

>  <r_epik_State_Penalty>  (12) 
0.41068

>  <r_epik_Charging_Adjusted_Penalty>  (12) 
0.41068

>  <i_epik_Tot_Q>  (12) 
0

>  <i_epik_Tot_abs_Q>  (12) 
0

>  <s_lp_Force_Field>  (12) 
OPLS3e

>  <r_lp_Energy>  (12) 
18.8466

>  <b_lp_Chiralities_Consistent>  (12) 
1

>  <s_lp_Variant>  (12) 
1:0-2

>  <s_i_glide_gridfile>  (12) 
pfpi4k_grid

>  <i_i_glide_lignum>  (12) 
4

>  <i_i_glide_rotatable_bonds>  (12) 
1

>  <r_i_docking_score>  (12) 
-3.41025

>  <r_i_glide_ligand_efficiency>  (12) 
-0.243589

>  <r_i_glide_ligand_efficiency_sa>  (12) 
-0.587084

>  <r_i_glide_ligand_efficiency_ln>  (12) 
-0.937124

>  <r_i_glide_gscore>  (12) 
-3.41025

>  <r_i_glide_lipo>  (12) 
-0.451817

>  <r_i_glide_hbond>  (12) 
-0.0485952

>  <r_i_glide_metal>  (12) 
-0

>  <r_i_glide_rewards>  (12) 
-2.21239

>  <r_i_glide_evdw>  (12) 
-20.8195

>  <r_i_glide_ecoul>  (12) 
-0.786503

>  <r_i_glide_erotb>  (12) 
0.463908

>  <r_i_glide_esite>  (12) 
-0.00240457

>  <r_i_glide_emodel>  (12) 
-27.9119

>  <r_i_glide_energy>  (12) 
-21.606

>  <r_i_glide_einternal>  (12) 
0.075453

>  <r_i_glide_intrahb_reward>  (12) 
-0

>  <i_i_glide_confnum>  (12) 
1

>  <i_i_glide_posenum>  (12) 
12

>  <r_i_glide_eff_state_penalty>  (12) 
0

>  <ligand_id>  (12) 
1

>  <original_smiles>  (12) 
c1cc(-c2ncnc3[nH]ccc23)[nH]n1

>  <smiles>  (12) 
[H]c1nc(-c2nn([H])c([H])c2[H])c2c([H])c([H])n([H])c2n1

$$$$
2:0:0
     RDKit          3D

 31 32  0  0  1  0  0  0  0  0999 V2000
    0.3387   -8.0697    2.5310 C   0  0  0  0  0  0  0  0  0  0  0  0
    1.0421   -7.0325    1.6716 C   0  0  0  0  0  0  0  0  0  0  0  0
    0.5080   -6.6223    0.6413 O   0  0  0  0  0  0  0  0  0  0  0  0
    2.2663   -6.7086    2.1652 O   0  0  0  0  0  0  0  0  0  0  0  0
    3.1542   -5.8941    1.4867 C   0  0  0  0  0  0  0  0  0  0  0  0
    2.8335   -4.9338    0.5946 C   0  0  0  0  0  0  0  0  0  0  0  0
    3.8392   -4.2263   -0.1700 C   0  0  0  0  0  0  0  0  0  0  0  0
    3.4753   -3.3458   -1.1113 C   0  0  0  0  0  0  0  0  0  0  0  0
    4.4402   -2.5716   -1.9904 C   0  0  0  0  0  0  0  0  0  0  0  0
    4.1594   -2.9075   -3.4658 C   0  0  0  0  0  0  0  0  0  0  0  0
    4.2208   -1.0719   -1.7269 C   0  0  0  0  0  0  0  0  0  0  0  0
    5.8864   -2.9355   -1.6524 C   0  0  0  0  0  0  0  0  0  0  0  0
    6.2408   -3.8136   -0.7075 C   0  0  0  0  0  0  0  0  0  0  0  0
    5.2499   -4.5213    0.0718 C   0  0  0  0  0  0  0  0  0  0  0  0
    5.6054   -5.4331    0.9924 C   0  0  0  0  0  0  0  0  0  0  0  0
    4.5931   -6.1824    1.7788 C   0  0  0  0  0  0  0  0  0  0  0  0
    4.9253   -6.9958    2.6230 O   0  0  0  0  0  0  0  0  0  0  0  0
    0.1208   -7.6789    3.5236 H   0  0  0  0  0  0  0  0  0  0  0  0
    0.9749   -8.9471    2.6196 H   0  0  0  0  0  0  0  0  0  0  0  0
   -0.5898   -8.3642    2.0476 H   0  0  0  0  0  0  0  0  0  0  0  0
    1.8127   -4.6596    0.3886 H   0  0  0  0  0  0  0  0  0  0  0  0
    2.4277   -3.1653   -1.2921 H   0  0  0  0  0  0  0  0  0  0  0  0
    4.3150   -3.9742   -3.6543 H   0  0  0  0  0  0  0  0  0  0  0  0
    4.8270   -2.3509   -4.1201 H   0  0  0  0  0  0  0  0  0  0  0  0
    3.1336   -2.6697   -3.7570 H   0  0  0  0  0  0  0  0  0  0  0  0
    4.4022   -0.8432   -0.6730 H   0  0  0  0  0  0  0  0  0  0  0  0
    3.1935   -0.7653   -1.9502 H   0  0  0  0  0  0  0  0  0  0  0  0
    4.8959   -0.4528   -2.3203 H   0  0  0  0  0  0  0  0  0  0  0  0
    6.6414   -2.4289   -2.2323 H   0  0  0  0  0  0  0  0  0  0  0  0
    7.2895   -4.0125   -0.5397 H   0  0  0  0  0  0  0  0  0  0  0  0
    6.6533   -5.6694    1.1840 H   0  0  0  0  0  0  0  0  0  0  0  0
  1  2  1  0
  1 18  1  0
  1 19  1  0
  1 20  1  0
  2  3  2  0
  2  4  1  0
  4  5  1  0
  5 16  1  0
  5  6  2  0
  6  7  1  0
  6 21  1  0
  7 14  1  0
  7  8  2  0
  8  9  1  0
  8 22  1  0
  9 10  1  0
  9 11  1  0
  9 12  1  0
 10 23  1  0
 10 24  1  0
 10 25  1  0
 11 26  1  0
 11 27  1  0
 11 28  1  0
 12 13  2  0
 12 29  1  0
 13 14  1  0
 13 30  1  0
 14 15  2  0
 15 16  1  0
 15 31  1  0
 16 17  2  0
M  END
>  <i_m_ct_stereo_status>  (13) 
1

>  <s_m_source_file>  (13) 
/var/tmp/pbs.5076255.sched01/tmp6yc3ji7b/0haed4tc5.sdf

>  <i_m_source_file_index>  (13) 
5

>  <i_lp_mmshare_version>  (13) 
48012

>  <i_f3d_flags>  (13) 
0

>  <s_epik_input>  (13) 
W0NIM11DKD1PKU9DKD1bQ0hdMSlDKD1PKVtDSF09QyhDMT0yKVtDSF09W0NIXUMoW0NIXTIpKFtDSDNdKVtDSDNd

>  <s_epik_cmdline>  (13) 
J2VwaWtfcHl0aG9uJywgJy1waHQnLCAnMi4wJywgJy1waCcsICc3LjAnLCAnLXRuJywgJzgnLCAnLW1hJywgJzIwMCcsICctaW1hZScsICc8aW5maWxlLm1hZT4nLCAnLW9tYWUnLCAnPG91dGZpbGUubWFlPic=

>  <r_lp_tautomer_probability>  (13) 
1

>  <r_epik_Ionization_Penalty>  (13) 
0

>  <r_epik_Ionization_Penalty_Charging>  (13) 
0

>  <r_epik_Ionization_Penalty_Neutral>  (13) 
0

>  <r_epik_State_Penalty>  (13) 
-0

>  <r_epik_Charging_Adjusted_Penalty>  (13) 
0

>  <i_epik_Tot_Q>  (13) 
0

>  <i_epik_Tot_abs_Q>  (13) 
0

>  <s_lp_Force_Field>  (13) 
OPLS3e

>  <r_lp_Energy>  (13) 
28.7996

>  <b_lp_Chiralities_Consistent>  (13) 
1

>  <s_lp_Variant>  (13) 
2:0-1

>  <s_i_glide_gridfile>  (13) 
pfpi4k_grid

>  <i_i_glide_lignum>  (13) 
5

>  <i_i_glide_rotatable_bonds>  (13) 
2

>  <r_i_docking_score>  (13) 
-3.7943

>  <r_i_glide_ligand_efficiency>  (13) 
-0.223194

>  <r_i_glide_ligand_efficiency_sa>  (13) 
-0.573895

>  <r_i_glide_ligand_efficiency_ln>  (13) 
-0.989849

>  <r_i_glide_gscore>  (13) 
-3.7943

>  <r_i_glide_lipo>  (13) 
-0.508748

>  <r_i_glide_hbond>  (13) 
-0.17591

>  <r_i_glide_metal>  (13) 
-0

>  <r_i_glide_rewards>  (13) 
-1.89404

>  <r_i_glide_evdw>  (13) 
-24.2064

>  <r_i_glide_ecoul>  (13) 
-1.79734

>  <r_i_glide_erotb>  (13) 
0.322177

>  <r_i_glide_esite>  (13) 
-0.057855

>  <r_i_glide_emodel>  (13) 
-31.146

>  <r_i_glide_energy>  (13) 
-26.0038

>  <r_i_glide_einternal>  (13) 
1.16492

>  <r_i_glide_intrahb_reward>  (13) 
-0

>  <i_i_glide_confnum>  (13) 
4

>  <i_i_glide_posenum>  (13) 
29

>  <r_i_glide_eff_state_penalty>  (13) 
0

>  <ligand_id>  (13) 
2

>  <original_smiles>  (13) 
CC(=O)OC1=CC2=CC(C)(C)C=CC2=CC1=O

>  <smiles>  (13) 
[H]C1=C(OC(=O)C([H])([H])[H])C(=O)C([H])=C2C([H])=C([H])C(C([H])([H])[H])(C([H])([H])[H])C([H])=C12

$$$$
2:0:1
     RDKit          3D

 31 32  0  0  1  0  0  0  0  0999 V2000
    0.9362   -7.1588    3.6212 C   0  0  0  0  0  0  0  0  0  0  0  0
    1.4675   -6.4318    2.3958 C   0  0  0  0  0  0  0  0  0  0  0  0
    0.7579   -6.2953    1.3951 O   0  0  0  0  0  0  0  0  0  0  0  0
    2.7522   -6.0154    2.5634 O   0  0  0  0  0  0  0  0  0  0  0  0
    3.4402   -5.3428    1.5825 C   0  0  0  0  0  0  0  0  0  0  0  0
    2.8798   -4.4978    0.6761 C   0  0  0  0  0  0  0  0  0  0  0  0
    3.6537   -3.9139   -0.3991 C   0  0  0  0  0  0  0  0  0  0  0  0
    3.0585   -3.1526   -1.3324 C   0  0  0  0  0  0  0  0  0  0  0  0
    3.7686   -2.5233   -2.5221 C   0  0  0  0  0  0  0  0  0  0  0  0
    3.1390   -3.0329   -3.8309 C   0  0  0  0  0  0  0  0  0  0  0  0
    3.6381   -1.0006   -2.4070 C   0  0  0  0  0  0  0  0  0  0  0  0
    5.2480   -2.8791   -2.5053 C   0  0  0  0  0  0  0  0  0  0  0  0
    5.8372   -3.6324   -1.5683 C   0  0  0  0  0  0  0  0  0  0  0  0
    5.0805   -4.2058   -0.4805 C   0  0  0  0  0  0  0  0  0  0  0  0
    5.6745   -5.0056    0.4343 C   0  0  0  0  0  0  0  0  0  0  0  0
    4.9009   -5.6235    1.5325 C   0  0  0  0  0  0  0  0  0  0  0  0
    5.4531   -6.3408    2.3659 O   0  0  0  0  0  0  0  0  0  0  0  0
    0.9014   -6.4950    4.4871 H   0  0  0  0  0  0  0  0  0  0  0  0
    1.5858   -8.0064    3.8427 H   0  0  0  0  0  0  0  0  0  0  0  0
   -0.0650   -7.5313    3.4131 H   0  0  0  0  0  0  0  0  0  0  0  0
    1.8286   -4.2457    0.7199 H   0  0  0  0  0  0  0  0  0  0  0  0
    1.9987   -2.9719   -1.2701 H   0  0  0  0  0  0  0  0  0  0  0  0
    3.2491   -4.1168   -3.9214 H   0  0  0  0  0  0  0  0  0  0  0  0
    3.6191   -2.5799   -4.6993 H   0  0  0  0  0  0  0  0  0  0  0  0
    2.0729   -2.8031   -3.8824 H   0  0  0  0  0  0  0  0  0  0  0  0
    4.0815   -0.6572   -1.4682 H   0  0  0  0  0  0  0  0  0  0  0  0
    2.5943   -0.6868   -2.4008 H   0  0  0  0  0  0  0  0  0  0  0  0
    4.1398   -0.4822   -3.2251 H   0  0  0  0  0  0  0  0  0  0  0  0
    5.8265   -2.4789   -3.3183 H   0  0  0  0  0  0  0  0  0  0  0  0
    6.8930   -3.8340   -1.6485 H   0  0  0  0  0  0  0  0  0  0  0  0
    6.7317   -5.2390    0.3738 H   0  0  0  0  0  0  0  0  0  0  0  0
  1  2  1  0
  1 18  1  0
  1 19  1  0
  1 20  1  0
  2  3  2  0
  2  4  1  0
  4  5  1  0
  5 16  1  0
  5  6  2  0
  6  7  1  0
  6 21  1  0
  7 14  1  0
  7  8  2  0
  8  9  1  0
  8 22  1  0
  9 10  1  0
  9 11  1  0
  9 12  1  0
 10 23  1  0
 10 24  1  0
 10 25  1  0
 11 26  1  0
 11 27  1  0
 11 28  1  0
 12 13  2  0
 12 29  1  0
 13 14  1  0
 13 30  1  0
 14 15  2  0
 15 16  1  0
 15 31  1  0
 16 17  2  0
M  END
>  <i_m_ct_stereo_status>  (14) 
1

>  <s_m_source_file>  (14) 
/var/tmp/pbs.5076255.sched01/tmp6yc3ji7b/0haed4tc5.sdf

>  <i_m_source_file_index>  (14) 
5

>  <i_lp_mmshare_version>  (14) 
48012

>  <i_f3d_flags>  (14) 
0

>  <s_epik_input>  (14) 
W0NIM11DKD1PKU9DKD1bQ0hdMSlDKD1PKVtDSF09QyhDMT0yKVtDSF09W0NIXUMoW0NIXTIpKFtDSDNdKVtDSDNd

>  <s_epik_cmdline>  (14) 
J2VwaWtfcHl0aG9uJywgJy1waHQnLCAnMi4wJywgJy1waCcsICc3LjAnLCAnLXRuJywgJzgnLCAnLW1hJywgJzIwMCcsICctaW1hZScsICc8aW5maWxlLm1hZT4nLCAnLW9tYWUnLCAnPG91dGZpbGUubWFlPic=

>  <r_lp_tautomer_probability>  (14) 
1

>  <r_epik_Ionization_Penalty>  (14) 
0

>  <r_epik_Ionization_Penalty_Charging>  (14) 
0

>  <r_epik_Ionization_Penalty_Neutral>  (14) 
0

>  <r_epik_State_Penalty>  (14) 
-0

>  <r_epik_Charging_Adjusted_Penalty>  (14) 
0

>  <i_epik_Tot_Q>  (14) 
0

>  <i_epik_Tot_abs_Q>  (14) 
0

>  <s_lp_Force_Field>  (14) 
OPLS3e

>  <r_lp_Energy>  (14) 
28.7996

>  <b_lp_Chiralities_Consistent>  (14) 
1

>  <s_lp_Variant>  (14) 
2:0-1

>  <s_i_glide_gridfile>  (14) 
pfpi4k_grid

>  <i_i_glide_lignum>  (14) 
5

>  <i_i_glide_rotatable_bonds>  (14) 
2

>  <r_i_docking_score>  (14) 
-3.77756

>  <r_i_glide_ligand_efficiency>  (14) 
-0.222209

>  <r_i_glide_ligand_efficiency_sa>  (14) 
-0.571363

>  <r_i_glide_ligand_efficiency_ln>  (14) 
-0.985481

>  <r_i_glide_gscore>  (14) 
-3.77756

>  <r_i_glide_lipo>  (14) 
-0.625984

>  <r_i_glide_hbond>  (14) 
-0.16

>  <r_i_glide_metal>  (14) 
-0

>  <r_i_glide_rewards>  (14) 
-1.89932

>  <r_i_glide_evdw>  (14) 
-22.1136

>  <r_i_glide_ecoul>  (14) 
-1.8328

>  <r_i_glide_erotb>  (14) 
0.322177

>  <r_i_glide_esite>  (14) 
-0.0338323

>  <r_i_glide_emodel>  (14) 
-29.5113

>  <r_i_glide_energy>  (14) 
-23.9464

>  <r_i_glide_einternal>  (14) 
0.404742

>  <r_i_glide_intrahb_reward>  (14) 
-0

>  <i_i_glide_confnum>  (14) 
4

>  <i_i_glide_posenum>  (14) 
13

>  <r_i_glide_eff_state_penalty>  (14) 
0

>  <ligand_id>  (14) 
2

>  <original_smiles>  (14) 
CC(=O)OC1=CC2=CC(C)(C)C=CC2=CC1=O

>  <smiles>  (14) 
[H]C1=C(OC(=O)C([H])([H])[H])C(=O)C([H])=C2C([H])=C([H])C(C([H])([H])[H])(C([H])([H])[H])C([H])=C12

$$$$
2:0:2
     RDKit          3D

 31 32  0  0  1  0  0  0  0  0999 V2000
   -1.4723   -4.4254    7.0365 C   0  0  0  0  0  0  0  0  0  0  0  0
   -0.4591   -4.1464    8.1668 C   0  0  0  0  0  0  0  0  0  0  0  0
   -0.5337   -3.0889    8.7931 O   0  0  0  0  0  0  0  0  0  0  0  0
    0.4506   -5.1477    8.5040 O   0  0  0  0  0  0  0  0  0  0  0  0
    0.5960   -6.2885    7.7408 C   0  0  0  0  0  0  0  0  0  0  0  0
    0.6505   -6.3036    6.3802 C   0  0  0  0  0  0  0  0  0  0  0  0
    0.5446   -7.4934    5.6059 C   0  0  0  0  0  0  0  0  0  0  0  0
    0.4135   -7.4307    4.2642 C   0  0  0  0  0  0  0  0  0  0  0  0
    0.4222   -8.6362    3.3372 C   0  0  0  0  0  0  0  0  0  0  0  0
   -0.8958   -8.6840    2.5350 C   0  0  0  0  0  0  0  0  0  0  0  0
    1.6460   -8.5268    2.3999 C   0  0  0  0  0  0  0  0  0  0  0  0
    0.5577   -9.9190    4.1552 C   0  0  0  0  0  0  0  0  0  0  0  0
    0.6248   -9.9620    5.4967 C   0  0  0  0  0  0  0  0  0  0  0  0
    0.6019   -8.7707    6.2933 C   0  0  0  0  0  0  0  0  0  0  0  0
    0.6556   -8.8177    7.6433 C   0  0  0  0  0  0  0  0  0  0  0  0
    0.6266   -7.5852    8.4579 C   0  0  0  0  0  0  0  0  0  0  0  0
    0.6391   -7.6241    9.6869 O   0  0  0  0  0  0  0  0  0  0  0  0
   -1.9135   -5.4178    7.1835 H   0  0  0  0  0  0  0  0  0  0  0  0
   -0.9527   -4.4304    6.0502 H   0  0  0  0  0  0  0  0  0  0  0  0
   -2.2055   -3.6430    6.8841 H   0  0  0  0  0  0  0  0  0  0  0  0
    0.7344   -5.3803    5.8217 H   0  0  0  0  0  0  0  0  0  0  0  0
    0.3368   -6.4696    3.7721 H   0  0  0  0  0  0  0  0  0  0  0  0
   -1.7480   -8.7639    3.2106 H   0  0  0  0  0  0  0  0  0  0  0  0
   -0.9407   -9.5477    1.8743 H   0  0  0  0  0  0  0  0  0  0  0  0
   -1.0437   -7.7922    1.9271 H   0  0  0  0  0  0  0  0  0  0  0  0
    2.5702   -8.4943    2.9807 H   0  0  0  0  0  0  0  0  0  0  0  0
    1.6272   -7.6250    1.7885 H   0  0  0  0  0  0  0  0  0  0  0  0
    1.7295   -9.3808    1.7297 H   0  0  0  0  0  0  0  0  0  0  0  0
    0.5789  -10.8426    3.6120 H   0  0  0  0  0  0  0  0  0  0  0  0
    0.7044  -10.9228    5.9997 H   0  0  0  0  0  0  0  0  0  0  0  0
    0.7447   -9.7711    8.1582 H   0  0  0  0  0  0  0  0  0  0  0  0
  1  2  1  0
  1 18  1  0
  1 19  1  0
  1 20  1  0
  2  3  2  0
  2  4  1  0
  4  5  1  0
  5 16  1  0
  5  6  2  0
  6  7  1  0
  6 21  1  0
  7 14  1  0
  7  8  2  0
  8  9  1  0
  8 22  1  0
  9 10  1  0
  9 11  1  0
  9 12  1  0
 10 23  1  0
 10 24  1  0
 10 25  1  0
 11 26  1  0
 11 27  1  0
 11 28  1  0
 12 13  2  0
 12 29  1  0
 13 14  1  0
 13 30  1  0
 14 15  2  0
 15 16  1  0
 15 31  1  0
 16 17  2  0
M  END
>  <i_m_ct_stereo_status>  (15) 
1

>  <s_m_source_file>  (15) 
/var/tmp/pbs.5076255.sched01/tmp6yc3ji7b/0haed4tc5.sdf

>  <i_m_source_file_index>  (15) 
5

>  <i_lp_mmshare_version>  (15) 
48012

>  <i_f3d_flags>  (15) 
0

>  <s_epik_input>  (15) 
W0NIM11DKD1PKU9DKD1bQ0hdMSlDKD1PKVtDSF09QyhDMT0yKVtDSF09W0NIXUMoW0NIXTIpKFtDSDNdKVtDSDNd

>  <s_epik_cmdline>  (15) 
J2VwaWtfcHl0aG9uJywgJy1waHQnLCAnMi4wJywgJy1waCcsICc3LjAnLCAnLXRuJywgJzgnLCAnLW1hJywgJzIwMCcsICctaW1hZScsICc8aW5maWxlLm1hZT4nLCAnLW9tYWUnLCAnPG91dGZpbGUubWFlPic=

>  <r_lp_tautomer_probability>  (15) 
1

>  <r_epik_Ionization_Penalty>  (15) 
0

>  <r_epik_Ionization_Penalty_Charging>  (15) 
0

>  <r_epik_Ionization_Penalty_Neutral>  (15) 
0

>  <r_epik_State_Penalty>  (15) 
-0

>  <r_epik_Charging_Adjusted_Penalty>  (15) 
0

>  <i_epik_Tot_Q>  (15) 
0

>  <i_epik_Tot_abs_Q>  (15) 
0

>  <s_lp_Force_Field>  (15) 
OPLS3e

>  <r_lp_Energy>  (15) 
28.7996

>  <b_lp_Chiralities_Consistent>  (15) 
1

>  <s_lp_Variant>  (15) 
2:0-1

>  <s_i_glide_gridfile>  (15) 
pfpi4k_grid

>  <i_i_glide_lignum>  (15) 
5

>  <i_i_glide_rotatable_bonds>  (15) 
2

>  <r_i_docking_score>  (15) 
-3.25799

>  <r_i_glide_ligand_efficiency>  (15) 
-0.191647

>  <r_i_glide_ligand_efficiency_sa>  (15) 
-0.492778

>  <r_i_glide_ligand_efficiency_ln>  (15) 
-0.849938

>  <r_i_glide_gscore>  (15) 
-3.25799

>  <r_i_glide_lipo>  (15) 
-0.0385563

>  <r_i_glide_hbond>  (15) 
-0.16

>  <r_i_glide_metal>  (15) 
-0

>  <r_i_glide_rewards>  (15) 
-1.83914

>  <r_i_glide_evdw>  (15) 
-18.7677

>  <r_i_glide_ecoul>  (15) 
-3.67488

>  <r_i_glide_erotb>  (15) 
0.322177

>  <r_i_glide_esite>  (15) 
-0.0528576

>  <r_i_glide_emodel>  (15) 
-23.313

>  <r_i_glide_energy>  (15) 
-22.4425

>  <r_i_glide_einternal>  (15) 
4.68521

>  <r_i_glide_intrahb_reward>  (15) 
-0

>  <i_i_glide_confnum>  (15) 
2

>  <i_i_glide_posenum>  (15) 
36

>  <r_i_glide_eff_state_penalty>  (15) 
0

>  <ligand_id>  (15) 
2

>  <original_smiles>  (15) 
CC(=O)OC1=CC2=CC(C)(C)C=CC2=CC1=O

>  <smiles>  (15) 
[H]C1=C(OC(=O)C([H])([H])[H])C(=O)C([H])=C2C([H])=C([H])C(C([H])([H])[H])(C([H])([H])[H])C([H])=C12

$$$$
3:0:0
     RDKit          3D

 35 38  0  0  1  0  0  0  0  0999 V2000
   -0.4452   -9.0716    2.8821 C   0  0  0  0  0  0  0  0  0  0  0  0
   -0.7731   -7.8676    2.2357 C   0  0  0  0  0  0  0  0  0  0  0  0
    0.1672   -7.0127    1.7711 N   0  0  0  0  0  0  0  0  0  0  0  0
    1.4455   -7.3789    1.9380 C   0  0  0  0  0  0  0  0  0  0  0  0
    2.4396   -6.5173    1.4760 N   0  0  0  0  0  0  0  0  0  0  0  0
    2.2142   -5.4507    0.4997 C   0  0  0  0  0  0  0  0  0  0  0  0
    2.6161   -4.0655    1.0685 C   0  0  0  0  0  0  0  0  0  0  0  0
    3.9478   -4.1068    1.6518 N   0  0  0  0  0  0  0  0  0  0  0  0
    4.9870   -3.3187    1.1182 C   0  0  0  0  0  0  0  0  0  0  0  0
    4.7099   -2.0144    0.8802 N   0  0  0  0  0  0  0  0  0  0  0  0
    5.6668   -1.2089    0.4241 C   0  0  0  0  0  0  0  0  0  0  0  0
    6.9309   -1.5127    0.1277 N   0  0  0  0  0  0  0  0  0  0  0  0
    7.2101   -2.8303    0.3511 C   0  0  0  0  0  0  0  0  0  0  0  0
    8.8033   -3.5206    0.0689 S   0  0  0  0  0  0  0  0  0  0  0  0
    8.2438   -5.0852    0.5800 C   0  0  0  0  0  0  0  0  0  0  0  0
    6.9244   -5.1222    0.9406 C   0  0  0  0  0  0  0  0  0  0  0  0
    6.2968   -3.8147    0.8442 C   0  0  0  0  0  0  0  0  0  0  0  0
    4.2080   -5.1979    2.5890 C   0  0  0  0  0  0  0  0  0  0  0  0
    3.8113   -6.5656    1.9808 C   0  0  0  0  0  0  0  0  0  0  0  0
    1.8580   -8.5022    2.5330 N   0  0  0  0  0  0  0  0  0  0  0  0
    0.9249   -9.3533    3.0004 C   0  0  0  0  0  0  0  0  0  0  0  0
   -1.1953   -9.7518    3.2627 H   0  0  0  0  0  0  0  0  0  0  0  0
   -1.8026   -7.5680    2.0979 H   0  0  0  0  0  0  0  0  0  0  0  0
    2.8373   -5.6666   -0.3641 H   0  0  0  0  0  0  0  0  0  0  0  0
    1.1884   -5.4590    0.1310 H   0  0  0  0  0  0  0  0  0  0  0  0
    2.5294   -3.2952    0.2978 H   0  0  0  0  0  0  0  0  0  0  0  0
    1.9206   -3.7944    1.8663 H   0  0  0  0  0  0  0  0  0  0  0  0
    5.3783   -0.1783    0.2892 H   0  0  0  0  0  0  0  0  0  0  0  0
    8.9062   -5.9378    0.5899 H   0  0  0  0  0  0  0  0  0  0  0  0
    6.4317   -6.0266    1.2588 H   0  0  0  0  0  0  0  0  0  0  0  0
    5.2402   -5.1910    2.9401 H   0  0  0  0  0  0  0  0  0  0  0  0
    3.6007   -5.0154    3.4776 H   0  0  0  0  0  0  0  0  0  0  0  0
    3.9648   -7.3327    2.7414 H   0  0  0  0  0  0  0  0  0  0  0  0
    4.4422   -6.8453    1.1348 H   0  0  0  0  0  0  0  0  0  0  0  0
    1.2828  -10.2520    3.4824 H   0  0  0  0  0  0  0  0  0  0  0  0
  1 21  2  0
  1  2  1  0
  1 22  1  0
  2  3  2  0
  2 23  1  0
  3  4  1  0
  4  5  1  0
  4 20  2  0
  5 19  1  0
  5  6  1  0
  6  7  1  0
  6 24  1  0
  6 25  1  0
  7  8  1  0
  7 26  1  0
  7 27  1  0
  8  9  1  0
  8 18  1  0
  9 17  1  0
  9 10  2  0
 10 11  1  0
 11 12  2  0
 11 28  1  0
 12 13  1  0
 13 17  2  0
 13 14  1  0
 14 15  1  0
 15 16  2  0
 15 29  1  0
 16 17  1  0
 16 30  1  0
 18 19  1  0
 18 31  1  0
 18 32  1  0
 19 33  1  0
 19 34  1  0
 20 21  1  0
 21 35  1  0
M  END
>  <i_m_ct_stereo_status>  (16) 
1

>  <s_m_source_file>  (16) 
/var/tmp/pbs.5076255.sched01/tmp6yc3ji7b/0haed4tc5.sdf

>  <i_m_source_file_index>  (16) 
6

>  <i_lp_mmshare_version>  (16) 
48012

>  <i_f3d_flags>  (16) 
0

>  <s_epik_input>  (16) 
bjFbY0hdW2NIXVtjSF1uYzFOMltDSDJdW0NIMl1OKFtDSDJdW0NIMl0yKWMobltjSF1uMyljKGMzNClbY0hdW2NIXXM0

>  <s_epik_cmdline>  (16) 
J2VwaWtfcHl0aG9uJywgJy1waHQnLCAnMi4wJywgJy1waCcsICc3LjAnLCAnLXRuJywgJzgnLCAnLW1hJywgJzIwMCcsICctaW1hZScsICc8aW5maWxlLm1hZT4nLCAnLW9tYWUnLCAnPG91dGZpbGUubWFlPic=

>  <r_lp_tautomer_probability>  (16) 
1

>  <r_epik_Ionization_Penalty>  (16) 
0.00177555

>  <r_epik_Ionization_Penalty_Charging>  (16) 
0

>  <r_epik_Ionization_Penalty_Neutral>  (16) 
0.00177555

>  <r_epik_State_Penalty>  (16) 
-0

>  <r_epik_Charging_Adjusted_Penalty>  (16) 
0

>  <i_epik_Tot_Q>  (16) 
0

>  <i_epik_Tot_abs_Q>  (16) 
0

>  <s_lp_Force_Field>  (16) 
OPLS3e

>  <r_lp_Energy>  (16) 
77.1242

>  <b_lp_Chiralities_Consistent>  (16) 
1

>  <s_lp_Variant>  (16) 
3:0-1

>  <s_i_glide_gridfile>  (16) 
pfpi4k_grid

>  <i_i_glide_lignum>  (16) 
6

>  <i_i_glide_rotatable_bonds>  (16) 
2

>  <r_i_docking_score>  (16) 
-3.70035

>  <r_i_glide_ligand_efficiency>  (16) 
-0.176207

>  <r_i_glide_ligand_efficiency_sa>  (16) 
-0.486142

>  <r_i_glide_ligand_efficiency_ln>  (16) 
-0.914903

>  <r_i_glide_gscore>  (16) 
-3.70035

>  <r_i_glide_lipo>  (16) 
-0.572934

>  <r_i_glide_hbond>  (16) 
-0.0669462

>  <r_i_glide_metal>  (16) 
-0

>  <r_i_glide_rewards>  (16) 
-1.5245

>  <r_i_glide_evdw>  (16) 
-28.5094

>  <r_i_glide_ecoul>  (16) 
-3.20461

>  <r_i_glide_erotb>  (16) 
0.412251

>  <r_i_glide_esite>  (16) 
-0.0420582

>  <r_i_glide_emodel>  (16) 
-39.113

>  <r_i_glide_energy>  (16) 
-31.714

>  <r_i_glide_einternal>  (16) 
0.653312

>  <r_i_glide_intrahb_reward>  (16) 
-0

>  <i_i_glide_confnum>  (16) 
3

>  <i_i_glide_posenum>  (16) 
3

>  <r_i_glide_eff_state_penalty>  (16) 
0

>  <ligand_id>  (16) 
3

>  <original_smiles>  (16) 
c1cnc(N2CCN(c3ncnc4sccc34)CC2)nc1

>  <smiles>  (16) 
[H]c1nc(N2C([H])([H])C([H])([H])N(c3nc([H])c([H])c([H])n3)C([H])([H])C2([H])[H])c2c([H])c([H])sc2n1

$$$$
3:0:1
     RDKit          3D

 35 38  0  0  1  0  0  0  0  0999 V2000
   -0.7956   -8.6173    3.1183 C   0  0  0  0  0  0  0  0  0  0  0  0
    0.3867   -9.3388    3.3706 C   0  0  0  0  0  0  0  0  0  0  0  0
    1.5779   -8.9421    2.8869 N   0  0  0  0  0  0  0  0  0  0  0  0
    1.6063   -7.8345    2.1387 C   0  0  0  0  0  0  0  0  0  0  0  0
    2.8495   -7.4341    1.6373 N   0  0  0  0  0  0  0  0  0  0  0  0
    2.9915   -6.2723    0.7536 C   0  0  0  0  0  0  0  0  0  0  0  0
    3.9427   -5.2434    1.3408 C   0  0  0  0  0  0  0  0  0  0  0  0
    5.2017   -5.8677    1.7388 N   0  0  0  0  0  0  0  0  0  0  0  0
    6.4305   -5.4062    1.2280 C   0  0  0  0  0  0  0  0  0  0  0  0
    7.4069   -6.3116    1.0082 N   0  0  0  0  0  0  0  0  0  0  0  0
    8.5689   -5.8955    0.5065 C   0  0  0  0  0  0  0  0  0  0  0  0
    8.9300   -4.6592    0.1575 N   0  0  0  0  0  0  0  0  0  0  0  0
    7.9437   -3.7486    0.3924 C   0  0  0  0  0  0  0  0  0  0  0  0
    8.1578   -2.0383    0.0776 S   0  0  0  0  0  0  0  0  0  0  0  0
    6.5344   -1.7259    0.6236 C   0  0  0  0  0  0  0  0  0  0  0  0
    5.8647   -2.8209    1.0928 C   0  0  0  0  0  0  0  0  0  0  0  0
    6.6555   -4.0333    0.9358 C   0  0  0  0  0  0  0  0  0  0  0  0
    5.1029   -7.0492    2.5961 C   0  0  0  0  0  0  0  0  0  0  0  0
    4.1225   -8.0826    1.9989 C   0  0  0  0  0  0  0  0  0  0  0  0
    0.5399   -7.0692    1.8425 N   0  0  0  0  0  0  0  0  0  0  0  0
   -0.6548   -7.4641    2.3290 C   0  0  0  0  0  0  0  0  0  0  0  0
   -1.7402   -8.9484    3.5175 H   0  0  0  0  0  0  0  0  0  0  0  0
    0.3929  -10.2364    3.9719 H   0  0  0  0  0  0  0  0  0  0  0  0
    3.4204   -6.6222   -0.1872 H   0  0  0  0  0  0  0  0  0  0  0  0
    2.0526   -5.7879    0.4911 H   0  0  0  0  0  0  0  0  0  0  0  0
    4.0739   -4.5002    0.5564 H   0  0  0  0  0  0  0  0  0  0  0  0
    3.4809   -4.7711    2.2195 H   0  0  0  0  0  0  0  0  0  0  0  0
    9.3121   -6.6529    0.3049 H   0  0  0  0  0  0  0  0  0  0  0  0
    6.1545   -0.7137    0.6117 H   0  0  0  0  0  0  0  0  0  0  0  0
    4.8763   -2.7990    1.5214 H   0  0  0  0  0  0  0  0  0  0  0  0
    6.0738   -7.4969    2.8117 H   0  0  0  0  0  0  0  0  0  0  0  0
    4.7101   -6.7175    3.5614 H   0  0  0  0  0  0  0  0  0  0  0  0
    4.0036   -8.9157    2.6959 H   0  0  0  0  0  0  0  0  0  0  0  0
    4.5624   -8.5007    1.0929 H   0  0  0  0  0  0  0  0  0  0  0  0
   -1.5072   -6.8408    2.0886 H   0  0  0  0  0  0  0  0  0  0  0  0
  1 21  2  0
  1  2  1  0
  1 22  1  0
  2  3  2  0
  2 23  1  0
  3  4  1  0
  4  5  1  0
  4 20  2  0
  5 19  1  0
  5  6  1  0
  6  7  1  0
  6 24  1  0
  6 25  1  0
  7  8  1  0
  7 26  1  0
  7 27  1  0
  8  9  1  0
  8 18  1  0
  9 17  1  0
  9 10  2  0
 10 11  1  0
 11 12  2  0
 11 28  1  0
 12 13  1  0
 13 17  2  0
 13 14  1  0
 14 15  1  0
 15 16  2  0
 15 29  1  0
 16 17  1  0
 16 30  1  0
 18 19  1  0
 18 31  1  0
 18 32  1  0
 19 33  1  0
 19 34  1  0
 20 21  1  0
 21 35  1  0
M  END
>  <i_m_ct_stereo_status>  (17) 
1

>  <s_m_source_file>  (17) 
/var/tmp/pbs.5076255.sched01/tmp6yc3ji7b/0haed4tc5.sdf

>  <i_m_source_file_index>  (17) 
6

>  <i_lp_mmshare_version>  (17) 
48012

>  <i_f3d_flags>  (17) 
0

>  <s_epik_input>  (17) 
bjFbY0hdW2NIXVtjSF1uYzFOMltDSDJdW0NIMl1OKFtDSDJdW0NIMl0yKWMobltjSF1uMyljKGMzNClbY0hdW2NIXXM0

>  <s_epik_cmdline>  (17) 
J2VwaWtfcHl0aG9uJywgJy1waHQnLCAnMi4wJywgJy1waCcsICc3LjAnLCAnLXRuJywgJzgnLCAnLW1hJywgJzIwMCcsICctaW1hZScsICc8aW5maWxlLm1hZT4nLCAnLW9tYWUnLCAnPG91dGZpbGUubWFlPic=

>  <r_lp_tautomer_probability>  (17) 
1

>  <r_epik_Ionization_Penalty>  (17) 
0.00177555

>  <r_epik_Ionization_Penalty_Charging>  (17) 
0

>  <r_epik_Ionization_Penalty_Neutral>  (17) 
0.00177555

>  <r_epik_State_Penalty>  (17) 
-0

>  <r_epik_Charging_Adjusted_Penalty>  (17) 
0

>  <i_epik_Tot_Q>  (17) 
0

>  <i_epik_Tot_abs_Q>  (17) 
0

>  <s_lp_Force_Field>  (17) 
OPLS3e

>  <r_lp_Energy>  (17) 
77.1242

>  <b_lp_Chiralities_Consistent>  (17) 
1

>  <s_lp_Variant>  (17) 
3:0-1

>  <s_i_glide_gridfile>  (17) 
pfpi4k_grid

>  <i_i_glide_lignum>  (17) 
6

>  <i_i_glide_rotatable_bonds>  (17) 
2

>  <r_i_docking_score>  (17) 
-3.51583

>  <r_i_glide_ligand_efficiency>  (17) 
-0.16742

>  <r_i_glide_ligand_efficiency_sa>  (17) 
-0.4619

>  <r_i_glide_ligand_efficiency_ln>  (17) 
-0.869281

>  <r_i_glide_gscore>  (17) 
-3.51583

>  <r_i_glide_lipo>  (17) 
-0.550342

>  <r_i_glide_hbond>  (17) 
-0.0377625

>  <r_i_glide_metal>  (17) 
-0

>  <r_i_glide_rewards>  (17) 
-1.45983

>  <r_i_glide_evdw>  (17) 
-26.5315

>  <r_i_glide_ecoul>  (17) 
-3.2412

>  <r_i_glide_erotb>  (17) 
0.412251

>  <r_i_glide_esite>  (17) 
-0.0673835

>  <r_i_glide_emodel>  (17) 
-36.5892

>  <r_i_glide_energy>  (17) 
-29.7727

>  <r_i_glide_einternal>  (17) 
0.793343

>  <r_i_glide_intrahb_reward>  (17) 
-0

>  <i_i_glide_confnum>  (17) 
3

>  <i_i_glide_posenum>  (17) 
30

>  <r_i_glide_eff_state_penalty>  (17) 
0

>  <ligand_id>  (17) 
3

>  <original_smiles>  (17) 
c1cnc(N2CCN(c3ncnc4sccc34)CC2)nc1

>  <smiles>  (17) 
[H]c1nc(N2C([H])([H])C([H])([H])N(c3nc([H])c([H])c([H])n3)C([H])([H])C2([H])[H])c2c([H])c([H])sc2n1

$$$$
3:0:2
     RDKit          3D

 35 38  0  0  1  0  0  0  0  0999 V2000
   -1.3891   -9.0576    2.8228 C   0  0  0  0  0  0  0  0  0  0  0  0
   -1.2592   -7.6870    2.5828 C   0  0  0  0  0  0  0  0  0  0  0  0
   -0.0566   -7.0862    2.4701 N   0  0  0  0  0  0  0  0  0  0  0  0
    1.0298   -7.8605    2.6138 C   0  0  0  0  0  0  0  0  0  0  0  0
    2.2859   -7.2517    2.5378 N   0  0  0  0  0  0  0  0  0  0  0  0
    3.5481   -8.0103    2.5548 C   0  0  0  0  0  0  0  0  0  0  0  0
    4.3747   -7.7547    1.2806 C   0  0  0  0  0  0  0  0  0  0  0  0
    4.4949   -6.3240    1.0286 N   0  0  0  0  0  0  0  0  0  0  0  0
    5.7516   -5.6798    0.9095 C   0  0  0  0  0  0  0  0  0  0  0  0
    6.8016   -6.1983    1.5979 N   0  0  0  0  0  0  0  0  0  0  0  0
    8.0041   -5.6284    1.5006 C   0  0  0  0  0  0  0  0  0  0  0  0
    8.3558   -4.5607    0.7920 N   0  0  0  0  0  0  0  0  0  0  0  0
    7.2917   -4.0396    0.0947 C   0  0  0  0  0  0  0  0  0  0  0  0
    7.4478   -2.6591   -0.9718 S   0  0  0  0  0  0  0  0  0  0  0  0
    5.7691   -2.7443   -1.3916 C   0  0  0  0  0  0  0  0  0  0  0  0
    5.1029   -3.7857   -0.8295 C   0  0  0  0  0  0  0  0  0  0  0  0
    5.9586   -4.5452    0.0882 C   0  0  0  0  0  0  0  0  0  0  0  0
    3.2529   -5.5550    1.0462 C   0  0  0  0  0  0  0  0  0  0  0  0
    2.4532   -5.8172    2.3219 C   0  0  0  0  0  0  0  0  0  0  0  0
    1.0037   -9.1679    2.8427 N   0  0  0  0  0  0  0  0  0  0  0  0
   -0.1894   -9.7801    2.9407 C   0  0  0  0  0  0  0  0  0  0  0  0
   -2.3450   -9.5370    2.9304 H   0  0  0  0  0  0  0  0  0  0  0  0
   -2.1267   -7.0439    2.4893 H   0  0  0  0  0  0  0  0  0  0  0  0
    4.1256   -7.6764    3.4189 H   0  0  0  0  0  0  0  0  0  0  0  0
    3.4094   -9.0869    2.6736 H   0  0  0  0  0  0  0  0  0  0  0  0
    5.3398   -8.2590    1.3249 H   0  0  0  0  0  0  0  0  0  0  0  0
    3.8487   -8.1936    0.4371 H   0  0  0  0  0  0  0  0  0  0  0  0
    8.7834   -6.0805    2.0871 H   0  0  0  0  0  0  0  0  0  0  0  0
    5.3292   -2.0451   -2.0799 H   0  0  0  0  0  0  0  0  0  0  0  0
    4.0737   -4.0333   -1.0413 H   0  0  0  0  0  0  0  0  0  0  0  0
    3.4234   -4.4813    1.0459 H   0  0  0  0  0  0  0  0  0  0  0  0
    2.6694   -5.8284    0.1634 H   0  0  0  0  0  0  0  0  0  0  0  0
    1.5234   -5.2521    2.2636 H   0  0  0  0  0  0  0  0  0  0  0  0
    3.0003   -5.4010    3.1668 H   0  0  0  0  0  0  0  0  0  0  0  0
   -0.1739  -10.8428    3.1281 H   0  0  0  0  0  0  0  0  0  0  0  0
  1 21  2  0
  1  2  1  0
  1 22  1  0
  2  3  2  0
  2 23  1  0
  3  4  1  0
  4  5  1  0
  4 20  2  0
  5 19  1  0
  5  6  1  0
  6  7  1  0
  6 24  1  0
  6 25  1  0
  7  8  1  0
  7 26  1  0
  7 27  1  0
  8  9  1  0
  8 18  1  0
  9 17  1  0
  9 10  2  0
 10 11  1  0
 11 12  2  0
 11 28  1  0
 12 13  1  0
 13 17  2  0
 13 14  1  0
 14 15  1  0
 15 16  2  0
 15 29  1  0
 16 17  1  0
 16 30  1  0
 18 19  1  0
 18 31  1  0
 18 32  1  0
 19 33  1  0
 19 34  1  0
 20 21  1  0
 21 35  1  0
M  END
>  <i_m_ct_stereo_status>  (18) 
1

>  <s_m_source_file>  (18) 
/var/tmp/pbs.5076255.sched01/tmp6yc3ji7b/0haed4tc5.sdf

>  <i_m_source_file_index>  (18) 
6

>  <i_lp_mmshare_version>  (18) 
48012

>  <i_f3d_flags>  (18) 
0

>  <s_epik_input>  (18) 
bjFbY0hdW2NIXVtjSF1uYzFOMltDSDJdW0NIMl1OKFtDSDJdW0NIMl0yKWMobltjSF1uMyljKGMzNClbY0hdW2NIXXM0

>  <s_epik_cmdline>  (18) 
J2VwaWtfcHl0aG9uJywgJy1waHQnLCAnMi4wJywgJy1waCcsICc3LjAnLCAnLXRuJywgJzgnLCAnLW1hJywgJzIwMCcsICctaW1hZScsICc8aW5maWxlLm1hZT4nLCAnLW9tYWUnLCAnPG91dGZpbGUubWFlPic=

>  <r_lp_tautomer_probability>  (18) 
1

>  <r_epik_Ionization_Penalty>  (18) 
0.00177555

>  <r_epik_Ionization_Penalty_Charging>  (18) 
0

>  <r_epik_Ionization_Penalty_Neutral>  (18) 
0.00177555

>  <r_epik_State_Penalty>  (18) 
-0

>  <r_epik_Charging_Adjusted_Penalty>  (18) 
0

>  <i_epik_Tot_Q>  (18) 
0

>  <i_epik_Tot_abs_Q>  (18) 
0

>  <s_lp_Force_Field>  (18) 
OPLS3e

>  <r_lp_Energy>  (18) 
77.1242

>  <b_lp_Chiralities_Consistent>  (18) 
1

>  <s_lp_Variant>  (18) 
3:0-1

>  <s_i_glide_gridfile>  (18) 
pfpi4k_grid

>  <i_i_glide_lignum>  (18) 
6

>  <i_i_glide_rotatable_bonds>  (18) 
2

>  <r_i_docking_score>  (18) 
-3.44833

>  <r_i_glide_ligand_efficiency>  (18) 
-0.164206

>  <r_i_glide_ligand_efficiency_sa>  (18) 
-0.453033

>  <r_i_glide_ligand_efficiency_ln>  (18) 
-0.852593

>  <r_i_glide_gscore>  (18) 
-3.44833

>  <r_i_glide_lipo>  (18) 
-0.382151

>  <r_i_glide_hbond>  (18) 
-0.0263834

>  <r_i_glide_metal>  (18) 
-0

>  <r_i_glide_rewards>  (18) 
-1.57794

>  <r_i_glide_evdw>  (18) 
-30.9608

>  <r_i_glide_ecoul>  (18) 
-1.93503

>  <r_i_glide_erotb>  (18) 
0.412251

>  <r_i_glide_esite>  (18) 
-0.0358114

>  <r_i_glide_emodel>  (18) 
-39.9647

>  <r_i_glide_energy>  (18) 
-32.8959

>  <r_i_glide_einternal>  (18) 
0.0848667

>  <r_i_glide_intrahb_reward>  (18) 
-0

>  <i_i_glide_confnum>  (18) 
1

>  <i_i_glide_posenum>  (18) 
10

>  <r_i_glide_eff_state_penalty>  (18) 
0

>  <ligand_id>  (18) 
3

>  <original_smiles>  (18) 
c1cnc(N2CCN(c3ncnc4sccc34)CC2)nc1

>  <smiles>  (18) 
[H]c1nc(N2C([H])([H])C([H])([H])N(c3nc([H])c([H])c([H])n3)C([H])([H])C2([H])[H])c2c([H])c([H])sc2n1

$$$$
4:0:0
     RDKit          3D

 44 48  0  0  1  0  0  0  0  0999 V2000
    2.8633   -3.1279   -2.8767 C   0  0  0  0  0  0  0  0  0  0  0  0
    3.3339   -3.0103   -1.6221 C   0  0  0  0  0  0  0  0  0  0  0  0
    2.6534   -3.5780   -0.3778 C   0  0  1  0  0  0  0  0  0  0  0  0
    1.8269   -4.6631   -0.7242 O   0  0  0  0  0  0  0  0  0  0  0  0
    3.6679   -3.9350    0.7493 C   0  0  2  0  0  0  0  0  0  0  0  0
    2.9610   -4.4230    2.0577 C   0  0  1  0  0  0  0  0  0  0  0  0
    2.1891   -5.7174    1.9466 C   0  0  0  0  0  0  0  0  0  0  0  0
    0.9402   -6.0259    2.5575 C   0  0  0  0  0  0  0  0  0  0  0  0
    0.6257   -7.3002    2.1875 C   0  0  0  0  0  0  0  0  0  0  0  0
    1.6054   -7.8297    1.4136 O   0  0  0  0  0  0  0  0  0  0  0  0
    2.5513   -6.8633    1.2868 C   0  0  0  0  0  0  0  0  0  0  0  0
    3.9165   -4.5895    3.0924 O   0  0  0  0  0  0  0  0  0  0  0  0
    4.6897   -3.5764    3.4783 C   0  0  0  0  0  0  0  0  0  0  0  0
    5.4036   -3.6138    4.4805 O   0  0  0  0  0  0  0  0  0  0  0  0
    4.6172   -2.3427    2.5673 C   0  0  1  0  0  0  0  0  0  0  0  0
    5.5591   -1.3973    3.0288 O   0  0  0  0  0  0  0  0  0  0  0  0
    4.6741   -2.7297    1.0334 C   0  0  2  0  0  0  0  0  0  0  0  0
    4.4650   -1.5530    0.0510 C   0  0  1  0  0  0  0  0  0  0  0  0
    5.7136   -0.6933    0.2073 C   0  0  0  0  0  0  0  0  0  0  0  0
    6.7110   -1.6750    0.4746 O   0  0  0  0  0  0  0  0  0  0  0  0
    6.0817   -2.9606    0.4115 C   0  0  1  0  0  0  0  0  0  0  0  0
    6.9947   -4.0190    1.0403 C   0  0  0  0  0  0  0  0  0  0  0  0
    5.8099   -3.1634   -1.0936 C   0  0  0  0  0  0  0  0  0  0  0  0
    4.5973   -2.2368   -1.3219 C   0  0  1  0  0  0  0  0  0  0  0  0
    3.3897   -2.7068   -3.7184 H   0  0  0  0  0  0  0  0  0  0  0  0
    1.9490   -3.6669   -3.0857 H   0  0  0  0  0  0  0  0  0  0  0  0
    2.0044   -2.7883    0.0007 H   0  0  0  0  0  0  0  0  0  0  0  0
    2.2811   -5.1713   -1.3932 H   0  0  0  0  0  0  0  0  0  0  0  0
    4.2575   -4.7835    0.4039 H   0  0  0  0  0  0  0  0  0  0  0  0
    2.2358   -3.6685    2.3775 H   0  0  0  0  0  0  0  0  0  0  0  0
    0.3488   -5.3876    3.2016 H   0  0  0  0  0  0  0  0  0  0  0  0
   -0.2031   -7.9647    2.3888 H   0  0  0  0  0  0  0  0  0  0  0  0
    3.4133   -7.1506    0.7019 H   0  0  0  0  0  0  0  0  0  0  0  0
    3.6485   -1.8831    2.7584 H   0  0  0  0  0  0  0  0  0  0  0  0
    5.5456   -0.6415    2.4651 H   0  0  0  0  0  0  0  0  0  0  0  0
    3.5343   -0.9915    0.1690 H   0  0  0  0  0  0  0  0  0  0  0  0
    5.9512   -0.1820   -0.7175 H   0  0  0  0  0  0  0  0  0  0  0  0
    5.6279    0.0539    0.9955 H   0  0  0  0  0  0  0  0  0  0  0  0
    6.5310   -5.0031    1.0546 H   0  0  0  0  0  0  0  0  0  0  0  0
    7.2265   -3.7572    2.0691 H   0  0  0  0  0  0  0  0  0  0  0  0
    7.9381   -4.0889    0.4986 H   0  0  0  0  0  0  0  0  0  0  0  0
    6.6726   -2.8696   -1.6914 H   0  0  0  0  0  0  0  0  0  0  0  0
    5.5887   -4.2049   -1.3303 H   0  0  0  0  0  0  0  0  0  0  0  0
    4.7836   -1.5332   -2.1306 H   0  0  0  0  0  0  0  0  0  0  0  0
  1  2  2  0
  1 25  1  0
  1 26  1  0
  2 24  1  0
  2  3  1  0
  3  4  1  0
  3  5  1  0
  3 27  1  1
  4 28  1  0
  5 17  1  0
  5  6  1  0
  5 29  1  6
  6  7  1  0
  6 12  1  0
  6 30  1  1
  7 11  2  0
  7  8  1  0
  8  9  2  0
  8 31  1  0
  9 10  1  0
  9 32  1  0
 10 11  1  0
 11 33  1  0
 12 13  1  0
 13 14  2  0
 13 15  1  0
 15 16  1  0
 15 17  1  0
 15 34  1  6
 16 35  1  0
 17 21  1  6
 17 18  1  0
 18 24  1  0
 18 19  1  0
 18 36  1  6
 19 20  1  0
 19 37  1  0
 19 38  1  0
 20 21  1  0
 21 22  1  1
 21 23  1  0
 22 39  1  0
 22 40  1  0
 22 41  1  0
 23 24  1  0
 23 42  1  0
 23 43  1  0
 24 44  1  6
M  END
>  <i_m_ct_stereo_status>  (19) 
1

>  <s_m_source_file>  (19) 
/var/tmp/pbs.5076255.sched01/tmp6yc3ji7b/0haed4tc5.sdf

>  <i_m_source_file_index>  (19) 
7

>  <i_lp_mmshare_version>  (19) 
48012

>  <i_f3d_flags>  (19) 
0

>  <s_epik_input>  (19) 
W0NIM11bQ0BdMShbQ0gyXTIpT1tDSDJdW0NASF0zW0NAQEhdMkMoPVtDSDJdKVtDQEBIXShbT0hdKVtDQEBIXShbQ0BAXTEzNClbQ0BIXShPQyg9TylbQ0BIXTRbT0hdKWM1W2NIXVtjSF1vW2NIXTU=

>  <s_epik_cmdline>  (19) 
J2VwaWtfcHl0aG9uJywgJy1waHQnLCAnMi4wJywgJy1waCcsICc3LjAnLCAnLXRuJywgJzgnLCAnLW1hJywgJzIwMCcsICctaW1hZScsICc8aW5maWxlLm1hZT4nLCAnLW9tYWUnLCAnPG91dGZpbGUubWFlPic=

>  <r_epik_Ionization_Penalty>  (19) 
0.00058542

>  <r_epik_Ionization_Penalty_Charging>  (19) 
0

>  <r_epik_Ionization_Penalty_Neutral>  (19) 
0.00058542

>  <r_epik_State_Penalty>  (19) 
0.000367772

>  <r_epik_Charging_Adjusted_Penalty>  (19) 
0.000367772

>  <i_epik_Tot_Q>  (19) 
0

>  <i_epik_Tot_abs_Q>  (19) 
0

>  <s_epik_Chemistry_Notes>  (19) 
This compound has an ester and may undergo hydrolysis at high or low pH.

>  <s_lp_Force_Field>  (19) 
OPLS3e

>  <r_lp_Energy>  (19) 
51.775

>  <b_lp_Chiralities_Consistent>  (19) 
1

>  <s_lp_Variant>  (19) 
4:0-1

>  <s_i_glide_gridfile>  (19) 
pfpi4k_grid

>  <i_i_glide_lignum>  (19) 
7

>  <i_i_glide_rotatable_bonds>  (19) 
3

>  <r_i_docking_score>  (19) 
-4.02639

>  <r_i_glide_ligand_efficiency>  (19) 
-0.167766

>  <r_i_glide_ligand_efficiency_sa>  (19) 
-0.483922

>  <r_i_glide_ligand_efficiency_ln>  (19) 
-0.9637

>  <r_i_glide_gscore>  (19) 
-4.02639

>  <r_i_glide_lipo>  (19) 
-0.386046

>  <r_i_glide_hbond>  (19) 
-0.325529

>  <r_i_glide_metal>  (19) 
-0

>  <r_i_glide_rewards>  (19) 
-1.17417

>  <r_i_glide_evdw>  (19) 
-22.3264

>  <r_i_glide_ecoul>  (19) 
-7.96554

>  <r_i_glide_erotb>  (19) 
0.170506

>  <r_i_glide_esite>  (19) 
0

>  <r_i_glide_emodel>  (19) 
-37.0042

>  <r_i_glide_energy>  (19) 
-30.292

>  <r_i_glide_einternal>  (19) 
0.705004

>  <r_i_glide_intrahb_reward>  (19) 
-0

>  <i_i_glide_confnum>  (19) 
1

>  <i_i_glide_posenum>  (19) 
29

>  <r_i_glide_eff_state_penalty>  (19) 
0

>  <ligand_id>  (19) 
4

>  <original_smiles>  (19) 
C=C1C(O)C2C(c3ccoc3)OC(=O)C(O)C23C2COC3(C)CC12

>  <smiles>  (19) 
[H]OC1([H])C(=C([H])[H])C2([H])C([H])([H])C3(C([H])([H])[H])OC([H])([H])C2([H])C32C([H])(O[H])C(=O)OC([H])(c3c([H])oc([H])c3[H])C12[H]

$$$$
4:0:1
     RDKit          3D

 44 48  0  0  1  0  0  0  0  0999 V2000
    2.8607   -3.1741   -2.9058 C   0  0  0  0  0  0  0  0  0  0  0  0
    3.3343   -3.0351   -1.6537 C   0  0  0  0  0  0  0  0  0  0  0  0
    2.6481   -3.5763   -0.3986 C   0  0  1  0  0  0  0  0  0  0  0  0
    1.8174   -4.6543   -0.7261 O   0  0  0  0  0  0  0  0  0  0  0  0
    3.6653   -3.9165    0.7350 C   0  0  2  0  0  0  0  0  0  0  0  0
    2.9579   -4.3748    2.0517 C   0  0  1  0  0  0  0  0  0  0  0  0
    2.1784   -5.6668    1.9702 C   0  0  0  0  0  0  0  0  0  0  0  0
    0.9551   -5.9724    2.6287 C   0  0  0  0  0  0  0  0  0  0  0  0
    0.6211   -7.2471    2.2657 C   0  0  0  0  0  0  0  0  0  0  0  0
    1.5651   -7.7736    1.4480 O   0  0  0  0  0  0  0  0  0  0  0  0
    2.5082   -6.8097    1.2893 C   0  0  0  0  0  0  0  0  0  0  0  0
    3.9139   -4.5208    3.0915 O   0  0  0  0  0  0  0  0  0  0  0  0
    4.6919   -3.4942    3.4526 C   0  0  0  0  0  0  0  0  0  0  0  0
    5.3954   -3.4959    4.4598 O   0  0  0  0  0  0  0  0  0  0  0  0
    4.6142   -2.2837    2.5137 C   0  0  1  0  0  0  0  0  0  0  0  0
    5.5531   -1.3129    2.9263 O   0  0  0  0  0  0  0  0  0  0  0  0
    4.6732   -2.7099    0.9955 C   0  0  2  0  0  0  0  0  0  0  0  0
    4.4701   -1.5539   -0.0101 C   0  0  1  0  0  0  0  0  0  0  0  0
    5.7247   -0.7001    0.1310 C   0  0  0  0  0  0  0  0  0  0  0  0
    6.7235   -1.6820    0.3958 O   0  0  0  0  0  0  0  0  0  0  0  0
    6.0786   -2.9617    0.3749 C   0  0  1  0  0  0  0  0  0  0  0  0
    6.9892   -4.0103    1.0231 C   0  0  0  0  0  0  0  0  0  0  0  0
    5.8050   -3.1918   -1.1272 C   0  0  0  0  0  0  0  0  0  0  0  0
    4.5983   -2.2629   -1.3715 C   0  0  1  0  0  0  0  0  0  0  0  0
    3.3885   -2.7723   -3.7574 H   0  0  0  0  0  0  0  0  0  0  0  0
    1.9435   -3.7138   -3.1028 H   0  0  0  0  0  0  0  0  0  0  0  0
    2.0058   -2.7737   -0.0360 H   0  0  0  0  0  0  0  0  0  0  0  0
    2.2684   -5.1696   -1.3928 H   0  0  0  0  0  0  0  0  0  0  0  0
    4.2501   -4.7733    0.4038 H   0  0  0  0  0  0  0  0  0  0  0  0
    2.2327   -3.6121    2.3538 H   0  0  0  0  0  0  0  0  0  0  0  0
    0.3908   -5.3381    3.2996 H   0  0  0  0  0  0  0  0  0  0  0  0
   -0.1980   -7.9102    2.5021 H   0  0  0  0  0  0  0  0  0  0  0  0
    3.3444   -7.0937    0.6654 H   0  0  0  0  0  0  0  0  0  0  0  0
    3.6432   -1.8283    2.6957 H   0  0  0  0  0  0  0  0  0  0  0  0
    5.3498   -1.0614    3.8142 H   0  0  0  0  0  0  0  0  0  0  0  0
    3.5440   -0.9822    0.0990 H   0  0  0  0  0  0  0  0  0  0  0  0
    5.9499   -0.2083   -0.8032 H   0  0  0  0  0  0  0  0  0  0  0  0
    5.6509    0.0601    0.9081 H   0  0  0  0  0  0  0  0  0  0  0  0
    6.5207   -4.9916    1.0578 H   0  0  0  0  0  0  0  0  0  0  0  0
    7.2203   -3.7256    2.0459 H   0  0  0  0  0  0  0  0  0  0  0  0
    7.9322   -4.0936    0.4838 H   0  0  0  0  0  0  0  0  0  0  0  0
    6.6708   -2.9123   -1.7288 H   0  0  0  0  0  0  0  0  0  0  0  0
    5.5791   -4.2368   -1.3412 H   0  0  0  0  0  0  0  0  0  0  0  0
    4.7872   -1.5744   -2.1909 H   0  0  0  0  0  0  0  0  0  0  0  0
  1  2  2  0
  1 25  1  0
  1 26  1  0
  2 24  1  0
  2  3  1  0
  3  4  1  0
  3  5  1  0
  3 27  1  1
  4 28  1  0
  5 17  1  0
  5  6  1  0
  5 29  1  6
  6  7  1  0
  6 12  1  0
  6 30  1  1
  7 11  2  0
  7  8  1  0
  8  9  2  0
  8 31  1  0
  9 10  1  0
  9 32  1  0
 10 11  1  0
 11 33  1  0
 12 13  1  0
 13 14  2  0
 13 15  1  0
 15 16  1  0
 15 17  1  0
 15 34  1  6
 16 35  1  0
 17 21  1  6
 17 18  1  0
 18 24  1  0
 18 19  1  0
 18 36  1  6
 19 20  1  0
 19 37  1  0
 19 38  1  0
 20 21  1  0
 21 22  1  1
 21 23  1  0
 22 39  1  0
 22 40  1  0
 22 41  1  0
 23 24  1  0
 23 42  1  0
 23 43  1  0
 24 44  1  6
M  END
>  <i_m_ct_stereo_status>  (20) 
1

>  <s_m_source_file>  (20) 
/var/tmp/pbs.5076255.sched01/tmp6yc3ji7b/0haed4tc5.sdf

>  <i_m_source_file_index>  (20) 
7

>  <i_lp_mmshare_version>  (20) 
48012

>  <i_f3d_flags>  (20) 
0

>  <s_epik_input>  (20) 
W0NIM11bQ0BdMShbQ0gyXTIpT1tDSDJdW0NASF0zW0NAQEhdMkMoPVtDSDJdKVtDQEBIXShbT0hdKVtDQEBIXShbQ0BAXTEzNClbQ0BIXShPQyg9TylbQ0BIXTRbT0hdKWM1W2NIXVtjSF1vW2NIXTU=

>  <s_epik_cmdline>  (20) 
J2VwaWtfcHl0aG9uJywgJy1waHQnLCAnMi4wJywgJy1waCcsICc3LjAnLCAnLXRuJywgJzgnLCAnLW1hJywgJzIwMCcsICctaW1hZScsICc8aW5maWxlLm1hZT4nLCAnLW9tYWUnLCAnPG91dGZpbGUubWFlPic=

>  <r_epik_Ionization_Penalty>  (20) 
0.00058542

>  <r_epik_Ionization_Penalty_Charging>  (20) 
0

>  <r_epik_Ionization_Penalty_Neutral>  (20) 
0.00058542

>  <r_epik_State_Penalty>  (20) 
0.000367772

>  <r_epik_Charging_Adjusted_Penalty>  (20) 
0.000367772

>  <i_epik_Tot_Q>  (20) 
0

>  <i_epik_Tot_abs_Q>  (20) 
0

>  <s_epik_Chemistry_Notes>  (20) 
This compound has an ester and may undergo hydrolysis at high or low pH.

>  <s_lp_Force_Field>  (20) 
OPLS3e

>  <r_lp_Energy>  (20) 
51.775

>  <b_lp_Chiralities_Consistent>  (20) 
1

>  <s_lp_Variant>  (20) 
4:0-1

>  <s_i_glide_gridfile>  (20) 
pfpi4k_grid

>  <i_i_glide_lignum>  (20) 
7

>  <i_i_glide_rotatable_bonds>  (20) 
3

>  <r_i_docking_score>  (20) 
-3.99912

>  <r_i_glide_ligand_efficiency>  (20) 
-0.16663

>  <r_i_glide_ligand_efficiency_sa>  (20) 
-0.480644

>  <r_i_glide_ligand_efficiency_ln>  (20) 
-0.957172

>  <r_i_glide_gscore>  (20) 
-3.99912

>  <r_i_glide_lipo>  (20) 
-0.377147

>  <r_i_glide_hbond>  (20) 
-0.325805

>  <r_i_glide_metal>  (20) 
-0

>  <r_i_glide_rewards>  (20) 
-1.17686

>  <r_i_glide_evdw>  (20) 
-22.5494

>  <r_i_glide_ecoul>  (20) 
-7.74897

>  <r_i_glide_erotb>  (20) 
0.170506

>  <r_i_glide_esite>  (20) 
0

>  <r_i_glide_emodel>  (20) 
-36.001

>  <r_i_glide_energy>  (20) 
-30.2983

>  <r_i_glide_einternal>  (20) 
2.53262

>  <r_i_glide_intrahb_reward>  (20) 
-0

>  <i_i_glide_confnum>  (20) 
1

>  <i_i_glide_posenum>  (20) 
27

>  <r_i_glide_eff_state_penalty>  (20) 
0

>  <ligand_id>  (20) 
4

>  <original_smiles>  (20) 
C=C1C(O)C2C(c3ccoc3)OC(=O)C(O)C23C2COC3(C)CC12

>  <smiles>  (20) 
[H]OC1([H])C(=C([H])[H])C2([H])C([H])([H])C3(C([H])([H])[H])OC([H])([H])C2([H])C32C([H])(O[H])C(=O)OC([H])(c3c([H])oc([H])c3[H])C12[H]

$$$$
4:0:2
     RDKit          3D

 44 48  0  0  1  0  0  0  0  0999 V2000
    2.9091   -3.1869   -2.9090 C   0  0  0  0  0  0  0  0  0  0  0  0
    3.3724   -3.0449   -1.6511 C   0  0  0  0  0  0  0  0  0  0  0  0
    2.6734   -3.5735   -0.4001 C   0  0  1  0  0  0  0  0  0  0  0  0
    1.8228   -4.6514   -0.7168 O   0  0  0  0  0  0  0  0  0  0  0  0
    3.6838   -3.9182    0.7355 C   0  0  2  0  0  0  0  0  0  0  0  0
    2.9720   -4.3667    2.0541 C   0  0  1  0  0  0  0  0  0  0  0  0
    2.1980   -5.6598    1.9683 C   0  0  0  0  0  0  0  0  0  0  0  0
    0.9688   -5.9610    2.6313 C   0  0  0  0  0  0  0  0  0  0  0  0
    0.6376   -7.2335    2.2720 C   0  0  0  0  0  0  0  0  0  0  0  0
    1.5819   -7.7664    1.4576 O   0  0  0  0  0  0  0  0  0  0  0  0
    2.5274   -6.8020    1.2996 C   0  0  0  0  0  0  0  0  0  0  0  0
    3.9246   -4.5115    3.0919 O   0  0  0  0  0  0  0  0  0  0  0  0
    4.6994   -3.4978    3.4614 C   0  0  0  0  0  0  0  0  0  0  0  0
    5.4043   -3.4975    4.4700 O   0  0  0  0  0  0  0  0  0  0  0  0
    4.6460   -2.2877    2.5147 C   0  0  1  0  0  0  0  0  0  0  0  0
    5.5934   -1.3225    2.9319 O   0  0  0  0  0  0  0  0  0  0  0  0
    4.6993   -2.7153    0.9925 C   0  0  2  0  0  0  0  0  0  0  0  0
    4.5056   -1.5537   -0.0109 C   0  0  1  0  0  0  0  0  0  0  0  0
    5.7585   -0.7052    0.1418 C   0  0  0  0  0  0  0  0  0  0  0  0
    6.7519   -1.6890    0.4324 O   0  0  0  0  0  0  0  0  0  0  0  0
    6.1116   -2.9673    0.3865 C   0  0  1  0  0  0  0  0  0  0  0  0
    7.0148   -4.0130    1.0364 C   0  0  0  0  0  0  0  0  0  0  0  0
    5.8482   -3.1947   -1.1100 C   0  0  0  0  0  0  0  0  0  0  0  0
    4.6333   -2.2687   -1.3672 C   0  0  1  0  0  0  0  0  0  0  0  0
    3.4458   -2.7875   -3.7579 H   0  0  0  0  0  0  0  0  0  0  0  0
    1.9966   -3.7233   -3.1074 H   0  0  0  0  0  0  0  0  0  0  0  0
    2.0416   -2.7674   -0.0409 H   0  0  0  0  0  0  0  0  0  0  0  0
    2.2690   -5.1776   -1.3761 H   0  0  0  0  0  0  0  0  0  0  0  0
    4.2764   -4.7724    0.4153 H   0  0  0  0  0  0  0  0  0  0  0  0
    2.2521   -3.5995    2.3514 H   0  0  0  0  0  0  0  0  0  0  0  0
    0.4074   -5.3207    3.2942 H   0  0  0  0  0  0  0  0  0  0  0  0
   -0.1840   -7.8951    2.5061 H   0  0  0  0  0  0  0  0  0  0  0  0
    3.3637   -7.0935    0.6763 H   0  0  0  0  0  0  0  0  0  0  0  0
    3.6834   -1.8151    2.6982 H   0  0  0  0  0  0  0  0  0  0  0  0
    6.4575   -1.6647    2.7626 H   0  0  0  0  0  0  0  0  0  0  0  0
    3.5807   -0.9796    0.0929 H   0  0  0  0  0  0  0  0  0  0  0  0
    5.9995   -0.2146   -0.7886 H   0  0  0  0  0  0  0  0  0  0  0  0
    5.6763    0.0645    0.9114 H   0  0  0  0  0  0  0  0  0  0  0  0
    6.5458   -4.9930    1.0755 H   0  0  0  0  0  0  0  0  0  0  0  0
    7.2496   -3.7251    2.0532 H   0  0  0  0  0  0  0  0  0  0  0  0
    7.9549   -4.1060    0.4951 H   0  0  0  0  0  0  0  0  0  0  0  0
    6.7156   -2.9196   -1.7150 H   0  0  0  0  0  0  0  0  0  0  0  0
    5.6177   -4.2407   -1.3275 H   0  0  0  0  0  0  0  0  0  0  0  0
    4.8340   -1.5824   -2.1915 H   0  0  0  0  0  0  0  0  0  0  0  0
  1  2  2  0
  1 25  1  0
  1 26  1  0
  2 24  1  0
  2  3  1  0
  3  4  1  0
  3  5  1  0
  3 27  1  1
  4 28  1  0
  5 17  1  0
  5  6  1  0
  5 29  1  6
  6  7  1  0
  6 12  1  0
  6 30  1  1
  7 11  2  0
  7  8  1  0
  8  9  2  0
  8 31  1  0
  9 10  1  0
  9 32  1  0
 10 11  1  0
 11 33  1  0
 12 13  1  0
 13 14  2  0
 13 15  1  0
 15 16  1  0
 15 17  1  0
 15 34  1  6
 16 35  1  0
 17 21  1  6
 17 18  1  0
 18 24  1  0
 18 19  1  0
 18 36  1  6
 19 20  1  0
 19 37  1  0
 19 38  1  0
 20 21  1  0
 21 22  1  1
 21 23  1  0
 22 39  1  0
 22 40  1  0
 22 41  1  0
 23 24  1  0
 23 42  1  0
 23 43  1  0
 24 44  1  6
M  END
>  <i_m_ct_stereo_status>  (21) 
1

>  <s_m_source_file>  (21) 
/var/tmp/pbs.5076255.sched01/tmp6yc3ji7b/0haed4tc5.sdf

>  <i_m_source_file_index>  (21) 
7

>  <i_lp_mmshare_version>  (21) 
48012

>  <i_f3d_flags>  (21) 
0

>  <s_epik_input>  (21) 
W0NIM11bQ0BdMShbQ0gyXTIpT1tDSDJdW0NASF0zW0NAQEhdMkMoPVtDSDJdKVtDQEBIXShbT0hdKVtDQEBIXShbQ0BAXTEzNClbQ0BIXShPQyg9TylbQ0BIXTRbT0hdKWM1W2NIXVtjSF1vW2NIXTU=

>  <s_epik_cmdline>  (21) 
J2VwaWtfcHl0aG9uJywgJy1waHQnLCAnMi4wJywgJy1waCcsICc3LjAnLCAnLXRuJywgJzgnLCAnLW1hJywgJzIwMCcsICctaW1hZScsICc8aW5maWxlLm1hZT4nLCAnLW9tYWUnLCAnPG91dGZpbGUubWFlPic=

>  <r_epik_Ionization_Penalty>  (21) 
0.00058542

>  <r_epik_Ionization_Penalty_Charging>  (21) 
0

>  <r_epik_Ionization_Penalty_Neutral>  (21) 
0.00058542

>  <r_epik_State_Penalty>  (21) 
0.000367772

>  <r_epik_Charging_Adjusted_Penalty>  (21) 
0.000367772

>  <i_epik_Tot_Q>  (21) 
0

>  <i_epik_Tot_abs_Q>  (21) 
0

>  <s_epik_Chemistry_Notes>  (21) 
This compound has an ester and may undergo hydrolysis at high or low pH.

>  <s_lp_Force_Field>  (21) 
OPLS3e

>  <r_lp_Energy>  (21) 
51.775

>  <b_lp_Chiralities_Consistent>  (21) 
1

>  <s_lp_Variant>  (21) 
4:0-1

>  <s_i_glide_gridfile>  (21) 
pfpi4k_grid

>  <i_i_glide_lignum>  (21) 
7

>  <i_i_glide_rotatable_bonds>  (21) 
3

>  <r_i_docking_score>  (21) 
-3.97285

>  <r_i_glide_ligand_efficiency>  (21) 
-0.165535

>  <r_i_glide_ligand_efficiency_sa>  (21) 
-0.477487

>  <r_i_glide_ligand_efficiency_ln>  (21) 
-0.950885

>  <r_i_glide_gscore>  (21) 
-3.97285

>  <r_i_glide_lipo>  (21) 
-0.375979

>  <r_i_glide_hbond>  (21) 
-0.325871

>  <r_i_glide_metal>  (21) 
-0

>  <r_i_glide_rewards>  (21) 
-1.17712

>  <r_i_glide_evdw>  (21) 
-22.4165

>  <r_i_glide_ecoul>  (21) 
-7.62377

>  <r_i_glide_erotb>  (21) 
0.170506

>  <r_i_glide_esite>  (21) 
0

>  <r_i_glide_emodel>  (21) 
-35.881

>  <r_i_glide_energy>  (21) 
-30.0402

>  <r_i_glide_einternal>  (21) 
2.11433

>  <r_i_glide_intrahb_reward>  (21) 
-0

>  <i_i_glide_confnum>  (21) 
3

>  <i_i_glide_posenum>  (21) 
39

>  <r_i_glide_eff_state_penalty>  (21) 
0

>  <ligand_id>  (21) 
4

>  <original_smiles>  (21) 
C=C1C(O)C2C(c3ccoc3)OC(=O)C(O)C23C2COC3(C)CC12

>  <smiles>  (21) 
[H]OC1([H])C(=C([H])[H])C2([H])C([H])([H])C3(C([H])([H])[H])OC([H])([H])C2([H])C32C([H])(O[H])C(=O)OC([H])(c3c([H])oc([H])c3[H])C12[H]

$$$$
5:0:0
     RDKit          3D

 49 52  0  0  1  0  0  0  0  0999 V2000
    4.1641   -4.5741    4.3737 C   0  0  0  0  0  0  0  0  0  0  0  0
    2.7940   -4.0326    3.9053 C   0  0  2  0  0  0  0  0  0  0  0  0
    2.1972   -4.8945    2.7811 C   0  0  0  0  0  0  0  0  0  0  0  0
    3.0492   -4.8697    1.4997 C   0  0  0  0  0  0  0  0  0  0  0  0
    3.6987   -3.4939    1.1605 C   0  0  2  0  0  0  0  0  0  0  0  0
    3.0594   -2.3010    1.9229 C   0  0  2  0  0  0  0  0  0  0  0  0
    3.9154   -1.0297    1.7267 C   0  0  0  0  0  0  0  0  0  0  0  0
    4.3818   -0.8451    0.3023 C   0  0  0  0  0  0  0  0  0  0  0  0
    4.3697   -1.8008   -0.6453 C   0  0  0  0  0  0  0  0  0  0  0  0
    4.6673   -1.4589   -2.0978 C   0  0  0  0  0  0  0  0  0  0  0  0
    3.3965   -1.6634   -2.9393 C   0  0  1  0  0  0  0  0  0  0  0  0
    3.6868   -1.4737   -4.3136 O   0  0  0  0  0  0  0  0  0  0  0  0
    2.7775   -3.0537   -2.7309 C   0  0  0  0  0  0  0  0  0  0  0  0
    2.6199   -3.4371   -1.2357 C   0  0  0  0  0  0  0  0  0  0  0  0
    3.9109   -3.2437   -0.3837 C   0  0  2  0  0  0  0  0  0  0  0  0
    5.0008   -4.2435   -0.8543 C   0  0  0  0  0  0  0  0  0  0  0  0
    2.8464   -2.5497    3.4562 C   0  0  1  0  0  0  0  0  0  0  0  0
    1.5481   -1.8998    3.9958 C   0  0  0  0  0  0  0  0  0  0  0  0
    1.1928   -2.6395    5.2876 C   0  0  0  0  0  0  0  0  0  0  0  0
    1.8407   -3.9958    5.1030 C   0  0  0  0  0  0  0  0  0  0  0  0
    1.6228   -4.9536    5.8450 O   0  0  0  0  0  0  0  0  0  0  0  0
    4.9435   -4.4309    3.6290 H   0  0  0  0  0  0  0  0  0  0  0  0
    4.1136   -5.6430    4.5844 H   0  0  0  0  0  0  0  0  0  0  0  0
    4.5030   -4.0830    5.2868 H   0  0  0  0  0  0  0  0  0  0  0  0
    2.0570   -5.9274    3.1116 H   0  0  0  0  0  0  0  0  0  0  0  0
    1.2010   -4.5170    2.5401 H   0  0  0  0  0  0  0  0  0  0  0  0
    3.8535   -5.6027    1.5959 H   0  0  0  0  0  0  0  0  0  0  0  0
    2.4241   -5.2501    0.6959 H   0  0  0  0  0  0  0  0  0  0  0  0
    4.7031   -3.5418    1.5818 H   0  0  0  0  0  0  0  0  0  0  0  0
    2.0861   -2.1256    1.4613 H   0  0  0  0  0  0  0  0  0  0  0  0
    3.3337   -0.1513    2.0131 H   0  0  0  0  0  0  0  0  0  0  0  0
    4.8048   -1.0458    2.3592 H   0  0  0  0  0  0  0  0  0  0  0  0
    4.6989    0.1506    0.0478 H   0  0  0  0  0  0  0  0  0  0  0  0
    5.0027   -0.4241   -2.1846 H   0  0  0  0  0  0  0  0  0  0  0  0
    5.4832   -2.0759   -2.4714 H   0  0  0  0  0  0  0  0  0  0  0  0
    2.6647   -0.9047   -2.6435 H   0  0  0  0  0  0  0  0  0  0  0  0
    2.8650   -1.4575   -4.7879 H   0  0  0  0  0  0  0  0  0  0  0  0
    1.8001   -3.0899   -3.2132 H   0  0  0  0  0  0  0  0  0  0  0  0
    3.3794   -3.8096   -3.2410 H   0  0  0  0  0  0  0  0  0  0  0  0
    1.8263   -2.8331   -0.8078 H   0  0  0  0  0  0  0  0  0  0  0  0
    2.2543   -4.4571   -1.1939 H   0  0  0  0  0  0  0  0  0  0  0  0
    4.7049   -5.2750   -0.6624 H   0  0  0  0  0  0  0  0  0  0  0  0
    5.9498   -4.0698   -0.3434 H   0  0  0  0  0  0  0  0  0  0  0  0
    5.1977   -4.1881   -1.9250 H   0  0  0  0  0  0  0  0  0  0  0  0
    3.6742   -2.0980    4.0099 H   0  0  0  0  0  0  0  0  0  0  0  0
    1.6674   -0.8281    4.1651 H   0  0  0  0  0  0  0  0  0  0  0  0
    0.7233   -2.0320    3.2903 H   0  0  0  0  0  0  0  0  0  0  0  0
    1.6390   -2.1591    6.1568 H   0  0  0  0  0  0  0  0  0  0  0  0
    0.1191   -2.7235    5.4517 H   0  0  0  0  0  0  0  0  0  0  0  0
  2  1  1  1
  1 22  1  0
  1 23  1  0
  1 24  1  0
  2 17  1  0
  2 20  1  0
  2  3  1  0
  3  4  1  0
  3 25  1  0
  3 26  1  0
  4  5  1  0
  4 27  1  0
  4 28  1  0
  5 15  1  0
  5  6  1  0
  5 29  1  1
  6  7  1  0
  6 17  1  0
  6 30  1  6
  7  8  1  0
  7 31  1  0
  7 32  1  0
  8  9  2  0
  8 33  1  0
  9 15  1  0
  9 10  1  0
 10 11  1  0
 10 34  1  0
 10 35  1  0
 11 12  1  0
 11 13  1  0
 11 36  1  1
 12 37  1  0
 13 14  1  0
 13 38  1  0
 13 39  1  0
 14 15  1  0
 14 40  1  0
 14 41  1  0
 15 16  1  6
 16 42  1  0
 16 43  1  0
 16 44  1  0
 17 18  1  0
 17 45  1  1
 18 19  1  0
 18 46  1  0
 18 47  1  0
 19 20  1  0
 19 48  1  0
 19 49  1  0
 20 21  2  0
M  END
>  <i_m_ct_stereo_status>  (22) 
1

>  <s_m_source_file>  (22) 
/var/tmp/pbs.5076255.sched01/tmp6yc3ji7b/0haed4tc5.sdf

>  <i_m_source_file_index>  (22) 
8

>  <i_lp_mmshare_version>  (22) 
48012

>  <i_f3d_flags>  (22) 
0

>  <s_epik_input>  (22) 
Tz1DMVtDSDJdW0NIMl1bQ0BASF0oW0NAQF0xMltDSDNdKVtDQEBIXTNbQ0BASF0oW0NIMl1bQ0gyXTIpW0NAXTQoW0NIM10pQyg9W0NIXVtDSDJdMylbQ0gyXVtDQEBIXShbT0hdKVtDSDJdW0NIMl00

>  <s_epik_cmdline>  (22) 
J2VwaWtfcHl0aG9uJywgJy1waHQnLCAnMi4wJywgJy1waCcsICc3LjAnLCAnLXRuJywgJzgnLCAnLW1hJywgJzIwMCcsICctaW1hZScsICc8aW5maWxlLm1hZT4nLCAnLW9tYWUnLCAnPG91dGZpbGUubWFlPic=

>  <r_lp_tautomer_probability>  (22) 
1

>  <r_epik_Ionization_Penalty>  (22) 
1.21648e-06

>  <r_epik_Ionization_Penalty_Charging>  (22) 
0

>  <r_epik_Ionization_Penalty_Neutral>  (22) 
1.21648e-06

>  <r_epik_State_Penalty>  (22) 
-0

>  <r_epik_Charging_Adjusted_Penalty>  (22) 
0

>  <i_epik_Tot_Q>  (22) 
0

>  <i_epik_Tot_abs_Q>  (22) 
0

>  <s_lp_Force_Field>  (22) 
OPLS3e

>  <r_lp_Energy>  (22) 
25.0343

>  <b_lp_Chiralities_Consistent>  (22) 
1

>  <s_lp_Variant>  (22) 
5:0-1

>  <s_i_glide_gridfile>  (22) 
pfpi4k_grid

>  <i_i_glide_lignum>  (22) 
8

>  <i_i_glide_rotatable_bonds>  (22) 
1

>  <r_i_docking_score>  (22) 
-3.91688

>  <r_i_glide_ligand_efficiency>  (22) 
-0.186518

>  <r_i_glide_ligand_efficiency_sa>  (22) 
-0.51459

>  <r_i_glide_ligand_efficiency_ln>  (22) 
-0.968441

>  <r_i_glide_gscore>  (22) 
-3.91688

>  <r_i_glide_lipo>  (22) 
-0.146143

>  <r_i_glide_hbond>  (22) 
-0.389977

>  <r_i_glide_metal>  (22) 
-0

>  <r_i_glide_rewards>  (22) 
-1.4439

>  <r_i_glide_evdw>  (22) 
-24.8632

>  <r_i_glide_ecoul>  (22) 
-4.62473

>  <r_i_glide_erotb>  (22) 
0

>  <r_i_glide_esite>  (22) 
0

>  <r_i_glide_emodel>  (22) 
-36.2199

>  <r_i_glide_energy>  (22) 
-29.4879

>  <r_i_glide_einternal>  (22) 
0.341557

>  <r_i_glide_intrahb_reward>  (22) 
-0

>  <i_i_glide_confnum>  (22) 
2

>  <i_i_glide_posenum>  (22) 
35

>  <r_i_glide_eff_state_penalty>  (22) 
0

>  <ligand_id>  (22) 
5

>  <original_smiles>  (22) 
CC12CCC3C(CC=C4CC(O)CCC43C)C1CCC2=O

>  <smiles>  (22) 
[H]OC1([H])C([H])([H])C2=C([H])C([H])([H])C3([H])C4([H])C([H])([H])C([H])([H])C(=O)C4(C([H])([H])[H])C([H])([H])C([H])([H])C3([H])C2(C([H])([H])[H])C([H])([H])C1([H])[H]

$$$$
5:0:1
     RDKit          3D

 49 52  0  0  1  0  0  0  0  0999 V2000
    4.4585   -5.1414    3.5242 C   0  0  0  0  0  0  0  0  0  0  0  0
    3.0461   -4.6155    3.1881 C   0  0  2  0  0  0  0  0  0  0  0  0
    2.4506   -5.3198    1.9593 C   0  0  0  0  0  0  0  0  0  0  0  0
    3.2506   -5.0434    0.6737 C   0  0  0  0  0  0  0  0  0  0  0  0
    3.8108   -3.5934    0.5419 C   0  0  2  0  0  0  0  0  0  0  0  0
    3.1426   -2.5774    1.5057 C   0  0  2  0  0  0  0  0  0  0  0  0
    3.9229   -1.2443    1.4916 C   0  0  0  0  0  0  0  0  0  0  0  0
    4.3249   -0.8065    0.1030 C   0  0  0  0  0  0  0  0  0  0  0  0
    4.3235   -1.5983   -0.9839 C   0  0  0  0  0  0  0  0  0  0  0  0
    4.5532   -1.0240   -2.3739 C   0  0  0  0  0  0  0  0  0  0  0  0
    3.2704   -1.1704   -3.2058 C   0  0  1  0  0  0  0  0  0  0  0  0
    3.5043   -0.7683   -4.5429 O   0  0  0  0  0  0  0  0  0  0  0  0
    2.7297   -2.6103   -3.2044 C   0  0  0  0  0  0  0  0  0  0  0  0
    2.6388   -3.2117   -1.7840 C   0  0  0  0  0  0  0  0  0  0  0  0
    3.9489   -3.0851   -0.9455 C   0  0  2  0  0  0  0  0  0  0  0  0
    5.0712   -3.9277   -1.6028 C   0  0  0  0  0  0  0  0  0  0  0  0
    3.0020   -3.0783    2.9837 C   0  0  1  0  0  0  0  0  0  0  0  0
    1.6936   -2.5953    3.6569 C   0  0  0  0  0  0  0  0  0  0  0  0
    1.4270   -3.5483    4.8222 C   0  0  0  0  0  0  0  0  0  0  0  0
    2.1361   -4.8215    4.4043 C   0  0  0  0  0  0  0  0  0  0  0  0
    1.9980   -5.8942    4.9886 O   0  0  0  0  0  0  0  0  0  0  0  0
    5.2008   -4.8370    2.7901 H   0  0  0  0  0  0  0  0  0  0  0  0
    4.4722   -6.2297    3.5629 H   0  0  0  0  0  0  0  0  0  0  0  0
    4.8056   -4.7813    4.4940 H   0  0  0  0  0  0  0  0  0  0  0  0
    2.3804   -6.3981    2.1241 H   0  0  0  0  0  0  0  0  0  0  0  0
    1.4272   -4.9734    1.8148 H   0  0  0  0  0  0  0  0  0  0  0  0
    4.0960   -5.7334    0.6265 H   0  0  0  0  0  0  0  0  0  0  0  0
    2.6187   -5.3247   -0.1653 H   0  0  0  0  0  0  0  0  0  0  0  0
    4.8336   -3.6516    0.9183 H   0  0  0  0  0  0  0  0  0  0  0  0
    2.1461   -2.3870    1.1033 H   0  0  0  0  0  0  0  0  0  0  0  0
    3.3075   -0.4584    1.9300 H   0  0  0  0  0  0  0  0  0  0  0  0
    4.8363   -1.3093    2.0860 H   0  0  0  0  0  0  0  0  0  0  0  0
    4.5843    0.2351    0.0132 H   0  0  0  0  0  0  0  0  0  0  0  0
    4.8258    0.0290   -2.3145 H   0  0  0  0  0  0  0  0  0  0  0  0
    5.3876   -1.5322   -2.8501 H   0  0  0  0  0  0  0  0  0  0  0  0
    2.5214   -0.5049   -2.7733 H   0  0  0  0  0  0  0  0  0  0  0  0
    2.6828   -0.8182   -5.0133 H   0  0  0  0  0  0  0  0  0  0  0  0
    1.7388   -2.6280   -3.6609 H   0  0  0  0  0  0  0  0  0  0  0  0
    3.3513   -3.2432   -3.8384 H   0  0  0  0  0  0  0  0  0  0  0  0
    1.8294   -2.7216   -1.2509 H   0  0  0  0  0  0  0  0  0  0  0  0
    2.3197   -4.2414   -1.9004 H   0  0  0  0  0  0  0  0  0  0  0  0
    4.8447   -4.9935   -1.5596 H   0  0  0  0  0  0  0  0  0  0  0  0
    6.0278   -3.7813   -1.0992 H   0  0  0  0  0  0  0  0  0  0  0  0
    5.2261   -3.7008   -2.6562 H   0  0  0  0  0  0  0  0  0  0  0  0
    3.8263   -2.6722    3.5751 H   0  0  0  0  0  0  0  0  0  0  0  0
    1.7636   -1.5592    3.9918 H   0  0  0  0  0  0  0  0  0  0  0  0
    0.8521   -2.6591    2.9648 H   0  0  0  0  0  0  0  0  0  0  0  0
    1.8794   -3.1890    5.7459 H   0  0  0  0  0  0  0  0  0  0  0  0
    0.3657   -3.7210    5.0018 H   0  0  0  0  0  0  0  0  0  0  0  0
  2  1  1  1
  1 22  1  0
  1 23  1  0
  1 24  1  0
  2 17  1  0
  2 20  1  0
  2  3  1  0
  3  4  1  0
  3 25  1  0
  3 26  1  0
  4  5  1  0
  4 27  1  0
  4 28  1  0
  5 15  1  0
  5  6  1  0
  5 29  1  1
  6  7  1  0
  6 17  1  0
  6 30  1  6
  7  8  1  0
  7 31  1  0
  7 32  1  0
  8  9  2  0
  8 33  1  0
  9 15  1  0
  9 10  1  0
 10 11  1  0
 10 34  1  0
 10 35  1  0
 11 12  1  0
 11 13  1  0
 11 36  1  1
 12 37  1  0
 13 14  1  0
 13 38  1  0
 13 39  1  0
 14 15  1  0
 14 40  1  0
 14 41  1  0
 15 16  1  6
 16 42  1  0
 16 43  1  0
 16 44  1  0
 17 18  1  0
 17 45  1  1
 18 19  1  0
 18 46  1  0
 18 47  1  0
 19 20  1  0
 19 48  1  0
 19 49  1  0
 20 21  2  0
M  END
>  <i_m_ct_stereo_status>  (23) 
1

>  <s_m_source_file>  (23) 
/var/tmp/pbs.5076255.sched01/tmp6yc3ji7b/0haed4tc5.sdf

>  <i_m_source_file_index>  (23) 
8

>  <i_lp_mmshare_version>  (23) 
48012

>  <i_f3d_flags>  (23) 
0

>  <s_epik_input>  (23) 
Tz1DMVtDSDJdW0NIMl1bQ0BASF0oW0NAQF0xMltDSDNdKVtDQEBIXTNbQ0BASF0oW0NIMl1bQ0gyXTIpW0NAXTQoW0NIM10pQyg9W0NIXVtDSDJdMylbQ0gyXVtDQEBIXShbT0hdKVtDSDJdW0NIMl00

>  <s_epik_cmdline>  (23) 
J2VwaWtfcHl0aG9uJywgJy1waHQnLCAnMi4wJywgJy1waCcsICc3LjAnLCAnLXRuJywgJzgnLCAnLW1hJywgJzIwMCcsICctaW1hZScsICc8aW5maWxlLm1hZT4nLCAnLW9tYWUnLCAnPG91dGZpbGUubWFlPic=

>  <r_lp_tautomer_probability>  (23) 
1

>  <r_epik_Ionization_Penalty>  (23) 
1.21648e-06

>  <r_epik_Ionization_Penalty_Charging>  (23) 
0

>  <r_epik_Ionization_Penalty_Neutral>  (23) 
1.21648e-06

>  <r_epik_State_Penalty>  (23) 
-0

>  <r_epik_Charging_Adjusted_Penalty>  (23) 
0

>  <i_epik_Tot_Q>  (23) 
0

>  <i_epik_Tot_abs_Q>  (23) 
0

>  <s_lp_Force_Field>  (23) 
OPLS3e

>  <r_lp_Energy>  (23) 
25.0343

>  <b_lp_Chiralities_Consistent>  (23) 
1

>  <s_lp_Variant>  (23) 
5:0-1

>  <s_i_glide_gridfile>  (23) 
pfpi4k_grid

>  <i_i_glide_lignum>  (23) 
8

>  <i_i_glide_rotatable_bonds>  (23) 
1

>  <r_i_docking_score>  (23) 
-3.74285

>  <r_i_glide_ligand_efficiency>  (23) 
-0.178231

>  <r_i_glide_ligand_efficiency_sa>  (23) 
-0.491725

>  <r_i_glide_ligand_efficiency_ln>  (23) 
-0.925411

>  <r_i_glide_gscore>  (23) 
-3.74285

>  <r_i_glide_lipo>  (23) 
-0.289525

>  <r_i_glide_hbond>  (23) 
-0.12742

>  <r_i_glide_metal>  (23) 
-0

>  <r_i_glide_rewards>  (23) 
-1.44256

>  <r_i_glide_evdw>  (23) 
-25.4887

>  <r_i_glide_ecoul>  (23) 
-4.05938

>  <r_i_glide_erotb>  (23) 
0

>  <r_i_glide_esite>  (23) 
0

>  <r_i_glide_emodel>  (23) 
-35.9785

>  <r_i_glide_energy>  (23) 
-29.5481

>  <r_i_glide_einternal>  (23) 
0.341126

>  <r_i_glide_intrahb_reward>  (23) 
-0

>  <i_i_glide_confnum>  (23) 
2

>  <i_i_glide_posenum>  (23) 
28

>  <r_i_glide_eff_state_penalty>  (23) 
0

>  <ligand_id>  (23) 
5

>  <original_smiles>  (23) 
CC12CCC3C(CC=C4CC(O)CCC43C)C1CCC2=O

>  <smiles>  (23) 
[H]OC1([H])C([H])([H])C2=C([H])C([H])([H])C3([H])C4([H])C([H])([H])C([H])([H])C(=O)C4(C([H])([H])[H])C([H])([H])C([H])([H])C3([H])C2(C([H])([H])[H])C([H])([H])C1([H])[H]

$$$$
5:0:2
     RDKit          3D

 49 52  0  0  1  0  0  0  0  0999 V2000
    4.2444   -5.3360    3.5219 C   0  0  0  0  0  0  0  0  0  0  0  0
    2.8513   -4.7849    3.1492 C   0  0  2  0  0  0  0  0  0  0  0  0
    2.3032   -5.4476    1.8765 C   0  0  0  0  0  0  0  0  0  0  0  0
    3.1485   -5.1335    0.6297 C   0  0  0  0  0  0  0  0  0  0  0  0
    3.7263   -3.6878    0.5671 C   0  0  2  0  0  0  0  0  0  0  0  0
    3.0315   -2.6942    1.5362 C   0  0  2  0  0  0  0  0  0  0  0  0
    3.8239   -1.3671    1.5922 C   0  0  0  0  0  0  0  0  0  0  0  0
    4.2825   -0.8870    0.2327 C   0  0  0  0  0  0  0  0  0  0  0  0
    4.3151   -1.6488   -0.8753 C   0  0  0  0  0  0  0  0  0  0  0  0
    4.6014   -1.0324   -2.2364 C   0  0  0  0  0  0  0  0  0  0  0  0
    3.3525   -1.1339   -3.1181 C   0  0  1  0  0  0  0  0  0  0  0  0
    3.6519   -0.6551   -4.4129 O   0  0  0  0  0  0  0  0  0  0  0  0
    2.8012   -2.5705   -3.1888 C   0  0  0  0  0  0  0  0  0  0  0  0
    2.6460   -3.2107   -1.7886 C   0  0  0  0  0  0  0  0  0  0  0  0
    3.9245   -3.1326   -0.8987 C   0  0  2  0  0  0  0  0  0  0  0  0
    5.0617   -3.9678   -1.5373 C   0  0  0  0  0  0  0  0  0  0  0  0
    2.8283   -3.2423    2.9914 C   0  0  1  0  0  0  0  0  0  0  0  0
    1.5000   -2.7661    3.6284 C   0  0  0  0  0  0  0  0  0  0  0  0
    1.1776   -3.7537    4.7513 C   0  0  0  0  0  0  0  0  0  0  0  0
    1.8908   -5.0186    4.3189 C   0  0  0  0  0  0  0  0  0  0  0  0
    1.7162   -6.1077    4.8636 O   0  0  0  0  0  0  0  0  0  0  0  0
    5.0153   -5.0168    2.8252 H   0  0  0  0  0  0  0  0  0  0  0  0
    4.2454   -6.4257    3.5257 H   0  0  0  0  0  0  0  0  0  0  0  0
    4.5568   -5.0107    4.5146 H   0  0  0  0  0  0  0  0  0  0  0  0
    2.2147   -6.5297    2.0029 H   0  0  0  0  0  0  0  0  0  0  0  0
    1.2922   -5.0829    1.7059 H   0  0  0  0  0  0  0  0  0  0  0  0
    3.9875   -5.8309    0.5884 H   0  0  0  0  0  0  0  0  0  0  0  0
    2.5464   -5.3803   -0.2399 H   0  0  0  0  0  0  0  0  0  0  0  0
    4.7329   -3.7672    0.9790 H   0  0  0  0  0  0  0  0  0  0  0  0
    2.0527   -2.4809    1.1023 H   0  0  0  0  0  0  0  0  0  0  0  0
    3.1982   -0.5906    2.0346 H   0  0  0  0  0  0  0  0  0  0  0  0
    4.7124   -1.4626    2.2196 H   0  0  0  0  0  0  0  0  0  0  0  0
    4.5512    0.1533    0.1758 H   0  0  0  0  0  0  0  0  0  0  0  0
    4.8869    0.0123   -2.1307 H   0  0  0  0  0  0  0  0  0  0  0  0
    5.4377   -1.5399   -2.7091 H   0  0  0  0  0  0  0  0  0  0  0  0
    2.5809   -0.4874   -2.6999 H   0  0  0  0  0  0  0  0  0  0  0  0
    3.5053    0.2797   -4.4178 H   0  0  0  0  0  0  0  0  0  0  0  0
    1.8278   -2.5557   -3.6836 H   0  0  0  0  0  0  0  0  0  0  0  0
    3.4411   -3.1885   -3.8164 H   0  0  0  0  0  0  0  0  0  0  0  0
    1.8253   -2.7213   -1.2732 H   0  0  0  0  0  0  0  0  0  0  0  0
    2.3123   -4.2303   -1.9396 H   0  0  0  0  0  0  0  0  0  0  0  0
    4.8230   -5.0303   -1.5361 H   0  0  0  0  0  0  0  0  0  0  0  0
    6.0001   -3.8480   -0.9948 H   0  0  0  0  0  0  0  0  0  0  0  0
    5.2608   -3.7099   -2.5764 H   0  0  0  0  0  0  0  0  0  0  0  0
    3.6316   -2.8625    3.6262 H   0  0  0  0  0  0  0  0  0  0  0  0
    1.5651   -1.7412    3.9982 H   0  0  0  0  0  0  0  0  0  0  0  0
    0.6844   -2.7977    2.9019 H   0  0  0  0  0  0  0  0  0  0  0  0
    1.5954   -3.4256    5.7028 H   0  0  0  0  0  0  0  0  0  0  0  0
    0.1078   -3.9189    4.8814 H   0  0  0  0  0  0  0  0  0  0  0  0
  2  1  1  1
  1 22  1  0
  1 23  1  0
  1 24  1  0
  2 17  1  0
  2 20  1  0
  2  3  1  0
  3  4  1  0
  3 25  1  0
  3 26  1  0
  4  5  1  0
  4 27  1  0
  4 28  1  0
  5 15  1  0
  5  6  1  0
  5 29  1  1
  6  7  1  0
  6 17  1  0
  6 30  1  6
  7  8  1  0
  7 31  1  0
  7 32  1  0
  8  9  2  0
  8 33  1  0
  9 15  1  0
  9 10  1  0
 10 11  1  0
 10 34  1  0
 10 35  1  0
 11 12  1  0
 11 13  1  0
 11 36  1  1
 12 37  1  0
 13 14  1  0
 13 38  1  0
 13 39  1  0
 14 15  1  0
 14 40  1  0
 14 41  1  0
 15 16  1  6
 16 42  1  0
 16 43  1  0
 16 44  1  0
 17 18  1  0
 17 45  1  1
 18 19  1  0
 18 46  1  0
 18 47  1  0
 19 20  1  0
 19 48  1  0
 19 49  1  0
 20 21  2  0
M  END
>  <i_m_ct_stereo_status>  (24) 
1

>  <s_m_source_file>  (24) 
/var/tmp/pbs.5076255.sched01/tmp6yc3ji7b/0haed4tc5.sdf

>  <i_m_source_file_index>  (24) 
8

>  <i_lp_mmshare_version>  (24) 
48012

>  <i_f3d_flags>  (24) 
0

>  <s_epik_input>  (24) 
Tz1DMVtDSDJdW0NIMl1bQ0BASF0oW0NAQF0xMltDSDNdKVtDQEBIXTNbQ0BASF0oW0NIMl1bQ0gyXTIpW0NAXTQoW0NIM10pQyg9W0NIXVtDSDJdMylbQ0gyXVtDQEBIXShbT0hdKVtDSDJdW0NIMl00

>  <s_epik_cmdline>  (24) 
J2VwaWtfcHl0aG9uJywgJy1waHQnLCAnMi4wJywgJy1waCcsICc3LjAnLCAnLXRuJywgJzgnLCAnLW1hJywgJzIwMCcsICctaW1hZScsICc8aW5maWxlLm1hZT4nLCAnLW9tYWUnLCAnPG91dGZpbGUubWFlPic=

>  <r_lp_tautomer_probability>  (24) 
1

>  <r_epik_Ionization_Penalty>  (24) 
1.21648e-06

>  <r_epik_Ionization_Penalty_Charging>  (24) 
0

>  <r_epik_Ionization_Penalty_Neutral>  (24) 
1.21648e-06

>  <r_epik_State_Penalty>  (24) 
-0

>  <r_epik_Charging_Adjusted_Penalty>  (24) 
0

>  <i_epik_Tot_Q>  (24) 
0

>  <i_epik_Tot_abs_Q>  (24) 
0

>  <s_lp_Force_Field>  (24) 
OPLS3e

>  <r_lp_Energy>  (24) 
25.0343

>  <b_lp_Chiralities_Consistent>  (24) 
1

>  <s_lp_Variant>  (24) 
5:0-1

>  <s_i_glide_gridfile>  (24) 
pfpi4k_grid

>  <i_i_glide_lignum>  (24) 
8

>  <i_i_glide_rotatable_bonds>  (24) 
1

>  <r_i_docking_score>  (24) 
-3.47143

>  <r_i_glide_ligand_efficiency>  (24) 
-0.165306

>  <r_i_glide_ligand_efficiency_sa>  (24) 
-0.456067

>  <r_i_glide_ligand_efficiency_ln>  (24) 
-0.858304

>  <r_i_glide_gscore>  (24) 
-3.47143

>  <r_i_glide_lipo>  (24) 
-0.260633

>  <r_i_glide_hbond>  (24) 
0

>  <r_i_glide_metal>  (24) 
-0

>  <r_i_glide_rewards>  (24) 
-1.44256

>  <r_i_glide_evdw>  (24) 
-26.0573

>  <r_i_glide_ecoul>  (24) 
-3.09678

>  <r_i_glide_erotb>  (24) 
0

>  <r_i_glide_esite>  (24) 
-0.000852023

>  <r_i_glide_emodel>  (24) 
-34.6168

>  <r_i_glide_energy>  (24) 
-29.1541

>  <r_i_glide_einternal>  (24) 
0.80245

>  <r_i_glide_intrahb_reward>  (24) 
-0

>  <i_i_glide_confnum>  (24) 
1

>  <i_i_glide_posenum>  (24) 
20

>  <r_i_glide_eff_state_penalty>  (24) 
0

>  <ligand_id>  (24) 
5

>  <original_smiles>  (24) 
CC12CCC3C(CC=C4CC(O)CCC43C)C1CCC2=O

>  <smiles>  (24) 
[H]OC1([H])C([H])([H])C2=C([H])C([H])([H])C3([H])C4([H])C([H])([H])C([H])([H])C(=O)C4(C([H])([H])[H])C([H])([H])C([H])([H])C3([H])C2(C([H])([H])[H])C([H])([H])C1([H])[H]

$$$$
6:0:0
     RDKit          3D

 43 47  0  0  1  0  0  0  0  0999 V2000
    0.3391    6.0123    7.3155 C   0  0  0  0  0  0  0  0  0  0  0  0
   -0.4959    4.9707    6.8125 O   0  0  0  0  0  0  0  0  0  0  0  0
    0.1134    3.7068    6.5150 C   0  0  1  0  0  0  0  0  0  0  0  0
    0.3954    2.9759    7.8518 C   0  0  0  0  0  0  0  0  0  0  0  0
   -0.9767    2.3960    8.2950 C   0  0  0  0  0  0  0  0  0  0  0  0
   -1.8704    2.2861    7.0373 C   0  0  2  0  0  0  0  0  0  0  0  0
   -2.1953    0.9225    6.6948 O   0  0  0  0  0  0  0  0  0  0  0  0
   -1.2189    0.4890    5.8405 C   0  0  0  0  0  0  0  0  0  0  0  0
   -0.9172   -0.8131    5.3862 C   0  0  0  0  0  0  0  0  0  0  0  0
   -1.7546   -1.8499    5.6805 O   0  0  0  0  0  0  0  0  0  0  0  0
    0.2796   -1.0447    4.6579 C   0  0  0  0  0  0  0  0  0  0  0  0
    1.2107   -0.0021    4.4329 C   0  0  0  0  0  0  0  0  0  0  0  0
    0.9049    1.3084    4.8558 C   0  0  0  0  0  0  0  0  0  0  0  0
   -0.3481    1.4852    5.4597 C   0  0  0  0  0  0  0  0  0  0  0  0
   -0.9446    2.7908    5.9129 C   0  0  2  0  0  0  0  0  0  0  0  0
   -1.6420    3.5028    4.7309 C   0  0  0  0  0  0  0  0  0  0  0  0
   -0.6116    3.8767    3.6434 C   0  0  0  0  0  0  0  0  0  0  0  0
    0.5802    4.5637    4.2200 N   0  0  2  0  0  0  0  0  0  0  0  0
    1.5355    4.9858    3.1660 C   0  0  0  0  0  0  0  0  0  0  0  0
    1.1998    3.8584    5.3956 C   0  0  2  0  0  0  0  0  0  0  0  0
    1.8397    2.5081    4.9684 C   0  0  0  0  0  0  0  0  0  0  0  0
   -0.2871    6.8520    7.6165 H   0  0  0  0  0  0  0  0  0  0  0  0
    1.0231    6.3823    6.5527 H   0  0  0  0  0  0  0  0  0  0  0  0
    0.9220    5.7214    8.1882 H   0  0  0  0  0  0  0  0  0  0  0  0
    1.0974    2.1544    7.7042 H   0  0  0  0  0  0  0  0  0  0  0  0
    0.8262    3.6069    8.6277 H   0  0  0  0  0  0  0  0  0  0  0  0
   -0.8580    1.4378    8.7999 H   0  0  0  0  0  0  0  0  0  0  0  0
   -1.4488    3.0675    9.0099 H   0  0  0  0  0  0  0  0  0  0  0  0
   -2.7707    2.8937    7.1440 H   0  0  0  0  0  0  0  0  0  0  0  0
   -1.3892   -2.6777    5.4032 H   0  0  0  0  0  0  0  0  0  0  0  0
    0.5254   -2.0394    4.3207 H   0  0  0  0  0  0  0  0  0  0  0  0
    2.1677   -0.2078    3.9706 H   0  0  0  0  0  0  0  0  0  0  0  0
   -2.4278    2.8754    4.3064 H   0  0  0  0  0  0  0  0  0  0  0  0
   -2.1420    4.4061    5.0836 H   0  0  0  0  0  0  0  0  0  0  0  0
   -0.3053    2.9836    3.0966 H   0  0  0  0  0  0  0  0  0  0  0  0
   -1.0814    4.5271    2.9054 H   0  0  0  0  0  0  0  0  0  0  0  0
    1.8646    4.1440    2.5546 H   0  0  0  0  0  0  0  0  0  0  0  0
    2.4132    5.4711    3.5922 H   0  0  0  0  0  0  0  0  0  0  0  0
    1.0529    5.6977    2.4931 H   0  0  0  0  0  0  0  0  0  0  0  0
    2.0080    4.4910    5.7575 H   0  0  0  0  0  0  0  0  0  0  0  0
    2.5839    2.2386    5.7186 H   0  0  0  0  0  0  0  0  0  0  0  0
    2.4046    2.5961    4.0404 H   0  0  0  0  0  0  0  0  0  0  0  0
    0.2288    5.4272    4.6102 H   0  0  0  0  0  0  0  0  0  0  0  0
  1  2  1  0
  1 22  1  0
  1 23  1  0
  1 24  1  0
  3  2  1  1
  3 15  1  0
  3 20  1  0
  3  4  1  0
  4  5  1  0
  4 25  1  0
  4 26  1  0
  5  6  1  0
  5 27  1  0
  5 28  1  0
  6 15  1  0
  6  7  1  0
  6 29  1  1
  7  8  1  0
  8 14  2  0
  8  9  1  0
  9 10  1  0
  9 11  2  0
 10 30  1  0
 11 12  1  0
 11 31  1  0
 12 13  2  0
 12 32  1  0
 13 21  1  0
 13 14  1  0
 14 15  1  0
 15 16  1  6
 16 17  1  0
 16 33  1  0
 16 34  1  0
 17 18  1  0
 17 35  1  0
 17 36  1  0
 18 19  1  0
 18 20  1  0
 18 43  1  1
 19 37  1  0
 19 38  1  0
 19 39  1  0
 20 21  1  0
 20 40  1  1
 21 41  1  0
 21 42  1  0
M  CHG  1  18   1
M  END
>  <i_m_ct_stereo_status>  (25) 
1

>  <s_m_source_file>  (25) 
/var/tmp/pbs.5076255.sched01/tmp6yc3ji7b/0haed4tc5.sdf

>  <i_m_source_file_index>  (25) 
9

>  <i_lp_mmshare_version>  (25) 
48012

>  <i_f3d_flags>  (25) 
0

>  <s_epik_input>  (25) 
W0NIM11PW0NAQF0xKFtDQF0yMzQpW0NASF0oTihbQ0gzXSlbQ0gyXVtDSDJdNClbQ0gyXWM1YzNjKGMoW09IXSlbY0hdW2NIXTUpT1tDQEhdMltDSDJdW0NIMl0x

>  <s_epik_cmdline>  (25) 
J2VwaWtfcHl0aG9uJywgJy1waHQnLCAnMi4wJywgJy1waCcsICc3LjAnLCAnLXRuJywgJzgnLCAnLW1hJywgJzIwMCcsICctaW1hZScsICc8aW5maWxlLm1hZT4nLCAnLW9tYWUnLCAnPG91dGZpbGUubWFlPic=

>  <r_lp_tautomer_probability>  (25) 
1

>  <r_epik_Ionization_Penalty>  (25) 
0.205345

>  <r_epik_Ionization_Penalty_Charging>  (25) 
0.196522

>  <r_epik_Ionization_Penalty_Neutral>  (25) 
0.00882336

>  <r_epik_State_Penalty>  (25) 
0.256007

>  <r_epik_Charging_Adjusted_Penalty>  (25) 
0.452528

>  <i_epik_Tot_Q>  (25) 
1

>  <i_epik_Tot_abs_Q>  (25) 
1

>  <s_lp_Force_Field>  (25) 
OPLS3e

>  <r_lp_Energy>  (25) 
65.7215

>  <b_lp_Chiralities_Consistent>  (25) 
1

>  <s_lp_Variant>  (25) 
6:0-1

>  <s_i_glide_gridfile>  (25) 
pfpi4k_grid

>  <i_i_glide_lignum>  (25) 
9

>  <i_i_glide_rotatable_bonds>  (25) 
2

>  <r_i_docking_score>  (25) 
-3.22305

>  <r_i_glide_ligand_efficiency>  (25) 
-0.153479

>  <r_i_glide_ligand_efficiency_sa>  (25) 
-0.423436

>  <r_i_glide_ligand_efficiency_ln>  (25) 
-0.796894

>  <r_i_glide_gscore>  (25) 
-3.22305

>  <r_i_glide_lipo>  (25) 
0

>  <r_i_glide_hbond>  (25) 
-0.16

>  <r_i_glide_metal>  (25) 
-0

>  <r_i_glide_rewards>  (25) 
-1.44299

>  <r_i_glide_evdw>  (25) 
-15.178

>  <r_i_glide_ecoul>  (25) 
-5.38051

>  <r_i_glide_erotb>  (25) 
0

>  <r_i_glide_esite>  (25) 
-0.0540874

>  <r_i_glide_emodel>  (25) 
-26.4439

>  <r_i_glide_energy>  (25) 
-20.5585

>  <r_i_glide_einternal>  (25) 
0.0263692

>  <r_i_glide_intrahb_reward>  (25) 
-0

>  <i_i_glide_confnum>  (25) 
2

>  <i_i_glide_posenum>  (25) 
8

>  <r_i_glide_eff_state_penalty>  (25) 
0

>  <ligand_id>  (25) 
6

>  <original_smiles>  (25) 
COC12CCC3Oc4c(O)ccc5c4C31CCN(C)C2C5

>  <smiles>  (25) 
[H]Oc1c([H])c([H])c2c3c1OC1([H])C([H])([H])C([H])([H])C4(OC([H])([H])[H])C31C([H])([H])C([H])([H])[N+]([H])(C([H])([H])[H])C4([H])C2([H])[H]

$$$$
6:0:1
     RDKit          3D

 43 47  0  0  1  0  0  0  0  0999 V2000
    2.0120   -2.7804    3.0692 C   0  0  0  0  0  0  0  0  0  0  0  0
    1.8558   -1.9143    4.1910 O   0  0  0  0  0  0  0  0  0  0  0  0
    0.7066   -1.0578    4.2268 C   0  0  1  0  0  0  0  0  0  0  0  0
   -0.5200   -1.9187    4.6027 C   0  0  0  0  0  0  0  0  0  0  0  0
   -0.4102   -2.1275    6.1362 C   0  0  0  0  0  0  0  0  0  0  0  0
    0.4714   -0.9903    6.7079 C   0  0  2  0  0  0  0  0  0  0  0  0
   -0.2440   -0.0918    7.5820 O   0  0  0  0  0  0  0  0  0  0  0  0
   -0.7559    0.9017    6.7942 C   0  0  0  0  0  0  0  0  0  0  0  0
   -1.7175    1.8933    7.0799 C   0  0  0  0  0  0  0  0  0  0  0  0
   -2.1852    2.0381    8.3523 O   0  0  0  0  0  0  0  0  0  0  0  0
   -2.2224    2.7101    6.0342 C   0  0  0  0  0  0  0  0  0  0  0  0
   -1.8350    2.4928    4.6865 C   0  0  0  0  0  0  0  0  0  0  0  0
   -0.8597    1.5208    4.3969 C   0  0  0  0  0  0  0  0  0  0  0  0
   -0.3082    0.8417    5.4921 C   0  0  0  0  0  0  0  0  0  0  0  0
    0.8099   -0.1628    5.4551 C   0  0  2  0  0  0  0  0  0  0  0  0
    2.1805    0.5474    5.4750 C   0  0  0  0  0  0  0  0  0  0  0  0
    2.3548    1.4053    4.2098 C   0  0  0  0  0  0  0  0  0  0  0  0
    2.0178    0.6433    2.9736 N   0  0  2  0  0  0  0  0  0  0  0  0
    2.2466    1.4527    1.7556 C   0  0  0  0  0  0  0  0  0  0  0  0
    0.6939   -0.0704    3.0095 C   0  0  2  0  0  0  0  0  0  0  0  0
   -0.4870    0.9398    3.0368 C   0  0  0  0  0  0  0  0  0  0  0  0
    2.8539   -3.4456    3.2574 H   0  0  0  0  0  0  0  0  0  0  0  0
    2.2382   -2.2283    2.1579 H   0  0  0  0  0  0  0  0  0  0  0  0
    1.1436   -3.4104    2.8837 H   0  0  0  0  0  0  0  0  0  0  0  0
   -1.4492   -1.3944    4.3801 H   0  0  0  0  0  0  0  0  0  0  0  0
   -0.5711   -2.8704    4.0814 H   0  0  0  0  0  0  0  0  0  0  0  0
   -1.3954   -2.1609    6.5935 H   0  0  0  0  0  0  0  0  0  0  0  0
    0.0599   -3.0855    6.3514 H   0  0  0  0  0  0  0  0  0  0  0  0
    1.3565   -1.3954    7.2010 H   0  0  0  0  0  0  0  0  0  0  0  0
   -2.7291    2.8011    8.4734 H   0  0  0  0  0  0  0  0  0  0  0  0
   -2.9727    3.4539    6.2446 H   0  0  0  0  0  0  0  0  0  0  0  0
   -2.3130    3.0348    3.8793 H   0  0  0  0  0  0  0  0  0  0  0  0
    2.2870    1.1684    6.3621 H   0  0  0  0  0  0  0  0  0  0  0  0
    2.9865   -0.1857    5.5264 H   0  0  0  0  0  0  0  0  0  0  0  0
    1.7367    2.3021    4.2723 H   0  0  0  0  0  0  0  0  0  0  0  0
    3.3847    1.7581    4.1444 H   0  0  0  0  0  0  0  0  0  0  0  0
    1.6750    2.3832    1.7533 H   0  0  0  0  0  0  0  0  0  0  0  0
    1.9854    0.8753    0.8743 H   0  0  0  0  0  0  0  0  0  0  0  0
    3.3001    1.7181    1.6878 H   0  0  0  0  0  0  0  0  0  0  0  0
    0.6136   -0.6349    2.0791 H   0  0  0  0  0  0  0  0  0  0  0  0
   -1.3768    0.4277    2.6769 H   0  0  0  0  0  0  0  0  0  0  0  0
   -0.3466    1.7599    2.3309 H   0  0  0  0  0  0  0  0  0  0  0  0
    2.7027   -0.1041    2.9264 H   0  0  0  0  0  0  0  0  0  0  0  0
  1  2  1  0
  1 22  1  0
  1 23  1  0
  1 24  1  0
  3  2  1  6
  3 15  1  0
  3 20  1  0
  3  4  1  0
  4  5  1  0
  4 25  1  0
  4 26  1  0
  5  6  1  0
  5 27  1  0
  5 28  1  0
  6 15  1  0
  6  7  1  0
  6 29  1  1
  7  8  1  0
  8 14  2  0
  8  9  1  0
  9 10  1  0
  9 11  2  0
 10 30  1  0
 11 12  1  0
 11 31  1  0
 12 13  2  0
 12 32  1  0
 13 21  1  0
 13 14  1  0
 14 15  1  0
 15 16  1  1
 16 17  1  0
 16 33  1  0
 16 34  1  0
 17 18  1  0
 17 35  1  0
 17 36  1  0
 18 19  1  0
 18 20  1  0
 18 43  1  6
 19 37  1  0
 19 38  1  0
 19 39  1  0
 20 21  1  0
 20 40  1  6
 21 41  1  0
 21 42  1  0
M  CHG  1  18   1
M  END
>  <i_m_ct_stereo_status>  (26) 
1

>  <s_m_source_file>  (26) 
/var/tmp/pbs.5076255.sched01/tmp6yc3ji7b/0haed4tc5.sdf

>  <i_m_source_file_index>  (26) 
9

>  <i_lp_mmshare_version>  (26) 
48012

>  <i_f3d_flags>  (26) 
0

>  <s_epik_input>  (26) 
W0NIM11PW0NAQF0xKFtDQF0yMzQpW0NASF0oTihbQ0gzXSlbQ0gyXVtDSDJdNClbQ0gyXWM1YzNjKGMoW09IXSlbY0hdW2NIXTUpT1tDQEhdMltDSDJdW0NIMl0x

>  <s_epik_cmdline>  (26) 
J2VwaWtfcHl0aG9uJywgJy1waHQnLCAnMi4wJywgJy1waCcsICc3LjAnLCAnLXRuJywgJzgnLCAnLW1hJywgJzIwMCcsICctaW1hZScsICc8aW5maWxlLm1hZT4nLCAnLW9tYWUnLCAnPG91dGZpbGUubWFlPic=

>  <r_lp_tautomer_probability>  (26) 
1

>  <r_epik_Ionization_Penalty>  (26) 
0.205345

>  <r_epik_Ionization_Penalty_Charging>  (26) 
0.196522

>  <r_epik_Ionization_Penalty_Neutral>  (26) 
0.00882336

>  <r_epik_State_Penalty>  (26) 
0.256007

>  <r_epik_Charging_Adjusted_Penalty>  (26) 
0.452528

>  <i_epik_Tot_Q>  (26) 
1

>  <i_epik_Tot_abs_Q>  (26) 
1

>  <s_lp_Force_Field>  (26) 
OPLS3e

>  <r_lp_Energy>  (26) 
65.7215

>  <b_lp_Chiralities_Consistent>  (26) 
1

>  <s_lp_Variant>  (26) 
6:0-1

>  <s_i_glide_gridfile>  (26) 
pfpi4k_grid

>  <i_i_glide_lignum>  (26) 
9

>  <i_i_glide_rotatable_bonds>  (26) 
2

>  <r_i_docking_score>  (26) 
-3.17199

>  <r_i_glide_ligand_efficiency>  (26) 
-0.151047

>  <r_i_glide_ligand_efficiency_sa>  (26) 
-0.416728

>  <r_i_glide_ligand_efficiency_ln>  (26) 
-0.784268

>  <r_i_glide_gscore>  (26) 
-3.17199

>  <r_i_glide_lipo>  (26) 
-0.0859245

>  <r_i_glide_hbond>  (26) 
-0.00531277

>  <r_i_glide_metal>  (26) 
-0

>  <r_i_glide_rewards>  (26) 
-1.44299

>  <r_i_glide_evdw>  (26) 
-16.5652

>  <r_i_glide_ecoul>  (26) 
-5.32702

>  <r_i_glide_erotb>  (26) 
0

>  <r_i_glide_esite>  (26) 
-0.0104487

>  <r_i_glide_emodel>  (26) 
-27.6453

>  <r_i_glide_energy>  (26) 
-21.8922

>  <r_i_glide_einternal>  (26) 
0.0799528

>  <r_i_glide_intrahb_reward>  (26) 
-0

>  <i_i_glide_confnum>  (26) 
1

>  <i_i_glide_posenum>  (26) 
9

>  <r_i_glide_eff_state_penalty>  (26) 
0

>  <ligand_id>  (26) 
6

>  <original_smiles>  (26) 
COC12CCC3Oc4c(O)ccc5c4C31CCN(C)C2C5

>  <smiles>  (26) 
[H]Oc1c([H])c([H])c2c3c1OC1([H])C([H])([H])C([H])([H])C4(OC([H])([H])[H])C31C([H])([H])C([H])([H])[N+]([H])(C([H])([H])[H])C4([H])C2([H])[H]

$$$$
6:0:2
     RDKit          3D

 43 47  0  0  1  0  0  0  0  0999 V2000
    2.0185   -2.3049    3.1475 C   0  0  0  0  0  0  0  0  0  0  0  0
    1.7783   -1.5014    4.3015 O   0  0  0  0  0  0  0  0  0  0  0  0
    0.6140   -0.6645    4.3104 C   0  0  1  0  0  0  0  0  0  0  0  0
   -0.6168   -1.5641    4.5637 C   0  0  0  0  0  0  0  0  0  0  0  0
   -0.6058   -1.8473    6.0884 C   0  0  0  0  0  0  0  0  0  0  0  0
    0.2192   -0.7279    6.7731 C   0  0  2  0  0  0  0  0  0  0  0  0
   -0.5594    0.1205    7.6482 O   0  0  0  0  0  0  0  0  0  0  0  0
   -1.0355    1.1426    6.8786 C   0  0  0  0  0  0  0  0  0  0  0  0
   -2.0333    2.1006    7.1519 C   0  0  0  0  0  0  0  0  0  0  0  0
   -2.5661    2.2006    8.4031 O   0  0  0  0  0  0  0  0  0  0  0  0
   -2.5013    2.9469    6.1148 C   0  0  0  0  0  0  0  0  0  0  0  0
   -2.0229    2.8098    4.7866 C   0  0  0  0  0  0  0  0  0  0  0  0
   -1.0094    1.8740    4.5110 C   0  0  0  0  0  0  0  0  0  0  0  0
   -0.5110    1.1516    5.6046 C   0  0  0  0  0  0  0  0  0  0  0  0
    0.6235    0.1665    5.5873 C   0  0  2  0  0  0  0  0  0  0  0  0
    1.9778    0.8932    5.7305 C   0  0  0  0  0  0  0  0  0  0  0  0
    2.2145    1.8193    4.5247 C   0  0  0  0  0  0  0  0  0  0  0  0
    1.9682    1.1186    3.2322 N   0  0  2  0  0  0  0  0  0  0  0  0
    2.2561    1.9945    2.0767 C   0  0  0  0  0  0  0  0  0  0  0  0
    0.6591    0.3828    3.1460 C   0  0  2  0  0  0  0  0  0  0  0  0
   -0.5410    1.3708    3.1491 C   0  0  0  0  0  0  0  0  0  0  0  0
    2.8607   -2.9648    3.3520 H   0  0  0  0  0  0  0  0  0  0  0  0
    2.2881   -1.7010    2.2819 H   0  0  0  0  0  0  0  0  0  0  0  0
    1.1748   -2.9391    2.8797 H   0  0  0  0  0  0  0  0  0  0  0  0
   -1.5397   -1.0456    4.3031 H   0  0  0  0  0  0  0  0  0  0  0  0
   -0.6061   -2.4929    3.9994 H   0  0  0  0  0  0  0  0  0  0  0  0
   -1.6193   -1.9212    6.4776 H   0  0  0  0  0  0  0  0  0  0  0  0
   -0.1311   -2.8072    6.2828 H   0  0  0  0  0  0  0  0  0  0  0  0
    1.0788   -1.1463    7.2986 H   0  0  0  0  0  0  0  0  0  0  0  0
   -2.0046    1.8591    9.0834 H   0  0  0  0  0  0  0  0  0  0  0  0
   -3.2714    3.6677    6.3278 H   0  0  0  0  0  0  0  0  0  0  0  0
   -2.4544    3.3925    3.9819 H   0  0  0  0  0  0  0  0  0  0  0  0
    2.0180    1.4663    6.6545 H   0  0  0  0  0  0  0  0  0  0  0  0
    2.7927    0.1700    5.7941 H   0  0  0  0  0  0  0  0  0  0  0  0
    1.5770    2.7013    4.5956 H   0  0  0  0  0  0  0  0  0  0  0  0
    3.2394    2.1909    4.5447 H   0  0  0  0  0  0  0  0  0  0  0  0
    1.6704    2.9156    2.0820 H   0  0  0  0  0  0  0  0  0  0  0  0
    2.0733    1.4599    1.1448 H   0  0  0  0  0  0  0  0  0  0  0  0
    3.3042    2.2775    2.0949 H   0  0  0  0  0  0  0  0  0  0  0  0
    0.6459   -0.1316    2.1856 H   0  0  0  0  0  0  0  0  0  0  0  0
   -1.3950    0.8614    2.7061 H   0  0  0  0  0  0  0  0  0  0  0  0
   -0.3725    2.2295    2.4978 H   0  0  0  0  0  0  0  0  0  0  0  0
    2.6696    0.3871    3.1902 H   0  0  0  0  0  0  0  0  0  0  0  0
  1  2  1  0
  1 22  1  0
  1 23  1  0
  1 24  1  0
  3  2  1  1
  3 15  1  0
  3 20  1  0
  3  4  1  0
  4  5  1  0
  4 25  1  0
  4 26  1  0
  5  6  1  0
  5 27  1  0
  5 28  1  0
  6 15  1  0
  6  7  1  0
  6 29  1  1
  7  8  1  0
  8 14  2  0
  8  9  1  0
  9 10  1  0
  9 11  2  0
 10 30  1  0
 11 12  1  0
 11 31  1  0
 12 13  2  0
 12 32  1  0
 13 21  1  0
 13 14  1  0
 14 15  1  0
 15 16  1  1
 16 17  1  0
 16 33  1  0
 16 34  1  0
 17 18  1  0
 17 35  1  0
 17 36  1  0
 18 19  1  0
 18 20  1  0
 18 43  1  6
 19 37  1  0
 19 38  1  0
 19 39  1  0
 20 21  1  0
 20 40  1  6
 21 41  1  0
 21 42  1  0
M  CHG  1  18   1
M  END
>  <i_m_ct_stereo_status>  (27) 
1

>  <s_m_source_file>  (27) 
/var/tmp/pbs.5076255.sched01/tmp6yc3ji7b/0haed4tc5.sdf

>  <i_m_source_file_index>  (27) 
9

>  <i_lp_mmshare_version>  (27) 
48012

>  <i_f3d_flags>  (27) 
0

>  <s_epik_input>  (27) 
W0NIM11PW0NAQF0xKFtDQF0yMzQpW0NASF0oTihbQ0gzXSlbQ0gyXVtDSDJdNClbQ0gyXWM1YzNjKGMoW09IXSlbY0hdW2NIXTUpT1tDQEhdMltDSDJdW0NIMl0x

>  <s_epik_cmdline>  (27) 
J2VwaWtfcHl0aG9uJywgJy1waHQnLCAnMi4wJywgJy1waCcsICc3LjAnLCAnLXRuJywgJzgnLCAnLW1hJywgJzIwMCcsICctaW1hZScsICc8aW5maWxlLm1hZT4nLCAnLW9tYWUnLCAnPG91dGZpbGUubWFlPic=

>  <r_lp_tautomer_probability>  (27) 
1

>  <r_epik_Ionization_Penalty>  (27) 
0.205345

>  <r_epik_Ionization_Penalty_Charging>  (27) 
0.196522

>  <r_epik_Ionization_Penalty_Neutral>  (27) 
0.00882336

>  <r_epik_State_Penalty>  (27) 
0.256007

>  <r_epik_Charging_Adjusted_Penalty>  (27) 
0.452528

>  <i_epik_Tot_Q>  (27) 
1

>  <i_epik_Tot_abs_Q>  (27) 
1

>  <s_lp_Force_Field>  (27) 
OPLS3e

>  <r_lp_Energy>  (27) 
65.7215

>  <b_lp_Chiralities_Consistent>  (27) 
1

>  <s_lp_Variant>  (27) 
6:0-1

>  <s_i_glide_gridfile>  (27) 
pfpi4k_grid

>  <i_i_glide_lignum>  (27) 
9

>  <i_i_glide_rotatable_bonds>  (27) 
2

>  <r_i_docking_score>  (27) 
-3.16159

>  <r_i_glide_ligand_efficiency>  (27) 
-0.150552

>  <r_i_glide_ligand_efficiency_sa>  (27) 
-0.415362

>  <r_i_glide_ligand_efficiency_ln>  (27) 
-0.781697

>  <r_i_glide_gscore>  (27) 
-3.16159

>  <r_i_glide_lipo>  (27) 
-0.0995252

>  <r_i_glide_hbond>  (27) 
-0.0466784

>  <r_i_glide_metal>  (27) 
-0

>  <r_i_glide_rewards>  (27) 
-1.44299

>  <r_i_glide_evdw>  (27) 
-15.8599

>  <r_i_glide_ecoul>  (27) 
-5.14494

>  <r_i_glide_erotb>  (27) 
0

>  <r_i_glide_esite>  (27) 
-0.00766347

>  <r_i_glide_emodel>  (27) 
-26.3633

>  <r_i_glide_energy>  (27) 
-21.0048

>  <r_i_glide_einternal>  (27) 
0.64292

>  <r_i_glide_intrahb_reward>  (27) 
-0

>  <i_i_glide_confnum>  (27) 
2

>  <i_i_glide_posenum>  (27) 
2

>  <r_i_glide_eff_state_penalty>  (27) 
0

>  <ligand_id>  (27) 
6

>  <original_smiles>  (27) 
COC12CCC3Oc4c(O)ccc5c4C31CCN(C)C2C5

>  <smiles>  (27) 
[H]Oc1c([H])c([H])c2c3c1OC1([H])C([H])([H])C([H])([H])C4(OC([H])([H])[H])C31C([H])([H])C([H])([H])[N+]([H])(C([H])([H])[H])C4([H])C2([H])[H]

$$$$
6:1:0
     RDKit          3D

 42 46  0  0  1  0  0  0  0  0999 V2000
    8.0862   -1.4179    0.3288 C   0  0  0  0  0  0  0  0  0  0  0  0
    7.0419   -1.7962   -0.5707 O   0  0  0  0  0  0  0  0  0  0  0  0
    6.1694   -2.9205   -0.2994 C   0  0  1  0  0  0  0  0  0  0  0  0
    7.0261   -4.1620    0.0534 C   0  0  0  0  0  0  0  0  0  0  0  0
    7.2815   -4.0817    1.5849 C   0  0  0  0  0  0  0  0  0  0  0  0
    6.1886   -3.1316    2.1800 C   0  0  2  0  0  0  0  0  0  0  0  0
    5.3345   -3.7976    3.1275 O   0  0  0  0  0  0  0  0  0  0  0  0
    4.3552   -4.3525    2.3944 C   0  0  0  0  0  0  0  0  0  0  0  0
    3.4411   -5.3947    2.7499 C   0  0  0  0  0  0  0  0  0  0  0  0
    3.4075   -5.8110    4.0458 O   0  0  0  0  0  0  0  0  0  0  0  0
    2.6494   -5.9729    1.7648 C   0  0  0  0  0  0  0  0  0  0  0  0
    2.7726   -5.6038    0.3977 C   0  0  0  0  0  0  0  0  0  0  0  0
    3.6642   -4.5607    0.0418 C   0  0  0  0  0  0  0  0  0  0  0  0
    4.3347   -3.9401    1.0814 C   0  0  0  0  0  0  0  0  0  0  0  0
    5.3234   -2.7925    0.9621 C   0  0  2  0  0  0  0  0  0  0  0  0
    4.5824   -1.4363    0.9403 C   0  0  0  0  0  0  0  0  0  0  0  0
    3.6423   -1.3647   -0.2798 C   0  0  0  0  0  0  0  0  0  0  0  0
    4.2683   -1.7582   -1.5525 N   0  0  0  0  0  0  0  0  0  0  0  0
    4.8434   -0.6578   -2.2997 C   0  0  0  0  0  0  0  0  0  0  0  0
    5.1047   -2.9791   -1.4650 C   0  0  2  0  0  0  0  0  0  0  0  0
    4.1485   -4.1890   -1.3588 C   0  0  0  0  0  0  0  0  0  0  0  0
    8.6791   -0.5653    0.0270 H   0  0  0  0  0  0  0  0  0  0  0  0
    8.8108   -2.2023    0.4266 H   0  0  0  0  0  0  0  0  0  0  0  0
    7.7023   -1.0957    1.2782 H   0  0  0  0  0  0  0  0  0  0  0  0
    6.4853   -5.0862   -0.1373 H   0  0  0  0  0  0  0  0  0  0  0  0
    7.9399   -4.2039   -0.5365 H   0  0  0  0  0  0  0  0  0  0  0  0
    7.2994   -5.0605    2.0722 H   0  0  0  0  0  0  0  0  0  0  0  0
    8.2825   -3.7101    1.7388 H   0  0  0  0  0  0  0  0  0  0  0  0
    6.5482   -2.2187    2.6420 H   0  0  0  0  0  0  0  0  0  0  0  0
    2.8479   -6.5726    4.1488 H   0  0  0  0  0  0  0  0  0  0  0  0
    1.9603   -6.7729    2.0189 H   0  0  0  0  0  0  0  0  0  0  0  0
    2.2293   -6.1402   -0.3505 H   0  0  0  0  0  0  0  0  0  0  0  0
    4.0006   -1.2794    1.8492 H   0  0  0  0  0  0  0  0  0  0  0  0
    5.2890   -0.6092    0.8866 H   0  0  0  0  0  0  0  0  0  0  0  0
    2.7799   -2.0099   -0.1038 H   0  0  0  0  0  0  0  0  0  0  0  0
    3.2320   -0.3609   -0.3442 H   0  0  0  0  0  0  0  0  0  0  0  0
    5.2106   -1.0221   -3.2551 H   0  0  0  0  0  0  0  0  0  0  0  0
    5.6561   -0.1967   -1.7487 H   0  0  0  0  0  0  0  0  0  0  0  0
    4.0918    0.0989   -2.5235 H   0  0  0  0  0  0  0  0  0  0  0  0
    5.6324   -3.0951   -2.4170 H   0  0  0  0  0  0  0  0  0  0  0  0
    4.6620   -5.0440   -1.7882 H   0  0  0  0  0  0  0  0  0  0  0  0
    3.2736   -4.0020   -1.9807 H   0  0  0  0  0  0  0  0  0  0  0  0
  1  2  1  0
  1 22  1  0
  1 23  1  0
  1 24  1  0
  3  2  1  6
  3 15  1  0
  3 20  1  0
  3  4  1  0
  4  5  1  0
  4 25  1  0
  4 26  1  0
  5  6  1  0
  5 27  1  0
  5 28  1  0
  6 15  1  0
  6  7  1  0
  6 29  1  1
  7  8  1  0
  8 14  2  0
  8  9  1  0
  9 10  1  0
  9 11  2  0
 10 30  1  0
 11 12  1  0
 11 31  1  0
 12 13  2  0
 12 32  1  0
 13 21  1  0
 13 14  1  0
 14 15  1  0
 15 16  1  1
 16 17  1  0
 16 33  1  0
 16 34  1  0
 17 18  1  0
 17 35  1  0
 17 36  1  0
 18 19  1  0
 18 20  1  0
 19 37  1  0
 19 38  1  0
 19 39  1  0
 20 21  1  0
 20 40  1  6
 21 41  1  0
 21 42  1  0
M  END
>  <i_m_ct_stereo_status>  (28) 
1

>  <s_m_source_file>  (28) 
/var/tmp/pbs.5076255.sched01/tmp6yc3ji7b/0haed4tc5.sdf

>  <i_m_source_file_index>  (28) 
10

>  <i_lp_mmshare_version>  (28) 
48012

>  <i_f3d_flags>  (28) 
0

>  <s_epik_input>  (28) 
W0NIM11PW0NAQF0xKFtDQF0yMzQpW0NASF0oTihbQ0gzXSlbQ0gyXVtDSDJdNClbQ0gyXWM1YzNjKGMoW09IXSlbY0hdW2NIXTUpT1tDQEhdMltDSDJdW0NIMl0x

>  <s_epik_cmdline>  (28) 
J2VwaWtfcHl0aG9uJywgJy1waHQnLCAnMi4wJywgJy1waCcsICc3LjAnLCAnLXRuJywgJzgnLCAnLW1hJywgJzIwMCcsICctaW1hZScsICc8aW5maWxlLm1hZT4nLCAnLW9tYWUnLCAnPG91dGZpbGUubWFlPic=

>  <r_lp_tautomer_probability>  (28) 
1

>  <r_epik_Ionization_Penalty>  (28) 
0.751374

>  <r_epik_Ionization_Penalty_Charging>  (28) 
0

>  <r_epik_Ionization_Penalty_Neutral>  (28) 
0.751374

>  <r_epik_State_Penalty>  (28) 
0.631218

>  <r_epik_Charging_Adjusted_Penalty>  (28) 
0.631218

>  <i_epik_Tot_Q>  (28) 
0

>  <i_epik_Tot_abs_Q>  (28) 
0

>  <s_lp_Force_Field>  (28) 
OPLS3e

>  <r_lp_Energy>  (28) 
65.776

>  <b_lp_Chiralities_Consistent>  (28) 
1

>  <s_lp_Variant>  (28) 
6:0-2

>  <s_i_glide_gridfile>  (28) 
pfpi4k_grid

>  <i_i_glide_lignum>  (28) 
10

>  <i_i_glide_rotatable_bonds>  (28) 
2

>  <r_i_docking_score>  (28) 
-2.82751

>  <r_i_glide_ligand_efficiency>  (28) 
-0.134643

>  <r_i_glide_ligand_efficiency_sa>  (28) 
-0.37147

>  <r_i_glide_ligand_efficiency_ln>  (28) 
-0.699095

>  <r_i_glide_gscore>  (28) 
-2.82751

>  <r_i_glide_lipo>  (28) 
-0.342756

>  <r_i_glide_hbond>  (28) 
-0.16

>  <r_i_glide_metal>  (28) 
-0

>  <r_i_glide_rewards>  (28) 
-1.44986

>  <r_i_glide_evdw>  (28) 
-9.57928

>  <r_i_glide_ecoul>  (28) 
-2.63949

>  <r_i_glide_erotb>  (28) 
0

>  <r_i_glide_esite>  (28) 
0

>  <r_i_glide_emodel>  (28) 
-8.14658

>  <r_i_glide_energy>  (28) 
-12.2188

>  <r_i_glide_einternal>  (28) 
11.5371

>  <r_i_glide_intrahb_reward>  (28) 
-0

>  <i_i_glide_confnum>  (28) 
1

>  <i_i_glide_posenum>  (28) 
15

>  <r_i_glide_eff_state_penalty>  (28) 
0

>  <ligand_id>  (28) 
6

>  <original_smiles>  (28) 
COC12CCC3Oc4c(O)ccc5c4C31CCN(C)C2C5

>  <smiles>  (28) 
[H]Oc1c([H])c([H])c2c3c1OC1([H])C([H])([H])C([H])([H])C4(OC([H])([H])[H])C([H])(N(C([H])([H])[H])C([H])([H])C([H])([H])C314)C2([H])[H]

$$$$
6:1:1
     RDKit          3D

 42 46  0  0  1  0  0  0  0  0999 V2000
    8.3059   -1.6406    0.1082 C   0  0  0  0  0  0  0  0  0  0  0  0
    7.1128   -1.8708   -0.6570 O   0  0  0  0  0  0  0  0  0  0  0  0
    6.2023   -2.9610   -0.3499 C   0  0  1  0  0  0  0  0  0  0  0  0
    6.9997   -4.2300    0.0415 C   0  0  0  0  0  0  0  0  0  0  0  0
    7.2816   -4.0816    1.5669 C   0  0  0  0  0  0  0  0  0  0  0  0
    6.2041   -3.0953    2.1361 C   0  0  2  0  0  0  0  0  0  0  0  0
    5.3135   -3.7179    3.0923 O   0  0  0  0  0  0  0  0  0  0  0  0
    4.3168   -4.2938    2.3592 C   0  0  0  0  0  0  0  0  0  0  0  0
    3.3994   -5.2854    2.7351 C   0  0  0  0  0  0  0  0  0  0  0  0
    3.3212   -5.6868    4.0344 O   0  0  0  0  0  0  0  0  0  0  0  0
    2.5806   -5.8853    1.7402 C   0  0  0  0  0  0  0  0  0  0  0  0
    2.7420   -5.5277    0.3816 C   0  0  0  0  0  0  0  0  0  0  0  0
    3.6467   -4.5266    0.0039 C   0  0  0  0  0  0  0  0  0  0  0  0
    4.3410   -3.8865    1.0491 C   0  0  0  0  0  0  0  0  0  0  0  0
    5.3512   -2.7784    0.9036 C   0  0  2  0  0  0  0  0  0  0  0  0
    4.6392   -1.4094    0.8573 C   0  0  0  0  0  0  0  0  0  0  0  0
    3.7087   -1.3416   -0.3702 C   0  0  0  0  0  0  0  0  0  0  0  0
    4.3358   -1.7738   -1.6257 N   0  0  0  0  0  0  0  0  0  0  0  0
    4.9433   -0.7022   -2.3833 C   0  0  0  0  0  0  0  0  0  0  0  0
    5.1374   -3.0177   -1.5148 C   0  0  2  0  0  0  0  0  0  0  0  0
    4.1611   -4.1840   -1.3909 C   0  0  0  0  0  0  0  0  0  0  0  0
    8.8905   -0.8025   -0.2374 H   0  0  0  0  0  0  0  0  0  0  0  0
    8.9649   -2.5172    0.0768 H   0  0  0  0  0  0  0  0  0  0  0  0
    8.0661   -1.4113    1.1480 H   0  0  0  0  0  0  0  0  0  0  0  0
    6.4284   -5.1385   -0.1165 H   0  0  0  0  0  0  0  0  0  0  0  0
    7.9167   -4.3158   -0.5401 H   0  0  0  0  0  0  0  0  0  0  0  0
    7.2699   -5.0360    2.0917 H   0  0  0  0  0  0  0  0  0  0  0  0
    8.2851   -3.6670    1.6677 H   0  0  0  0  0  0  0  0  0  0  0  0
    6.6074   -2.1636    2.5189 H   0  0  0  0  0  0  0  0  0  0  0  0
    3.9601   -5.2394    4.5707 H   0  0  0  0  0  0  0  0  0  0  0  0
    1.8911   -6.6550    2.0261 H   0  0  0  0  0  0  0  0  0  0  0  0
    2.1879   -6.0800   -0.3641 H   0  0  0  0  0  0  0  0  0  0  0  0
    4.0455   -1.2238    1.7516 H   0  0  0  0  0  0  0  0  0  0  0  0
    5.3659   -0.6019    0.7874 H   0  0  0  0  0  0  0  0  0  0  0  0
    2.8299   -1.9647   -0.2013 H   0  0  0  0  0  0  0  0  0  0  0  0
    3.3302   -0.3256   -0.4686 H   0  0  0  0  0  0  0  0  0  0  0  0
    5.3046   -1.1034   -3.3248 H   0  0  0  0  0  0  0  0  0  0  0  0
    5.7640   -0.2416   -1.8416 H   0  0  0  0  0  0  0  0  0  0  0  0
    4.2120    0.0671   -2.6318 H   0  0  0  0  0  0  0  0  0  0  0  0
    5.6836   -3.1554   -2.4560 H   0  0  0  0  0  0  0  0  0  0  0  0
    4.6707   -5.0667   -1.7933 H   0  0  0  0  0  0  0  0  0  0  0  0
    3.2975   -3.9899   -2.0342 H   0  0  0  0  0  0  0  0  0  0  0  0
  1  2  1  0
  1 22  1  0
  1 23  1  0
  1 24  1  0
  3  2  1  6
  3 15  1  0
  3 20  1  0
  3  4  1  0
  4  5  1  0
  4 25  1  0
  4 26  1  0
  5  6  1  0
  5 27  1  0
  5 28  1  0
  6 15  1  0
  6  7  1  0
  6 29  1  1
  7  8  1  0
  8 14  2  0
  8  9  1  0
  9 10  1  0
  9 11  2  0
 10 30  1  0
 11 12  1  0
 11 31  1  0
 12 13  2  0
 12 32  1  0
 13 21  1  0
 13 14  1  0
 14 15  1  0
 15 16  1  1
 16 17  1  0
 16 33  1  0
 16 34  1  0
 17 18  1  0
 17 35  1  0
 17 36  1  0
 18 19  1  0
 18 20  1  0
 19 37  1  0
 19 38  1  0
 19 39  1  0
 20 21  1  0
 20 40  1  6
 21 41  1  0
 21 42  1  0
M  END
>  <i_m_ct_stereo_status>  (29) 
1

>  <s_m_source_file>  (29) 
/var/tmp/pbs.5076255.sched01/tmp6yc3ji7b/0haed4tc5.sdf

>  <i_m_source_file_index>  (29) 
10

>  <i_lp_mmshare_version>  (29) 
48012

>  <i_f3d_flags>  (29) 
0

>  <s_epik_input>  (29) 
W0NIM11PW0NAQF0xKFtDQF0yMzQpW0NASF0oTihbQ0gzXSlbQ0gyXVtDSDJdNClbQ0gyXWM1YzNjKGMoW09IXSlbY0hdW2NIXTUpT1tDQEhdMltDSDJdW0NIMl0x

>  <s_epik_cmdline>  (29) 
J2VwaWtfcHl0aG9uJywgJy1waHQnLCAnMi4wJywgJy1waCcsICc3LjAnLCAnLXRuJywgJzgnLCAnLW1hJywgJzIwMCcsICctaW1hZScsICc8aW5maWxlLm1hZT4nLCAnLW9tYWUnLCAnPG91dGZpbGUubWFlPic=

>  <r_lp_tautomer_probability>  (29) 
1

>  <r_epik_Ionization_Penalty>  (29) 
0.751374

>  <r_epik_Ionization_Penalty_Charging>  (29) 
0

>  <r_epik_Ionization_Penalty_Neutral>  (29) 
0.751374

>  <r_epik_State_Penalty>  (29) 
0.631218

>  <r_epik_Charging_Adjusted_Penalty>  (29) 
0.631218

>  <i_epik_Tot_Q>  (29) 
0

>  <i_epik_Tot_abs_Q>  (29) 
0

>  <s_lp_Force_Field>  (29) 
OPLS3e

>  <r_lp_Energy>  (29) 
65.776

>  <b_lp_Chiralities_Consistent>  (29) 
1

>  <s_lp_Variant>  (29) 
6:0-2

>  <s_i_glide_gridfile>  (29) 
pfpi4k_grid

>  <i_i_glide_lignum>  (29) 
10

>  <i_i_glide_rotatable_bonds>  (29) 
2

>  <r_i_docking_score>  (29) 
-2.78843

>  <r_i_glide_ligand_efficiency>  (29) 
-0.132783

>  <r_i_glide_ligand_efficiency_sa>  (29) 
-0.366337

>  <r_i_glide_ligand_efficiency_ln>  (29) 
-0.689435

>  <r_i_glide_gscore>  (29) 
-2.78843

>  <r_i_glide_lipo>  (29) 
-0.359181

>  <r_i_glide_hbond>  (29) 
-0.16

>  <r_i_glide_metal>  (29) 
-0

>  <r_i_glide_rewards>  (29) 
-1.44986

>  <r_i_glide_evdw>  (29) 
-9.34645

>  <r_i_glide_ecoul>  (29) 
-2.34712

>  <r_i_glide_erotb>  (29) 
0

>  <r_i_glide_esite>  (29) 
0

>  <r_i_glide_emodel>  (29) 
-7.93872

>  <r_i_glide_energy>  (29) 
-11.6936

>  <r_i_glide_einternal>  (29) 
10.738

>  <r_i_glide_intrahb_reward>  (29) 
-0

>  <i_i_glide_confnum>  (29) 
1

>  <i_i_glide_posenum>  (29) 
24

>  <r_i_glide_eff_state_penalty>  (29) 
0

>  <ligand_id>  (29) 
6

>  <original_smiles>  (29) 
COC12CCC3Oc4c(O)ccc5c4C31CCN(C)C2C5

>  <smiles>  (29) 
[H]Oc1c([H])c([H])c2c3c1OC1([H])C([H])([H])C([H])([H])C4(OC([H])([H])[H])C([H])(N(C([H])([H])[H])C([H])([H])C([H])([H])C314)C2([H])[H]

$$$$
6:1:2
     RDKit          3D

 42 46  0  0  1  0  0  0  0  0999 V2000
    7.4113   -3.0580   -1.9641 C   0  0  0  0  0  0  0  0  0  0  0  0
    6.6162   -2.5478   -0.9057 O   0  0  0  0  0  0  0  0  0  0  0  0
    5.6998   -3.4595   -0.2843 C   0  0  1  0  0  0  0  0  0  0  0  0
    6.5066   -4.5895    0.3943 C   0  0  0  0  0  0  0  0  0  0  0  0
    7.0739   -3.9277    1.6693 C   0  0  0  0  0  0  0  0  0  0  0  0
    6.1487   -2.7316    2.0487 C   0  0  2  0  0  0  0  0  0  0  0  0
    5.4172   -2.9096    3.2901 O   0  0  0  0  0  0  0  0  0  0  0  0
    4.2714   -3.5729    2.9627 C   0  0  0  0  0  0  0  0  0  0  0  0
    3.3555   -4.2625    3.7849 C   0  0  0  0  0  0  0  0  0  0  0  0
    3.4740   -4.1885    5.1422 O   0  0  0  0  0  0  0  0  0  0  0  0
    2.3312   -5.0486    3.1986 C   0  0  0  0  0  0  0  0  0  0  0  0
    2.2664   -5.2130    1.7889 C   0  0  0  0  0  0  0  0  0  0  0  0
    3.1512   -4.4959    0.9612 C   0  0  0  0  0  0  0  0  0  0  0  0
    4.0612   -3.6509    1.6034 C   0  0  0  0  0  0  0  0  0  0  0  0
    5.0932   -2.7742    0.9352 C   0  0  2  0  0  0  0  0  0  0  0  0
    4.5042   -1.4092    0.5185 C   0  0  0  0  0  0  0  0  0  0  0  0
    3.3980   -1.6363   -0.5219 C   0  0  0  0  0  0  0  0  0  0  0  0
    3.7636   -2.5359   -1.6261 N   0  0  0  0  0  0  0  0  0  0  0  0
    4.3105   -1.8623   -2.7844 C   0  0  0  0  0  0  0  0  0  0  0  0
    4.4602   -3.7634   -1.1946 C   0  0  2  0  0  0  0  0  0  0  0  0
    3.4296   -4.6870   -0.5166 C   0  0  0  0  0  0  0  0  0  0  0  0
    7.8645   -2.2201   -2.4826 H   0  0  0  0  0  0  0  0  0  0  0  0
    6.8331   -3.6236   -2.6967 H   0  0  0  0  0  0  0  0  0  0  0  0
    8.2358   -3.6740   -1.6074 H   0  0  0  0  0  0  0  0  0  0  0  0
    5.8624   -5.4200    0.6799 H   0  0  0  0  0  0  0  0  0  0  0  0
    7.2986   -5.0224   -0.2073 H   0  0  0  0  0  0  0  0  0  0  0  0
    7.1682   -4.6568    2.4748 H   0  0  0  0  0  0  0  0  0  0  0  0
    8.0755   -3.5561    1.4486 H   0  0  0  0  0  0  0  0  0  0  0  0
    6.6905   -1.7844    2.0374 H   0  0  0  0  0  0  0  0  0  0  0  0
    4.2148   -3.6643    5.4028 H   0  0  0  0  0  0  0  0  0  0  0  0
    1.6411   -5.5779    3.8350 H   0  0  0  0  0  0  0  0  0  0  0  0
    1.5650   -5.9071    1.3629 H   0  0  0  0  0  0  0  0  0  0  0  0
    4.1079   -0.8786    1.3854 H   0  0  0  0  0  0  0  0  0  0  0  0
    5.2780   -0.7653    0.0979 H   0  0  0  0  0  0  0  0  0  0  0  0
    2.5526   -2.0630    0.0139 H   0  0  0  0  0  0  0  0  0  0  0  0
    3.0498   -0.6830   -0.9117 H   0  0  0  0  0  0  0  0  0  0  0  0
    4.5088   -2.5744   -3.5863 H   0  0  0  0  0  0  0  0  0  0  0  0
    5.2263   -1.3292   -2.5449 H   0  0  0  0  0  0  0  0  0  0  0  0
    3.5894   -1.1411   -3.1655 H   0  0  0  0  0  0  0  0  0  0  0  0
    4.7855   -4.2986   -2.0871 H   0  0  0  0  0  0  0  0  0  0  0  0
    3.7931   -5.7088   -0.6121 H   0  0  0  0  0  0  0  0  0  0  0  0
    2.4726   -4.6320   -1.0369 H   0  0  0  0  0  0  0  0  0  0  0  0
  1  2  1  0
  1 22  1  0
  1 23  1  0
  1 24  1  0
  3  2  1  6
  3 15  1  0
  3 20  1  0
  3  4  1  0
  4  5  1  0
  4 25  1  0
  4 26  1  0
  5  6  1  0
  5 27  1  0
  5 28  1  0
  6 15  1  0
  6  7  1  0
  6 29  1  1
  7  8  1  0
  8 14  2  0
  8  9  1  0
  9 10  1  0
  9 11  2  0
 10 30  1  0
 11 12  1  0
 11 31  1  0
 12 13  2  0
 12 32  1  0
 13 21  1  0
 13 14  1  0
 14 15  1  0
 15 16  1  6
 16 17  1  0
 16 33  1  0
 16 34  1  0
 17 18  1  0
 17 35  1  0
 17 36  1  0
 18 19  1  0
 18 20  1  0
 19 37  1  0
 19 38  1  0
 19 39  1  0
 20 21  1  0
 20 40  1  6
 21 41  1  0
 21 42  1  0
M  END
>  <i_m_ct_stereo_status>  (30) 
1

>  <s_m_source_file>  (30) 
/var/tmp/pbs.5076255.sched01/tmp6yc3ji7b/0haed4tc5.sdf

>  <i_m_source_file_index>  (30) 
10

>  <i_lp_mmshare_version>  (30) 
48012

>  <i_f3d_flags>  (30) 
0

>  <s_epik_input>  (30) 
W0NIM11PW0NAQF0xKFtDQF0yMzQpW0NASF0oTihbQ0gzXSlbQ0gyXVtDSDJdNClbQ0gyXWM1YzNjKGMoW09IXSlbY0hdW2NIXTUpT1tDQEhdMltDSDJdW0NIMl0x

>  <s_epik_cmdline>  (30) 
J2VwaWtfcHl0aG9uJywgJy1waHQnLCAnMi4wJywgJy1waCcsICc3LjAnLCAnLXRuJywgJzgnLCAnLW1hJywgJzIwMCcsICctaW1hZScsICc8aW5maWxlLm1hZT4nLCAnLW9tYWUnLCAnPG91dGZpbGUubWFlPic=

>  <r_lp_tautomer_probability>  (30) 
1

>  <r_epik_Ionization_Penalty>  (30) 
0.751374

>  <r_epik_Ionization_Penalty_Charging>  (30) 
0

>  <r_epik_Ionization_Penalty_Neutral>  (30) 
0.751374

>  <r_epik_State_Penalty>  (30) 
0.631218

>  <r_epik_Charging_Adjusted_Penalty>  (30) 
0.631218

>  <i_epik_Tot_Q>  (30) 
0

>  <i_epik_Tot_abs_Q>  (30) 
0

>  <s_lp_Force_Field>  (30) 
OPLS3e

>  <r_lp_Energy>  (30) 
65.776

>  <b_lp_Chiralities_Consistent>  (30) 
1

>  <s_lp_Variant>  (30) 
6:0-2

>  <s_i_glide_gridfile>  (30) 
pfpi4k_grid

>  <i_i_glide_lignum>  (30) 
10

>  <i_i_glide_rotatable_bonds>  (30) 
2

>  <r_i_docking_score>  (30) 
-2.66095

>  <r_i_glide_ligand_efficiency>  (30) 
-0.126712

>  <r_i_glide_ligand_efficiency_sa>  (30) 
-0.349588

>  <r_i_glide_ligand_efficiency_ln>  (30) 
-0.657914

>  <r_i_glide_gscore>  (30) 
-2.66095

>  <r_i_glide_lipo>  (30) 
-0.351218

>  <r_i_glide_hbond>  (30) 
-0.0209632

>  <r_i_glide_metal>  (30) 
-0

>  <r_i_glide_rewards>  (30) 
-1.44986

>  <r_i_glide_evdw>  (30) 
-13.8067

>  <r_i_glide_ecoul>  (30) 
-0.990473

>  <r_i_glide_erotb>  (30) 
0

>  <r_i_glide_esite>  (30) 
0

>  <r_i_glide_emodel>  (30) 
-16.6844

>  <r_i_glide_energy>  (30) 
-14.7971

>  <r_i_glide_einternal>  (30) 
0.152481

>  <r_i_glide_intrahb_reward>  (30) 
-0

>  <i_i_glide_confnum>  (30) 
1

>  <i_i_glide_posenum>  (30) 
34

>  <r_i_glide_eff_state_penalty>  (30) 
0

>  <ligand_id>  (30) 
6

>  <original_smiles>  (30) 
COC12CCC3Oc4c(O)ccc5c4C31CCN(C)C2C5

>  <smiles>  (30) 
[H]Oc1c([H])c([H])c2c3c1OC1([H])C([H])([H])C([H])([H])C4(OC([H])([H])[H])C([H])(N(C([H])([H])[H])C([H])([H])C([H])([H])C314)C2([H])[H]

$$$$
8:0:0
     RDKit          3D

 55 59  0  0  1  0  0  0  0  0999 V2000
    4.5142   -8.5401    3.5277 C   0  0  0  0  0  0  0  0  0  0  0  0
    3.3777   -7.5725    3.1537 C   0  0  2  0  0  0  0  0  0  0  0  0
    2.9856   -7.6243    1.6790 C   0  0  0  0  0  0  0  0  0  0  0  0
    2.7785   -6.1680    1.2392 C   0  0  1  0  0  0  0  0  0  0  0  0
    1.4298   -5.8516    1.5352 O   0  0  0  0  0  0  0  0  0  0  0  0
    3.8299   -5.3330    2.0581 C   0  0  1  0  0  0  0  0  0  0  0  0
    5.2723   -5.5627    1.5165 C   0  0  1  0  0  0  0  0  0  0  0  0
    5.4530   -5.1264    0.0448 C   0  0  0  0  0  0  0  0  0  0  0  0
    5.5220   -3.5650    0.0669 C   0  0  1  0  0  0  0  0  0  0  0  0
    6.9392   -3.0657   -0.4153 C   0  0  0  0  0  0  0  0  0  0  0  0
    7.0223   -1.9358   -0.9565 O   0  0  0  0  0  0  0  0  0  0  0  0
    7.9368   -3.8040   -0.2405 O   0  0  0  0  0  0  0  0  0  0  0  0
    4.4138   -2.8879   -0.8178 C   0  0  1  0  0  0  0  0  0  0  0  0
    4.5339   -3.1255   -2.3445 C   0  0  0  0  0  0  0  0  0  0  0  0
    3.0083   -3.2702   -0.3497 C   0  0  0  0  0  0  0  0  0  0  0  0
    2.7847   -3.0274    1.1521 C   0  0  2  0  0  0  0  0  0  0  0  0
    2.6467   -1.2478    1.3263 Cl  0  0  0  0  0  0  0  0  0  0  0  0
    3.8257   -3.7088    2.1161 C   0  0  1  0  0  0  0  0  0  0  0  0
    3.5505   -3.3103    3.6433 C   0  0  1  0  0  0  0  0  0  0  0  0
    3.4347   -1.9321    3.9488 O   0  0  0  0  0  0  0  0  0  0  0  0
    2.3098   -4.0213    4.2174 C   0  0  2  0  0  0  0  0  0  0  0  0
    1.8196   -3.3704    5.8138 Cl  0  0  0  0  0  0  0  0  0  0  0  0
    2.5660   -5.5218    4.3726 C   0  0  0  0  0  0  0  0  0  0  0  0
    3.6787   -6.0789    3.4450 C   0  0  1  0  0  0  0  0  0  0  0  0
    5.3044   -3.3260    1.6264 C   0  0  2  0  0  0  0  0  0  0  0  0
    5.8119   -1.9585    2.1548 C   0  0  0  0  0  0  0  0  0  0  0  0
    5.7462   -0.9117    1.5077 O   0  0  0  0  0  0  0  0  0  0  0  0
    6.0949   -4.4972    2.2215 C   0  0  0  0  0  0  0  0  0  0  0  0
    5.4402   -8.3140    2.9969 H   0  0  0  0  0  0  0  0  0  0  0  0
    4.2428   -9.5720    3.2936 H   0  0  0  0  0  0  0  0  0  0  0  0
    4.7267   -8.4916    4.5982 H   0  0  0  0  0  0  0  0  0  0  0  0
    2.5142   -7.8982    3.7311 H   0  0  0  0  0  0  0  0  0  0  0  0
    3.7957   -8.0633    1.0943 H   0  0  0  0  0  0  0  0  0  0  0  0
    2.1082   -8.2523    1.5031 H   0  0  0  0  0  0  0  0  0  0  0  0
    2.8870   -6.1474    0.1629 H   0  0  0  0  0  0  0  0  0  0  0  0
    1.3102   -5.9932    2.4636 H   0  0  0  0  0  0  0  0  0  0  0  0
    5.6526   -6.5684    1.6853 H   0  0  0  0  0  0  0  0  0  0  0  0
    6.3737   -5.5724   -0.3168 H   0  0  0  0  0  0  0  0  0  0  0  0
    4.7017   -5.5175   -0.6361 H   0  0  0  0  0  0  0  0  0  0  0  0
    4.4941   -1.8073   -0.6802 H   0  0  0  0  0  0  0  0  0  0  0  0
    4.4600   -4.1829   -2.5979 H   0  0  0  0  0  0  0  0  0  0  0  0
    5.4664   -2.7466   -2.7613 H   0  0  0  0  0  0  0  0  0  0  0  0
    3.7288   -2.6012   -2.8605 H   0  0  0  0  0  0  0  0  0  0  0  0
    2.2814   -2.6856   -0.9144 H   0  0  0  0  0  0  0  0  0  0  0  0
    2.7889   -4.2836   -0.6502 H   0  0  0  0  0  0  0  0  0  0  0  0
    1.8102   -3.3967    1.4107 H   0  0  0  0  0  0  0  0  0  0  0  0
    4.3969   -3.6118    4.2578 H   0  0  0  0  0  0  0  0  0  0  0  0
    2.7717   -1.5497    3.3862 H   0  0  0  0  0  0  0  0  0  0  0  0
    1.4525   -3.8547    3.5626 H   0  0  0  0  0  0  0  0  0  0  0  0
    2.8707   -5.7313    5.4001 H   0  0  0  0  0  0  0  0  0  0  0  0
    1.6166   -6.0442    4.2602 H   0  0  0  0  0  0  0  0  0  0  0  0
    4.6072   -6.0160    4.0137 H   0  0  0  0  0  0  0  0  0  0  0  0
    6.1896   -1.9846    3.1755 H   0  0  0  0  0  0  0  0  0  0  0  0
    6.0624   -4.5590    3.3059 H   0  0  0  0  0  0  0  0  0  0  0  0
    7.1490   -4.5259    1.9446 H   0  0  0  0  0  0  0  0  0  0  0  0
  1  2  1  0
  1 29  1  0
  1 30  1  0
  1 31  1  0
  2 24  1  0
  2  3  1  0
  2 32  1  1
  3  4  1  0
  3 33  1  0
  3 34  1  0
  4  5  1  0
  4  6  1  0
  4 35  1  6
  5 36  1  0
  6 18  1  1
  6 24  1  0
  6  7  1  0
  7 28  1  0
  7  8  1  0
  7 37  1  6
  8  9  1  0
  8 38  1  0
  8 39  1  0
  9 25  1  0
  9 10  1  6
  9 13  1  0
 10 11  2  0
 10 12  1  0
 13 14  1  0
 13 15  1  0
 13 40  1  6
 14 41  1  0
 14 42  1  0
 14 43  1  0
 15 16  1  0
 15 44  1  0
 15 45  1  0
 16 17  1  0
 16 18  1  0
 16 46  1  1
 18 19  1  0
 18 25  1  6
 19 20  1  0
 19 21  1  0
 19 47  1  1
 20 48  1  0
 21 22  1  0
 21 23  1  0
 21 49  1  6
 23 24  1  0
 23 50  1  0
 23 51  1  0
 24 52  1  1
 25 26  1  1
 25 28  1  0
 26 27  2  0
 26 53  1  0
 28 54  1  0
 28 55  1  0
M  CHG  1  12  -1
M  END
>  <i_m_ct_stereo_status>  (31) 
1

>  <s_m_source_file>  (31) 
/var/tmp/pbs.5076255.sched01/tmp6yc3ji7b/0haed4tc5.sdf

>  <i_m_source_file_index>  (31) 
12

>  <i_lp_mmshare_version>  (31) 
48012

>  <i_f3d_flags>  (31) 
0

>  <s_epik_input>  (31) 
W09IXVtDQEBIXTFbQ0gyXVtDQEBIXShbQ0gzXSlbQ0BASF0yW0NIMl1bQ0BASF0oQ2wpW0NASF0oW09IXSlbQ0BdMyhbQ0BdMTI0KVtDQF01KFtDSF09TylbQ0BAXShDKD1PKVtPSF0pKFtDSDJdW0NASF00W0NIMl01KVtDQEBIXShbQ0gzXSlbQ0gyXVtDQEBIXTNDbA==

>  <s_epik_cmdline>  (31) 
J2VwaWtfcHl0aG9uJywgJy1waHQnLCAnMi4wJywgJy1waCcsICc3LjAnLCAnLXRuJywgJzgnLCAnLW1hJywgJzIwMCcsICctaW1hZScsICc8aW5maWxlLm1hZT4nLCAnLW9tYWUnLCAnPG91dGZpbGUubWFlPic=

>  <r_epik_Ionization_Penalty>  (31) 
0.00185771

>  <r_epik_Ionization_Penalty_Charging>  (31) 
0.00185568

>  <r_epik_Ionization_Penalty_Neutral>  (31) 
2.02629e-06

>  <r_epik_State_Penalty>  (31) 
0.00126121

>  <r_epik_Charging_Adjusted_Penalty>  (31) 
0.00311689

>  <i_epik_Tot_Q>  (31) 
-1

>  <i_epik_Tot_abs_Q>  (31) 
1

>  <s_lp_Force_Field>  (31) 
OPLS3e

>  <r_lp_Energy>  (31) 
89.4046

>  <b_lp_Chiralities_Consistent>  (31) 
1

>  <s_lp_Variant>  (31) 
8:0-1

>  <s_i_glide_gridfile>  (31) 
pfpi4k_grid

>  <i_i_glide_lignum>  (31) 
12

>  <i_i_glide_rotatable_bonds>  (31) 
4

>  <r_i_docking_score>  (31) 
-3.31344

>  <r_i_glide_ligand_efficiency>  (31) 
-0.118337

>  <r_i_glide_ligand_efficiency_sa>  (31) 
-0.359342

>  <r_i_glide_ligand_efficiency_ln>  (31) 
-0.76484

>  <r_i_glide_gscore>  (31) 
-3.31344

>  <r_i_glide_lipo>  (31) 
-0.286992

>  <r_i_glide_hbond>  (31) 
-0.313396

>  <r_i_glide_metal>  (31) 
-0

>  <r_i_glide_rewards>  (31) 
-0.694928

>  <r_i_glide_evdw>  (31) 
-22.5083

>  <r_i_glide_ecoul>  (31) 
-5.95141

>  <r_i_glide_erotb>  (31) 
0

>  <r_i_glide_esite>  (31) 
0

>  <r_i_glide_emodel>  (31) 
-35.3929

>  <r_i_glide_energy>  (31) 
-28.4597

>  <r_i_glide_einternal>  (31) 
0.581106

>  <r_i_glide_intrahb_reward>  (31) 
-0

>  <i_i_glide_confnum>  (31) 
2

>  <i_i_glide_posenum>  (31) 
35

>  <r_i_glide_eff_state_penalty>  (31) 
0

>  <ligand_id>  (31) 
8

>  <original_smiles>  (31) 
CC1CC(O)C23C4CC5(C(=O)O)C(C)CC(Cl)C2(C(O)C(Cl)CC13)C5(C=O)C4

>  <smiles>  (31) 
[H]OC1([H])C([H])([H])C([H])(C([H])([H])[H])C2([H])C([H])([H])C([H])(Cl)C([H])(O[H])C34C([H])(Cl)C([H])([H])C([H])(C([H])([H])[H])C5(C(=O)[O-])C([H])([H])C([H])(C([H])([H])C53C([H])=O)C124

$$$$
8:0:1
     RDKit          3D

 55 59  0  0  1  0  0  0  0  0999 V2000
    4.9350   -0.6601    0.7481 C   0  0  0  0  0  0  0  0  0  0  0  0
    5.1471   -2.0836    0.2136 C   0  0  2  0  0  0  0  0  0  0  0  0
    3.9107   -2.6737   -0.4643 C   0  0  0  0  0  0  0  0  0  0  0  0
    3.8227   -4.1296    0.0190 C   0  0  1  0  0  0  0  0  0  0  0  0
    4.6191   -4.9198   -0.8389 O   0  0  0  0  0  0  0  0  0  0  0  0
    4.3629   -4.1184    1.4974 C   0  0  1  0  0  0  0  0  0  0  0  0
    3.3301   -3.4845    2.4740 C   0  0  1  0  0  0  0  0  0  0  0  0
    1.9964   -4.2482    2.5578 C   0  0  0  0  0  0  0  0  0  0  0  0
    2.2725   -5.5235    3.4012 C   0  0  1  0  0  0  0  0  0  0  0  0
    1.4006   -5.4058    4.7129 C   0  0  0  0  0  0  0  0  0  0  0  0
    0.1467   -5.5805    4.5905 O   0  0  0  0  0  0  0  0  0  0  0  0
    1.9100   -5.0856    5.7981 O   0  0  0  0  0  0  0  0  0  0  0  0
    1.9269   -6.8604    2.6027 C   0  0  1  0  0  0  0  0  0  0  0  0
    0.4590   -7.1372    2.1754 C   0  0  0  0  0  0  0  0  0  0  0  0
    2.7822   -6.9880    1.3277 C   0  0  0  0  0  0  0  0  0  0  0  0
    4.2846   -6.8298    1.5511 C   0  0  2  0  0  0  0  0  0  0  0  0
    4.7491   -8.3539    2.3624 Cl  0  0  0  0  0  0  0  0  0  0  0  0
    4.7020   -5.4915    2.3043 C   0  0  1  0  0  0  0  0  0  0  0  0
    6.2700   -5.4623    2.5937 C   0  0  1  0  0  0  0  0  0  0  0  0
    6.8275   -6.6045    3.2127 O   0  0  0  0  0  0  0  0  0  0  0  0
    7.1046   -5.1989    1.3325 C   0  0  2  0  0  0  0  0  0  0  0  0
    8.8540   -5.4416    1.6313 Cl  0  0  0  0  0  0  0  0  0  0  0  0
    6.9010   -3.7733    0.8268 C   0  0  0  0  0  0  0  0  0  0  0  0
    5.5657   -3.1175    1.2794 C   0  0  1  0  0  0  0  0  0  0  0  0
    3.8345   -5.3229    3.6233 C   0  0  2  0  0  0  0  0  0  0  0  0
    4.3873   -6.1112    4.8489 C   0  0  0  0  0  0  0  0  0  0  0  0
    5.1939   -5.6097    5.6254 O   0  0  0  0  0  0  0  0  0  0  0  0
    3.9051   -3.8002    3.8365 C   0  0  0  0  0  0  0  0  0  0  0  0
    4.1659   -0.6223    1.5196 H   0  0  0  0  0  0  0  0  0  0  0  0
    4.6259    0.0219   -0.0461 H   0  0  0  0  0  0  0  0  0  0  0  0
    5.8576   -0.2675    1.1809 H   0  0  0  0  0  0  0  0  0  0  0  0
    5.9174   -2.0019   -0.5506 H   0  0  0  0  0  0  0  0  0  0  0  0
    3.0166   -2.1342   -0.1451 H   0  0  0  0  0  0  0  0  0  0  0  0
    3.9477   -2.5888   -1.5545 H   0  0  0  0  0  0  0  0  0  0  0  0
    2.7934   -4.4454   -0.1136 H   0  0  0  0  0  0  0  0  0  0  0  0
    4.0749   -5.2008   -1.5653 H   0  0  0  0  0  0  0  0  0  0  0  0
    3.1761   -2.4188    2.3004 H   0  0  0  0  0  0  0  0  0  0  0  0
    1.2428   -3.6176    3.0468 H   0  0  0  0  0  0  0  0  0  0  0  0
    1.5908   -4.4903    1.5915 H   0  0  0  0  0  0  0  0  0  0  0  0
    2.1980   -7.6869    3.2672 H   0  0  0  0  0  0  0  0  0  0  0  0
    0.0541   -6.3446    1.5430 H   0  0  0  0  0  0  0  0  0  0  0  0
   -0.2275   -7.2881    3.0198 H   0  0  0  0  0  0  0  0  0  0  0  0
    0.4001   -8.0590    1.5914 H   0  0  0  0  0  0  0  0  0  0  0  0
    2.6155   -7.9736    0.9010 H   0  0  0  0  0  0  0  0  0  0  0  0
    2.4130   -6.3222    0.5613 H   0  0  0  0  0  0  0  0  0  0  0  0
    4.7982   -6.8935    0.5964 H   0  0  0  0  0  0  0  0  0  0  0  0
    6.4837   -4.6562    3.2991 H   0  0  0  0  0  0  0  0  0  0  0  0
    7.7711   -6.4527    3.3299 H   0  0  0  0  0  0  0  0  0  0  0  0
    6.8391   -5.9128    0.5626 H   0  0  0  0  0  0  0  0  0  0  0  0
    7.7048   -3.1521    1.1890 H   0  0  0  0  0  0  0  0  0  0  0  0
    7.0228   -3.7830   -0.2686 H   0  0  0  0  0  0  0  0  0  0  0  0
    5.7905   -2.5847    2.2221 H   0  0  0  0  0  0  0  0  0  0  0  0
    3.9990   -7.1288    4.9538 H   0  0  0  0  0  0  0  0  0  0  0  0
    4.9019   -3.4064    4.0152 H   0  0  0  0  0  0  0  0  0  0  0  0
    3.2720   -3.4132    4.6351 H   0  0  0  0  0  0  0  0  0  0  0  0
  1  2  1  0
  1 29  1  0
  1 30  1  0
  1 31  1  0
  2 24  1  0
  2  3  1  0
  2 32  1  6
  3  4  1  0
  3 33  1  0
  3 34  1  0
  4  5  1  0
  4  6  1  0
  4 35  1  1
  5 36  1  0
  6 18  1  1
  6 24  1  0
  6  7  1  0
  7 28  1  0
  7  8  1  0
  7 37  1  6
  8  9  1  0
  8 38  1  0
  8 39  1  0
  9 25  1  0
  9 10  1  1
  9 13  1  0
 10 11  2  0
 10 12  1  0
 13 14  1  0
 13 15  1  0
 13 40  1  1
 14 41  1  0
 14 42  1  0
 14 43  1  0
 15 16  1  0
 15 44  1  0
 15 45  1  0
 16 17  1  0
 16 18  1  0
 16 46  1  6
 18 19  1  0
 18 25  1  1
 19 20  1  0
 19 21  1  0
 19 47  1  1
 20 48  1  0
 21 22  1  0
 21 23  1  0
 21 49  1  6
 23 24  1  0
 23 50  1  0
 23 51  1  0
 24 52  1  1
 25 26  1  1
 25 28  1  0
 26 27  2  0
 26 53  1  0
 28 54  1  0
 28 55  1  0
M  CHG  1  12  -1
M  END
>  <i_m_ct_stereo_status>  (32) 
1

>  <s_m_source_file>  (32) 
/var/tmp/pbs.5076255.sched01/tmp6yc3ji7b/0haed4tc5.sdf

>  <i_m_source_file_index>  (32) 
12

>  <i_lp_mmshare_version>  (32) 
48012

>  <i_f3d_flags>  (32) 
0

>  <s_epik_input>  (32) 
W09IXVtDQEBIXTFbQ0gyXVtDQEBIXShbQ0gzXSlbQ0BASF0yW0NIMl1bQ0BASF0oQ2wpW0NASF0oW09IXSlbQ0BdMyhbQ0BdMTI0KVtDQF01KFtDSF09TylbQ0BAXShDKD1PKVtPSF0pKFtDSDJdW0NASF00W0NIMl01KVtDQEBIXShbQ0gzXSlbQ0gyXVtDQEBIXTNDbA==

>  <s_epik_cmdline>  (32) 
J2VwaWtfcHl0aG9uJywgJy1waHQnLCAnMi4wJywgJy1waCcsICc3LjAnLCAnLXRuJywgJzgnLCAnLW1hJywgJzIwMCcsICctaW1hZScsICc8aW5maWxlLm1hZT4nLCAnLW9tYWUnLCAnPG91dGZpbGUubWFlPic=

>  <r_epik_Ionization_Penalty>  (32) 
0.00185771

>  <r_epik_Ionization_Penalty_Charging>  (32) 
0.00185568

>  <r_epik_Ionization_Penalty_Neutral>  (32) 
2.02629e-06

>  <r_epik_State_Penalty>  (32) 
0.00126121

>  <r_epik_Charging_Adjusted_Penalty>  (32) 
0.00311689

>  <i_epik_Tot_Q>  (32) 
-1

>  <i_epik_Tot_abs_Q>  (32) 
1

>  <s_lp_Force_Field>  (32) 
OPLS3e

>  <r_lp_Energy>  (32) 
89.4046

>  <b_lp_Chiralities_Consistent>  (32) 
1

>  <s_lp_Variant>  (32) 
8:0-1

>  <s_i_glide_gridfile>  (32) 
pfpi4k_grid

>  <i_i_glide_lignum>  (32) 
12

>  <i_i_glide_rotatable_bonds>  (32) 
4

>  <r_i_docking_score>  (32) 
-3.05471

>  <r_i_glide_ligand_efficiency>  (32) 
-0.109097

>  <r_i_glide_ligand_efficiency_sa>  (32) 
-0.331282

>  <r_i_glide_ligand_efficiency_ln>  (32) 
-0.705116

>  <r_i_glide_gscore>  (32) 
-3.05471

>  <r_i_glide_lipo>  (32) 
-0.559987

>  <r_i_glide_hbond>  (32) 
-0.32

>  <r_i_glide_metal>  (32) 
-0

>  <r_i_glide_rewards>  (32) 
-0.474944

>  <r_i_glide_evdw>  (32) 
-23.2084

>  <r_i_glide_ecoul>  (32) 
-3.57966

>  <r_i_glide_erotb>  (32) 
0

>  <r_i_glide_esite>  (32) 
-0.00240696

>  <r_i_glide_emodel>  (32) 
-30.8751

>  <r_i_glide_energy>  (32) 
-26.7881

>  <r_i_glide_einternal>  (32) 
4.01548

>  <r_i_glide_intrahb_reward>  (32) 
-0

>  <i_i_glide_confnum>  (32) 
1

>  <i_i_glide_posenum>  (32) 
36

>  <r_i_glide_eff_state_penalty>  (32) 
0

>  <ligand_id>  (32) 
8

>  <original_smiles>  (32) 
CC1CC(O)C23C4CC5(C(=O)O)C(C)CC(Cl)C2(C(O)C(Cl)CC13)C5(C=O)C4

>  <smiles>  (32) 
[H]OC1([H])C([H])([H])C([H])(C([H])([H])[H])C2([H])C([H])([H])C([H])(Cl)C([H])(O[H])C34C([H])(Cl)C([H])([H])C([H])(C([H])([H])[H])C5(C(=O)[O-])C([H])([H])C([H])(C([H])([H])C53C([H])=O)C124

$$$$
8:0:2
     RDKit          3D

 55 59  0  0  1  0  0  0  0  0999 V2000
    4.6302   -8.6241    3.4163 C   0  0  0  0  0  0  0  0  0  0  0  0
    3.4647   -7.6526    3.1529 C   0  0  2  0  0  0  0  0  0  0  0  0
    2.9723   -7.6519    1.7048 C   0  0  0  0  0  0  0  0  0  0  0  0
    2.7387   -6.1829    1.3306 C   0  0  1  0  0  0  0  0  0  0  0  0
    1.4136   -5.8599    1.7180 O   0  0  0  0  0  0  0  0  0  0  0  0
    3.8355   -5.3739    2.1075 C   0  0  1  0  0  0  0  0  0  0  0  0
    5.2394   -5.5774    1.4619 C   0  0  1  0  0  0  0  0  0  0  0  0
    5.3156   -5.0875   -0.0019 C   0  0  0  0  0  0  0  0  0  0  0  0
    5.3908   -3.5305    0.0606 C   0  0  1  0  0  0  0  0  0  0  0  0
    6.7805   -3.0091   -0.4945 C   0  0  0  0  0  0  0  0  0  0  0  0
    6.8335   -1.8934   -1.0798 O   0  0  0  0  0  0  0  0  0  0  0  0
    7.7952   -3.7133   -0.3129 O   0  0  0  0  0  0  0  0  0  0  0  0
    4.2266   -2.8370   -0.7256 C   0  0  1  0  0  0  0  0  0  0  0  0
    4.2349   -3.0264   -2.2654 C   0  0  0  0  0  0  0  0  0  0  0  0
    2.8625   -3.2504   -0.1762 C   0  0  0  0  0  0  0  0  0  0  0  0
    2.7320   -3.0408    1.3484 C   0  0  2  0  0  0  0  0  0  0  0  0
    2.6069   -1.2624    1.5645 Cl  0  0  0  0  0  0  0  0  0  0  0  0
    3.8384   -3.7527    2.2171 C   0  0  1  0  0  0  0  0  0  0  0  0
    3.6704   -3.4115    3.7731 C   0  0  1  0  0  0  0  0  0  0  0  0
    3.5731   -2.0436    4.1306 O   0  0  0  0  0  0  0  0  0  0  0  0
    2.4718   -4.1397    4.4060 C   0  0  2  0  0  0  0  0  0  0  0  0
    2.0976   -3.5319    6.0498 Cl  0  0  0  0  0  0  0  0  0  0  0  0
    2.7345   -5.6442    4.4919 C   0  0  0  0  0  0  0  0  0  0  0  0
    3.7842   -6.1683    3.4765 C   0  0  1  0  0  0  0  0  0  0  0  0
    5.2759   -3.3452    1.6394 C   0  0  2  0  0  0  0  0  0  0  0  0
    5.8052   -1.9925    2.1657 C   0  0  0  0  0  0  0  0  0  0  0  0
    5.7419   -0.9362    1.5348 O   0  0  0  0  0  0  0  0  0  0  0  0
    6.1059   -4.5297    2.1461 C   0  0  0  0  0  0  0  0  0  0  0  0
    5.5159   -8.3762    2.8326 H   0  0  0  0  0  0  0  0  0  0  0  0
    4.3471   -9.6494    3.1678 H   0  0  0  0  0  0  0  0  0  0  0  0
    4.9139   -8.6096    4.4700 H   0  0  0  0  0  0  0  0  0  0  0  0
    2.6456   -8.0000    3.7758 H   0  0  0  0  0  0  0  0  0  0  0  0
    3.7422   -8.0697    1.0571 H   0  0  0  0  0  0  0  0  0  0  0  0
    2.0874   -8.2784    1.5685 H   0  0  0  0  0  0  0  0  0  0  0  0
    2.7769   -6.1314    0.2499 H   0  0  0  0  0  0  0  0  0  0  0  0
    1.3365   -6.0608    2.6359 H   0  0  0  0  0  0  0  0  0  0  0  0
    5.6326   -6.5849    1.5692 H   0  0  0  0  0  0  0  0  0  0  0  0
    6.2155   -5.5218   -0.4081 H   0  0  0  0  0  0  0  0  0  0  0  0
    4.5294   -5.4665   -0.6474 H   0  0  0  0  0  0  0  0  0  0  0  0
    4.3115   -1.7621   -0.5579 H   0  0  0  0  0  0  0  0  0  0  0  0
    4.1513   -4.0747   -2.5472 H   0  0  0  0  0  0  0  0  0  0  0  0
    5.1263   -2.6271   -2.7414 H   0  0  0  0  0  0  0  0  0  0  0  0
    3.3892   -2.4915   -2.7033 H   0  0  0  0  0  0  0  0  0  0  0  0
    2.1080   -2.6556   -0.6757 H   0  0  0  0  0  0  0  0  0  0  0  0
    2.6216   -4.2580   -0.4865 H   0  0  0  0  0  0  0  0  0  0  0  0
    1.7669   -3.4018    1.6761 H   0  0  0  0  0  0  0  0  0  0  0  0
    4.5582   -3.7294    4.3147 H   0  0  0  0  0  0  0  0  0  0  0  0
    3.5437   -1.9747    5.0669 H   0  0  0  0  0  0  0  0  0  0  0  0
    1.5734   -3.9521    3.8147 H   0  0  0  0  0  0  0  0  0  0  0  0
    3.1077   -5.8889    5.4903 H   0  0  0  0  0  0  0  0  0  0  0  0
    1.7816   -6.1628    4.4253 H   0  0  0  0  0  0  0  0  0  0  0  0
    4.7457   -6.1198    3.9767 H   0  0  0  0  0  0  0  0  0  0  0  0
    6.2104   -2.0397    3.1720 H   0  0  0  0  0  0  0  0  0  0  0  0
    6.1485   -4.6310    3.2293 H   0  0  0  0  0  0  0  0  0  0  0  0
    7.1401   -4.5545    1.8098 H   0  0  0  0  0  0  0  0  0  0  0  0
  1  2  1  0
  1 29  1  0
  1 30  1  0
  1 31  1  0
  2 24  1  0
  2  3  1  0
  2 32  1  1
  3  4  1  0
  3 33  1  0
  3 34  1  0
  4  5  1  0
  4  6  1  0
  4 35  1  6
  5 36  1  0
  6 18  1  1
  6 24  1  0
  6  7  1  0
  7 28  1  0
  7  8  1  0
  7 37  1  6
  8  9  1  0
  8 38  1  0
  8 39  1  0
  9 25  1  0
  9 10  1  6
  9 13  1  0
 10 11  2  0
 10 12  1  0
 13 14  1  0
 13 15  1  0
 13 40  1  6
 14 41  1  0
 14 42  1  0
 14 43  1  0
 15 16  1  0
 15 44  1  0
 15 45  1  0
 16 17  1  0
 16 18  1  0
 16 46  1  1
 18 19  1  0
 18 25  1  6
 19 20  1  0
 19 21  1  0
 19 47  1  1
 20 48  1  0
 21 22  1  0
 21 23  1  0
 21 49  1  6
 23 24  1  0
 23 50  1  0
 23 51  1  0
 24 52  1  1
 25 26  1  6
 25 28  1  0
 26 27  2  0
 26 53  1  0
 28 54  1  0
 28 55  1  0
M  CHG  1  12  -1
M  END
>  <i_m_ct_stereo_status>  (33) 
1

>  <s_m_source_file>  (33) 
/var/tmp/pbs.5076255.sched01/tmp6yc3ji7b/0haed4tc5.sdf

>  <i_m_source_file_index>  (33) 
12

>  <i_lp_mmshare_version>  (33) 
48012

>  <i_f3d_flags>  (33) 
0

>  <s_epik_input>  (33) 
W09IXVtDQEBIXTFbQ0gyXVtDQEBIXShbQ0gzXSlbQ0BASF0yW0NIMl1bQ0BASF0oQ2wpW0NASF0oW09IXSlbQ0BdMyhbQ0BdMTI0KVtDQF01KFtDSF09TylbQ0BAXShDKD1PKVtPSF0pKFtDSDJdW0NASF00W0NIMl01KVtDQEBIXShbQ0gzXSlbQ0gyXVtDQEBIXTNDbA==

>  <s_epik_cmdline>  (33) 
J2VwaWtfcHl0aG9uJywgJy1waHQnLCAnMi4wJywgJy1waCcsICc3LjAnLCAnLXRuJywgJzgnLCAnLW1hJywgJzIwMCcsICctaW1hZScsICc8aW5maWxlLm1hZT4nLCAnLW9tYWUnLCAnPG91dGZpbGUubWFlPic=

>  <r_epik_Ionization_Penalty>  (33) 
0.00185771

>  <r_epik_Ionization_Penalty_Charging>  (33) 
0.00185568

>  <r_epik_Ionization_Penalty_Neutral>  (33) 
2.02629e-06

>  <r_epik_State_Penalty>  (33) 
0.00126121

>  <r_epik_Charging_Adjusted_Penalty>  (33) 
0.00311689

>  <i_epik_Tot_Q>  (33) 
-1

>  <i_epik_Tot_abs_Q>  (33) 
1

>  <s_lp_Force_Field>  (33) 
OPLS3e

>  <r_lp_Energy>  (33) 
89.4046

>  <b_lp_Chiralities_Consistent>  (33) 
1

>  <s_lp_Variant>  (33) 
8:0-1

>  <s_i_glide_gridfile>  (33) 
pfpi4k_grid

>  <i_i_glide_lignum>  (33) 
12

>  <i_i_glide_rotatable_bonds>  (33) 
4

>  <r_i_docking_score>  (33) 
-2.99189

>  <r_i_glide_ligand_efficiency>  (33) 
-0.106853

>  <r_i_glide_ligand_efficiency_sa>  (33) 
-0.32447

>  <r_i_glide_ligand_efficiency_ln>  (33) 
-0.690617

>  <r_i_glide_gscore>  (33) 
-2.99189

>  <r_i_glide_lipo>  (33) 
-0.245564

>  <r_i_glide_hbond>  (33) 
-0.285538

>  <r_i_glide_metal>  (33) 
-0

>  <r_i_glide_rewards>  (33) 
-0.655537

>  <r_i_glide_evdw>  (33) 
-21.7831

>  <r_i_glide_ecoul>  (33) 
-4.77401

>  <r_i_glide_erotb>  (33) 
0

>  <r_i_glide_esite>  (33) 
0

>  <r_i_glide_emodel>  (33) 
-32.3783

>  <r_i_glide_energy>  (33) 
-26.5571

>  <r_i_glide_einternal>  (33) 
1.13448

>  <r_i_glide_intrahb_reward>  (33) 
-0

>  <i_i_glide_confnum>  (33) 
2

>  <i_i_glide_posenum>  (33) 
2

>  <r_i_glide_eff_state_penalty>  (33) 
0

>  <ligand_id>  (33) 
8

>  <original_smiles>  (33) 
CC1CC(O)C23C4CC5(C(=O)O)C(C)CC(Cl)C2(C(O)C(Cl)CC13)C5(C=O)C4

>  <smiles>  (33) 
[H]OC1([H])C([H])([H])C([H])(C([H])([H])[H])C2([H])C([H])([H])C([H])(Cl)C([H])(O[H])C34C([H])(Cl)C([H])([H])C([H])(C([H])([H])[H])C5(C(=O)[O-])C([H])([H])C([H])(C([H])([H])C53C([H])=O)C124

$$$$
10:0:0
     RDKit          3D

108116  0  0  1  0  0  0  0  0999 V2000
    0.2440   -9.1942    3.1688 C   0  0  0  0  0  0  0  0  0  0  0  0
    0.2880   -8.0038    4.1475 C   0  0  0  0  0  0  0  0  0  0  0  0
   -1.1503   -7.5697    4.4802 C   0  0  0  0  0  0  0  0  0  0  0  0
    1.1574   -6.8246    3.6261 C   0  0  2  0  0  0  0  0  0  0  0  0
    2.5695   -7.2558    3.1980 C   0  0  0  0  0  0  0  0  0  0  0  0
    3.4235   -5.9962    3.3160 C   0  0  0  0  0  0  0  0  0  0  0  0
    2.8878   -5.2954    4.5718 C   0  0  1  0  0  0  0  0  0  0  0  0
    3.2248   -3.7784    4.7454 C   0  0  1  0  0  0  0  0  0  0  0  0
    3.3944   -2.9597    3.4292 C   0  0  0  0  0  0  0  0  0  0  0  0
    3.7858   -1.4866    3.6744 C   0  0  0  0  0  0  0  0  0  0  0  0
    2.7506   -0.7386    4.5349 C   0  0  1  0  0  0  0  0  0  0  0  0
    1.4549   -0.5646    3.7775 C   0  0  0  0  0  0  0  0  0  0  0  0
    2.5433   -1.5725    5.7578 C   0  0  0  0  0  0  0  0  0  0  0  0
    3.0490   -0.7001    6.6158 C   0  0  0  0  0  0  0  0  0  0  0  0
    3.1741    0.4069    5.5538 C   0  0  1  0  0  0  0  0  0  0  0  0
    4.6206    0.9128    5.4136 C   0  0  0  0  0  0  0  0  0  0  0  0
    2.1979    1.6123    5.8182 C   0  0  2  0  0  0  0  0  0  0  0  0
    2.1205    2.5030    4.6521 N   0  0  0  0  0  0  0  0  0  0  0  0
    0.9151    3.0688    4.2357 C   0  0  0  0  0  0  0  0  0  0  0  0
    0.8281    4.4304    3.8537 C   0  0  0  0  0  0  0  0  0  0  0  0
   -0.3974    4.9920    3.4241 C   0  0  0  0  0  0  0  0  0  0  0  0
   -1.5425    4.1721    3.3332 C   0  0  0  0  0  0  0  0  0  0  0  0
   -2.8500    4.6424    2.7953 C   0  0  0  0  0  0  0  0  0  0  0  0
   -3.0693    5.7578    2.0759 C   0  0  0  0  0  0  0  0  0  0  0  0
   -4.4782    6.2236    1.6135 C   0  0  0  0  0  0  0  0  0  0  0  0
   -4.8275    7.3577    2.0516 O   0  0  0  0  0  0  0  0  0  0  0  0
   -5.1165    5.4406    0.9080 O   0  0  0  0  0  0  0  0  0  0  0  0
   -1.4818    2.8400    3.7056 C   0  0  0  0  0  0  0  0  0  0  0  0
   -0.2620    2.2642    4.1955 C   0  0  0  0  0  0  0  0  0  0  0  0
    2.4657    2.4665    7.1118 C   0  0  2  0  0  0  0  0  0  0  0  0
    2.6492    1.6231    8.2542 O   0  0  0  0  0  0  0  0  0  0  0  0
    1.8336    2.0061    9.3179 C   0  0  2  0  0  0  0  0  0  0  0  0
    1.4676    0.9210   10.1275 O   0  0  0  0  0  0  0  0  0  0  0  0
    0.0839    0.5804   10.1453 C   0  0  1  0  0  0  0  0  0  0  0  0
    0.0515   -0.8747   10.6198 C   0  0  0  0  0  0  0  0  0  0  0  0
   -0.7272    1.4878   11.1012 C   0  0  0  0  0  0  0  0  0  0  0  0
   -0.3422    2.9701   11.0979 C   0  0  0  0  0  0  0  0  0  0  0  0
   -0.1613    3.6249    9.7073 C   0  0  1  0  0  0  0  0  0  0  0  0
    0.2691    5.1228    9.8100 C   0  0  1  0  0  0  0  0  0  0  0  0
    1.3586    5.4228   10.8609 C   0  0  0  0  0  0  0  0  0  0  0  0
    0.6656    5.6893    8.4399 C   0  0  0  0  0  0  0  0  0  0  0  0
    1.7900    4.8535    7.8264 C   0  0  0  0  0  0  0  0  0  0  0  0
    1.3126    3.4290    7.5168 C   0  0  2  0  0  0  0  0  0  0  0  0
    0.6391    2.7411    8.6935 C   0  0  1  0  0  0  0  0  0  0  0  0
   -0.3030    1.8344    8.0980 O   0  0  0  0  0  0  0  0  0  0  0  0
   -0.4641    0.5374    8.8343 O   0  0  0  0  0  0  0  0  0  0  0  0
    2.2650   -3.0751    5.7528 C   0  0  1  0  0  0  0  0  0  0  0  0
    0.7690   -3.3625    5.4866 C   0  0  0  0  0  0  0  0  0  0  0  0
    0.4943   -4.4681    4.4618 C   0  0  0  0  0  0  0  0  0  0  0  0
    1.3962   -5.6884    4.6592 C   0  0  1  0  0  0  0  0  0  0  0  0
   -0.1689   -8.9065    2.2010 H   0  0  0  0  0  0  0  0  0  0  0  0
   -0.3750  -10.0001    3.5672 H   0  0  0  0  0  0  0  0  0  0  0  0
    1.2339   -9.6185    2.9997 H   0  0  0  0  0  0  0  0  0  0  0  0
    0.7389   -8.3763    5.0694 H   0  0  0  0  0  0  0  0  0  0  0  0
   -1.6585   -7.1575    3.6071 H   0  0  0  0  0  0  0  0  0  0  0  0
   -1.1660   -6.8242    5.2746 H   0  0  0  0  0  0  0  0  0  0  0  0
   -1.7368   -8.4204    4.8297 H   0  0  0  0  0  0  0  0  0  0  0  0
    0.6732   -6.3999    2.7461 H   0  0  0  0  0  0  0  0  0  0  0  0
    2.9542   -8.0217    3.8734 H   0  0  0  0  0  0  0  0  0  0  0  0
    2.5838   -7.6727    2.1873 H   0  0  0  0  0  0  0  0  0  0  0  0
    4.4879   -6.2254    3.3853 H   0  0  0  0  0  0  0  0  0  0  0  0
    3.2671   -5.4033    2.4139 H   0  0  0  0  0  0  0  0  0  0  0  0
    3.3498   -5.8084    5.4131 H   0  0  0  0  0  0  0  0  0  0  0  0
    4.2151   -3.7604    5.1949 H   0  0  0  0  0  0  0  0  0  0  0  0
    4.1792   -3.4047    2.8287 H   0  0  0  0  0  0  0  0  0  0  0  0
    2.4909   -3.0349    2.8233 H   0  0  0  0  0  0  0  0  0  0  0  0
    4.7627   -1.5111    4.1459 H   0  0  0  0  0  0  0  0  0  0  0  0
    3.9166   -0.9771    2.7254 H   0  0  0  0  0  0  0  0  0  0  0  0
    1.5364    0.2893    3.1227 H   0  0  0  0  0  0  0  0  0  0  0  0
    0.6559   -0.3980    4.4832 H   0  0  0  0  0  0  0  0  0  0  0  0
    1.2159   -1.4278    3.1562 H   0  0  0  0  0  0  0  0  0  0  0  0
    3.3269   -0.7702    7.6746 H   0  0  0  0  0  0  0  0  0  0  0  0
    4.7579    1.3842    4.4424 H   0  0  0  0  0  0  0  0  0  0  0  0
    5.3425    0.0989    5.4674 H   0  0  0  0  0  0  0  0  0  0  0  0
    4.9131    1.6376    6.1786 H   0  0  0  0  0  0  0  0  0  0  0  0
    1.2279    1.1672    5.9965 H   0  0  0  0  0  0  0  0  0  0  0  0
    3.0041    2.9300    4.3609 H   0  0  0  0  0  0  0  0  0  0  0  0
    1.7163    5.0562    3.8756 H   0  0  0  0  0  0  0  0  0  0  0  0
   -0.4294    6.0415    3.1040 H   0  0  0  0  0  0  0  0  0  0  0  0
   -3.7014    4.0220    3.0122 H   0  0  0  0  0  0  0  0  0  0  0  0
   -2.2429    6.3803    1.7836 H   0  0  0  0  0  0  0  0  0  0  0  0
   -2.3326    2.2058    3.5821 H   0  0  0  0  0  0  0  0  0  0  0  0
   -0.3075    1.2436    4.4629 H   0  0  0  0  0  0  0  0  0  0  0  0
    3.3799    3.0554    6.9865 H   0  0  0  0  0  0  0  0  0  0  0  0
    2.4165    2.6875    9.9315 H   0  0  0  0  0  0  0  0  0  0  0  0
    0.6000   -1.5003    9.9178 H   0  0  0  0  0  0  0  0  0  0  0  0
   -0.9691   -1.2421   10.6858 H   0  0  0  0  0  0  0  0  0  0  0  0
    0.5130   -0.9897   11.5994 H   0  0  0  0  0  0  0  0  0  0  0  0
   -1.7855    1.3662   10.8945 H   0  0  0  0  0  0  0  0  0  0  0  0
   -0.5890    1.1350   12.1203 H   0  0  0  0  0  0  0  0  0  0  0  0
   -1.0991    3.5172   11.6554 H   0  0  0  0  0  0  0  0  0  0  0  0
    0.5795    3.0579   11.6709 H   0  0  0  0  0  0  0  0  0  0  0  0
   -1.1628    3.6787    9.2772 H   0  0  0  0  0  0  0  0  0  0  0  0
   -0.6038    5.6868   10.1357 H   0  0  0  0  0  0  0  0  0  0  0  0
    2.2407    4.7974   10.7299 H   0  0  0  0  0  0  0  0  0  0  0  0
    0.9834    5.2667   11.8723 H   0  0  0  0  0  0  0  0  0  0  0  0
    1.6791    6.4643   10.8039 H   0  0  0  0  0  0  0  0  0  0  0  0
   -0.1954    5.7015    7.7705 H   0  0  0  0  0  0  0  0  0  0  0  0
    0.9756    6.7319    8.5394 H   0  0  0  0  0  0  0  0  0  0  0  0
    2.1148    5.3342    6.9065 H   0  0  0  0  0  0  0  0  0  0  0  0
    2.6589    4.8360    8.4899 H   0  0  0  0  0  0  0  0  0  0  0  0
    0.5734    3.5217    6.7312 H   0  0  0  0  0  0  0  0  0  0  0  0
    2.4829   -3.4249    6.7693 H   0  0  0  0  0  0  0  0  0  0  0  0
    0.2821   -3.6257    6.4252 H   0  0  0  0  0  0  0  0  0  0  0  0
    0.2585   -2.4637    5.1397 H   0  0  0  0  0  0  0  0  0  0  0  0
   -0.5471   -4.7664    4.5604 H   0  0  0  0  0  0  0  0  0  0  0  0
    0.6104   -4.0739    3.4509 H   0  0  0  0  0  0  0  0  0  0  0  0
    1.2071   -6.0734    5.6630 H   0  0  0  0  0  0  0  0  0  0  0  0
  1  2  1  0
  1 51  1  0
  1 52  1  0
  1 53  1  0
  2  3  1  0
  2  4  1  0
  2 54  1  0
  3 55  1  0
  3 56  1  0
  3 57  1  0
  4 50  1  0
  4  5  1  0
  4 58  1  6
  5  6  1  0
  5 59  1  0
  5 60  1  0
  6  7  1  0
  6 61  1  0
  6 62  1  0
  7 50  1  0
  7  8  1  0
  7 63  1  1
  8 47  1  0
  8  9  1  0
  8 64  1  1
  9 10  1  0
  9 65  1  0
  9 66  1  0
 10 11  1  0
 10 67  1  0
 10 68  1  0
 11 15  1  0
 11 12  1  6
 11 13  1  0
 12 69  1  0
 12 70  1  0
 12 71  1  0
 13 14  2  0
 13 47  1  0
 14 15  1  0
 14 72  1  0
 15 16  1  6
 15 17  1  0
 16 73  1  0
 16 74  1  0
 16 75  1  0
 17 18  1  0
 17 30  1  0
 17 76  1  1
 18 19  1  0
 18 77  1  0
 19 29  1  0
 19 20  2  0
 20 21  1  0
 20 78  1  0
 21 22  2  0
 21 79  1  0
 22 23  1  0
 22 28  1  0
 23 24  2  3
 23 80  1  0
 24 25  1  0
 24 81  1  0
 25 26  2  0
 25 27  1  0
 28 29  2  0
 28 82  1  0
 29 83  1  0
 30 43  1  0
 30 31  1  0
 30 84  1  6
 31 32  1  0
 32 44  1  0
 32 33  1  0
 32 85  1  1
 33 34  1  0
 34 46  1  0
 34 35  1  1
 34 36  1  0
 35 86  1  0
 35 87  1  0
 35 88  1  0
 36 37  1  0
 36 89  1  0
 36 90  1  0
 37 38  1  0
 37 91  1  0
 37 92  1  0
 38 44  1  0
 38 39  1  0
 38 93  1  6
 39 40  1  0
 39 41  1  0
 39 94  1  1
 40 95  1  0
 40 96  1  0
 40 97  1  0
 41 42  1  0
 41 98  1  0
 41 99  1  0
 42 43  1  0
 42100  1  0
 42101  1  0
 43 44  1  0
 43102  1  6
 44 45  1  6
 45 46  1  0
 47 48  1  0
 47103  1  1
 48 49  1  0
 48104  1  0
 48105  1  0
 49 50  1  0
 49106  1  0
 49107  1  0
 50108  1  1
M  CHG  1  27  -1
M  END
>  <i_m_ct_stereo_status>  (34) 
1

>  <s_m_source_file>  (34) 
/var/tmp/pbs.5076255.sched01/tmp6yc3ji7b/0haed4tc5.sdf

>  <i_m_source_file_index>  (34) 
14

>  <i_lp_mmshare_version>  (34) 
48012

>  <i_f3d_flags>  (34) 
0

>  <s_epik_input>  (34) 
W0NIM11bQ0hdKFtDSDNdKVtDQEhdKFtDSDJdW0NIMl0xKVtDQEhdKFtDSDJdW0NIMl0yKVtDQEBIXTFbQ0BASF0oW0NIMl1bQ0gyXTMpW0NASF0yQyhbQ0BdMzRbQ0gzXSk9W0NIXVtDQF00KFtDSDNdKVtDQEhdKFtOSF1jNVtjSF1bY0hdYyhbY0hdW2NIXTUpL1tDSF09W0NIXS9DKD1PKVtPSF0pW0NASF0oT1tDQEhdNltDQEBdNzg5KVtDQEBIXThbQ0gyXVtDSDJdW0NASF0oW0NIM10pW0NAQEhdN1tDSDJdW0NIMl1bQ0BAXShPNikoW0NIM10pT085

>  <s_epik_cmdline>  (34) 
J2VwaWtfcHl0aG9uJywgJy1waHQnLCAnMi4wJywgJy1waCcsICc3LjAnLCAnLXRuJywgJzgnLCAnLW1hJywgJzIwMCcsICctaW1hZScsICc8aW5maWxlLm1hZT4nLCAnLW9tYWUnLCAnPG91dGZpbGUubWFlPic=

>  <r_lp_tautomer_probability>  (34) 
1

>  <r_epik_Ionization_Penalty>  (34) 
0.00593109

>  <r_epik_Ionization_Penalty_Charging>  (34) 
0.00202949

>  <r_epik_Ionization_Penalty_Neutral>  (34) 
0.00390159

>  <r_epik_State_Penalty>  (34) 
-0

>  <r_epik_Charging_Adjusted_Penalty>  (34) 
0.00202949

>  <i_epik_Tot_Q>  (34) 
-1

>  <i_epik_Tot_abs_Q>  (34) 
1

>  <s_epik_Chemistry_Notes>  (34) 
This compound contains an acetal/aminal-like group ( X-CH(R)-Y where X, Y are N, S, or O) that may be acid/base labile, releasing an aldehyde.

>  <s_lp_Force_Field>  (34) 
OPLS3e

>  <r_lp_Energy>  (34) 
97.2822

>  <b_lp_Chiralities_Consistent>  (34) 
1

>  <s_lp_Variant>  (34) 
10:0-1

>  <s_i_glide_gridfile>  (34) 
pfpi4k_grid

>  <i_i_glide_lignum>  (34) 
14

>  <i_i_glide_rotatable_bonds>  (34) 
7

>  <r_i_docking_score>  (34) 
-1.95404

>  <r_i_glide_ligand_efficiency>  (34) 
-0.0390808

>  <r_i_glide_ligand_efficiency_sa>  (34) 
-0.143975

>  <r_i_glide_ligand_efficiency_ln>  (34) 
-0.397807

>  <r_i_glide_gscore>  (34) 
-1.95404

>  <r_i_glide_lipo>  (34) 
-0.0182964

>  <r_i_glide_hbond>  (34) 
-0.0382366

>  <r_i_glide_metal>  (34) 
-0

>  <r_i_glide_rewards>  (34) 
-0.0288329

>  <r_i_glide_evdw>  (34) 
-25.9595

>  <r_i_glide_ecoul>  (34) 
-4.2722

>  <r_i_glide_erotb>  (34) 
0.104885

>  <r_i_glide_esite>  (34) 
-0.0347539

>  <r_i_glide_emodel>  (34) 
-29.9651

>  <r_i_glide_energy>  (34) 
-30.2317

>  <r_i_glide_einternal>  (34) 
5.57414

>  <r_i_glide_intrahb_reward>  (34) 
-0

>  <i_i_glide_confnum>  (34) 
2

>  <i_i_glide_posenum>  (34) 
22

>  <r_i_glide_eff_state_penalty>  (34) 
0

>  <ligand_id>  (34) 
10

>  <original_smiles>  (34) 
CC(C)C1CCC2C3CCC4(C)C(=CC4(C)C(Nc4ccc(C=CC(=O)O)cc4)C4OC5OC6(C)CCC7C(C)CCC4C57OO6)C3CCC12

>  <smiles>  (34) 
[H]C(C(=O)[O-])=C([H])c1c([H])c([H])c(N([H])C([H])(C2([H])OC3([H])OC4(C([H])([H])[H])OOC35C2([H])C([H])([H])C([H])([H])C([H])(C([H])([H])[H])C5([H])C([H])([H])C4([H])[H])C2(C([H])([H])[H])C([H])=C3C4([H])C([H])([H])C([H])([H])C5([H])C([H])(C([H])(C([H])([H])[H])C([H])([H])[H])C([H])([H])C([H])([H])C5([H])C4([H])C([H])([H])C([H])([H])C32C([H])([H])[H])c([H])c1[H]

$$$$
11:0:0
     RDKit          3D

 21 22  0  0  1  0  0  0  0  0999 V2000
    2.1992   -6.9712    1.6955 O   0  0  0  0  0  0  0  0  0  0  0  0
    1.8058   -6.1019    0.8891 C   0  0  0  0  0  0  0  0  0  0  0  0
    0.6214   -6.0636    0.4736 O   0  0  0  0  0  0  0  0  0  0  0  0
    2.7661   -5.0741    0.4353 C   0  0  0  0  0  0  0  0  0  0  0  0
    4.0823   -4.8873    0.7604 C   0  0  0  0  0  0  0  0  0  0  0  0
    4.6830   -3.7743    0.1006 C   0  0  0  0  0  0  0  0  0  0  0  0
    3.8129   -3.1253   -0.7365 C   0  0  0  0  0  0  0  0  0  0  0  0
    2.2367   -3.8561   -0.7185 S   0  0  0  0  0  0  0  0  0  0  0  0
    4.1321   -1.9348   -1.5767 C   0  0  0  0  0  0  0  0  0  0  0  0
    5.4510   -1.2755   -1.1415 C   0  0  0  0  0  0  0  0  0  0  0  0
    6.5493   -2.3068   -0.7842 C   0  0  0  0  0  0  0  0  0  0  0  0
    6.0996   -3.3192    0.2911 C   0  0  0  0  0  0  0  0  0  0  0  0
    4.6295   -5.5098    1.4497 H   0  0  0  0  0  0  0  0  0  0  0  0
    4.2068   -2.2553   -2.6174 H   0  0  0  0  0  0  0  0  0  0  0  0
    3.3141   -1.2108   -1.5317 H   0  0  0  0  0  0  0  0  0  0  0  0
    5.7847   -0.5914   -1.9207 H   0  0  0  0  0  0  0  0  0  0  0  0
    5.2612   -0.6722   -0.2516 H   0  0  0  0  0  0  0  0  0  0  0  0
    6.7888   -2.8589   -1.6961 H   0  0  0  0  0  0  0  0  0  0  0  0
    7.4734   -1.8281   -0.4550 H   0  0  0  0  0  0  0  0  0  0  0  0
    6.1871   -2.8555    1.2749 H   0  0  0  0  0  0  0  0  0  0  0  0
    6.7741   -4.1770    0.2944 H   0  0  0  0  0  0  0  0  0  0  0  0
  1  2  2  0
  2  3  1  0
  2  4  1  0
  4  8  1  0
  4  5  2  0
  5  6  1  0
  5 13  1  0
  6 12  1  0
  6  7  2  0
  7  8  1  0
  7  9  1  0
  9 10  1  0
  9 14  1  0
  9 15  1  0
 10 11  1  0
 10 16  1  0
 10 17  1  0
 11 12  1  0
 11 18  1  0
 11 19  1  0
 12 20  1  0
 12 21  1  0
M  CHG  1   3  -1
M  END
>  <i_m_ct_stereo_status>  (35) 
1

>  <s_m_source_file>  (35) 
/var/tmp/pbs.5076255.sched01/tmp6yc3ji7b/0haed4tc5.sdf

>  <i_m_source_file_index>  (35) 
16

>  <i_lp_mmshare_version>  (35) 
48012

>  <i_f3d_flags>  (35) 
0

>  <s_epik_input>  (35) 
Tz1DKFtPSF0pYyhbY0hdMSlzYyhjMTIpW0NIMl1bQ0gyXVtDSDJdW0NIMl0y

>  <s_epik_cmdline>  (35) 
J2VwaWtfcHl0aG9uJywgJy1waHQnLCAnMi4wJywgJy1waCcsICc3LjAnLCAnLXRuJywgJzgnLCAnLW1hJywgJzIwMCcsICctaW1hZScsICc8aW5maWxlLm1hZT4nLCAnLW9tYWUnLCAnPG91dGZpbGUubWFlPic=

>  <r_epik_Ionization_Penalty>  (35) 
0.000338318

>  <r_epik_Ionization_Penalty_Charging>  (35) 
0.000338318

>  <r_epik_Ionization_Penalty_Neutral>  (35) 
0

>  <r_epik_State_Penalty>  (35) 
0.00020503

>  <r_epik_Charging_Adjusted_Penalty>  (35) 
0.000543347

>  <i_epik_Tot_Q>  (35) 
-1

>  <i_epik_Tot_abs_Q>  (35) 
1

>  <s_lp_Force_Field>  (35) 
OPLS3e

>  <r_lp_Energy>  (35) 
10.2335

>  <b_lp_Chiralities_Consistent>  (35) 
1

>  <s_lp_Variant>  (35) 
11:0-1

>  <s_i_glide_gridfile>  (35) 
pfpi4k_grid

>  <i_i_glide_lignum>  (35) 
16

>  <i_i_glide_rotatable_bonds>  (35) 
1

>  <r_i_docking_score>  (35) 
-3.71376

>  <r_i_glide_ligand_efficiency>  (35) 
-0.30948

>  <r_i_glide_ligand_efficiency_sa>  (35) 
-0.708532

>  <r_i_glide_ligand_efficiency_ln>  (35) 
-1.06567

>  <r_i_glide_gscore>  (35) 
-3.71376

>  <r_i_glide_lipo>  (35) 
-0.142171

>  <r_i_glide_hbond>  (35) 
-0.227415

>  <r_i_glide_metal>  (35) 
-0

>  <r_i_glide_rewards>  (35) 
-2.17341

>  <r_i_glide_evdw>  (35) 
-12.6313

>  <r_i_glide_ecoul>  (35) 
-3.21476

>  <r_i_glide_erotb>  (35) 
0

>  <r_i_glide_esite>  (35) 
-0.0569791

>  <r_i_glide_emodel>  (35) 
-21.2618

>  <r_i_glide_energy>  (35) 
-15.846

>  <r_i_glide_einternal>  (35) 
0.00606264

>  <r_i_glide_intrahb_reward>  (35) 
-0

>  <i_i_glide_confnum>  (35) 
2

>  <i_i_glide_posenum>  (35) 
7

>  <r_i_glide_eff_state_penalty>  (35) 
0

>  <ligand_id>  (35) 
11

>  <original_smiles>  (35) 
O=C(O)c1cc2c(s1)CCCC2

>  <smiles>  (35) 
[H]c1c(C(=O)[O-])sc2c1C([H])([H])C([H])([H])C([H])([H])C2([H])[H]

$$$$
11:0:1
     RDKit          3D

 21 22  0  0  1  0  0  0  0  0999 V2000
    3.4069   -3.8911    2.2005 O   0  0  0  0  0  0  0  0  0  0  0  0
    2.6894   -4.1930    1.2213 C   0  0  0  0  0  0  0  0  0  0  0  0
    1.8220   -5.0977    1.2704 O   0  0  0  0  0  0  0  0  0  0  0  0
    2.8774   -3.4381   -0.0327 C   0  0  0  0  0  0  0  0  0  0  0  0
    3.7437   -2.4212   -0.3415 C   0  0  0  0  0  0  0  0  0  0  0  0
    3.6317   -1.9653   -1.6835 C   0  0  0  0  0  0  0  0  0  0  0  0
    2.6842   -2.6544   -2.4011 C   0  0  0  0  0  0  0  0  0  0  0  0
    1.8442   -3.8075   -1.3978 S   0  0  0  0  0  0  0  0  0  0  0  0
    2.3529   -2.4142   -3.8370 C   0  0  0  0  0  0  0  0  0  0  0  0
    2.8886   -1.0399   -4.3135 C   0  0  0  0  0  0  0  0  0  0  0  0
    4.2731   -0.7546   -3.8041 C   0  0  0  0  0  0  0  0  0  0  0  0
    4.4322   -0.8451   -2.2854 C   0  0  0  0  0  0  0  0  0  0  0  0
    4.4471   -1.9852    0.3498 H   0  0  0  0  0  0  0  0  0  0  0  0
    2.7661   -3.2257   -4.4328 H   0  0  0  0  0  0  0  0  0  0  0  0
    1.2745   -2.4675   -3.9797 H   0  0  0  0  0  0  0  0  0  0  0  0
    2.9779   -0.9490   -5.3948 H   0  0  0  0  0  0  0  0  0  0  0  0
    2.2459   -0.2276   -3.9747 H   0  0  0  0  0  0  0  0  0  0  0  0
    4.9353   -1.4955   -4.2551 H   0  0  0  0  0  0  0  0  0  0  0  0
    4.5766    0.2263   -4.1704 H   0  0  0  0  0  0  0  0  0  0  0  0
    4.1309    0.1218   -1.9050 H   0  0  0  0  0  0  0  0  0  0  0  0
    5.4820   -0.9234   -2.0168 H   0  0  0  0  0  0  0  0  0  0  0  0
  1  2  2  0
  2  3  1  0
  2  4  1  0
  4  8  1  0
  4  5  2  0
  5  6  1  0
  5 13  1  0
  6 12  1  0
  6  7  2  0
  7  8  1  0
  7  9  1  0
  9 10  1  0
  9 14  1  0
  9 15  1  0
 10 11  1  0
 10 16  1  0
 10 17  1  0
 11 12  1  0
 11 18  1  0
 11 19  1  0
 12 20  1  0
 12 21  1  0
M  CHG  1   3  -1
M  END
>  <i_m_ct_stereo_status>  (36) 
1

>  <s_m_source_file>  (36) 
/var/tmp/pbs.5076255.sched01/tmp6yc3ji7b/0haed4tc5.sdf

>  <i_m_source_file_index>  (36) 
16

>  <i_lp_mmshare_version>  (36) 
48012

>  <i_f3d_flags>  (36) 
0

>  <s_epik_input>  (36) 
Tz1DKFtPSF0pYyhbY0hdMSlzYyhjMTIpW0NIMl1bQ0gyXVtDSDJdW0NIMl0y

>  <s_epik_cmdline>  (36) 
J2VwaWtfcHl0aG9uJywgJy1waHQnLCAnMi4wJywgJy1waCcsICc3LjAnLCAnLXRuJywgJzgnLCAnLW1hJywgJzIwMCcsICctaW1hZScsICc8aW5maWxlLm1hZT4nLCAnLW9tYWUnLCAnPG91dGZpbGUubWFlPic=

>  <r_epik_Ionization_Penalty>  (36) 
0.000338318

>  <r_epik_Ionization_Penalty_Charging>  (36) 
0.000338318

>  <r_epik_Ionization_Penalty_Neutral>  (36) 
0

>  <r_epik_State_Penalty>  (36) 
0.00020503

>  <r_epik_Charging_Adjusted_Penalty>  (36) 
0.000543347

>  <i_epik_Tot_Q>  (36) 
-1

>  <i_epik_Tot_abs_Q>  (36) 
1

>  <s_lp_Force_Field>  (36) 
OPLS3e

>  <r_lp_Energy>  (36) 
10.2335

>  <b_lp_Chiralities_Consistent>  (36) 
1

>  <s_lp_Variant>  (36) 
11:0-1

>  <s_i_glide_gridfile>  (36) 
pfpi4k_grid

>  <i_i_glide_lignum>  (36) 
16

>  <i_i_glide_rotatable_bonds>  (36) 
1

>  <r_i_docking_score>  (36) 
-2.92376

>  <r_i_glide_ligand_efficiency>  (36) 
-0.243647

>  <r_i_glide_ligand_efficiency_sa>  (36) 
-0.557812

>  <r_i_glide_ligand_efficiency_ln>  (36) 
-0.838978

>  <r_i_glide_gscore>  (36) 
-2.92376

>  <r_i_glide_lipo>  (36) 
-0.45737

>  <r_i_glide_hbond>  (36) 
-0.0878813

>  <r_i_glide_metal>  (36) 
-0

>  <r_i_glide_rewards>  (36) 
-2.17341

>  <r_i_glide_evdw>  (36) 
-7.02993

>  <r_i_glide_ecoul>  (36) 
1.08489

>  <r_i_glide_erotb>  (36) 
0

>  <r_i_glide_esite>  (36) 
-0.0163328

>  <r_i_glide_emodel>  (36) 
-10.089

>  <r_i_glide_energy>  (36) 
-5.94504

>  <r_i_glide_einternal>  (36) 
4.80853e-05

>  <r_i_glide_intrahb_reward>  (36) 
-0

>  <i_i_glide_confnum>  (36) 
2

>  <i_i_glide_posenum>  (36) 
1

>  <r_i_glide_eff_state_penalty>  (36) 
0

>  <ligand_id>  (36) 
11

>  <original_smiles>  (36) 
O=C(O)c1cc2c(s1)CCCC2

>  <smiles>  (36) 
[H]c1c(C(=O)[O-])sc2c1C([H])([H])C([H])([H])C([H])([H])C2([H])[H]

$$$$
12:0:0
     RDKit          3D

 18 18  0  0  1  0  0  0  0  0999 V2000
    2.6693   -3.4928    0.9279 C   0  0  0  0  0  0  0  0  0  0  0  0
    3.0099   -2.2451    0.2083 N   0  0  0  0  0  0  0  0  0  0  0  0
    4.1130   -2.4081   -0.7538 C   0  0  2  0  0  0  0  0  0  0  0  0
    4.5185   -1.0554   -1.2837 C   0  0  0  0  0  0  0  0  0  0  0  0
    4.3729   -0.9227   -2.6026 C   0  0  0  0  0  0  0  0  0  0  0  0
    3.8771   -2.1755   -3.1395 C   0  0  0  0  0  0  0  0  0  0  0  0
    3.6657   -2.4228   -4.3182 O   0  0  0  0  0  0  0  0  0  0  0  0
    3.6769   -3.1860   -2.0174 C   0  0  0  0  0  0  0  0  0  0  0  0
    1.8628   -3.3104    1.6404 H   0  0  0  0  0  0  0  0  0  0  0  0
    3.5304   -3.8715    1.4841 H   0  0  0  0  0  0  0  0  0  0  0  0
    2.3467   -4.2740    0.2343 H   0  0  0  0  0  0  0  0  0  0  0  0
    2.1804   -1.8853   -0.2717 H   0  0  0  0  0  0  0  0  0  0  0  0
    4.9809   -2.8720   -0.2825 H   0  0  0  0  0  0  0  0  0  0  0  0
    4.8752   -0.2604   -0.6388 H   0  0  0  0  0  0  0  0  0  0  0  0
    4.5864   -0.0518   -3.1985 H   0  0  0  0  0  0  0  0  0  0  0  0
    4.2967   -4.0663   -2.1873 H   0  0  0  0  0  0  0  0  0  0  0  0
    2.6311   -3.4921   -1.9870 H   0  0  0  0  0  0  0  0  0  0  0  0
    3.2774   -1.5551    0.8950 H   0  0  0  0  0  0  0  0  0  0  0  0
  1  2  1  0
  1  9  1  0
  1 10  1  0
  1 11  1  0
  2  3  1  0
  2 12  1  0
  2 18  1  0
  3  8  1  0
  3  4  1  0
  3 13  1  1
  4  5  2  0
  4 14  1  0
  5  6  1  0
  5 15  1  0
  6  7  2  0
  6  8  1  0
  8 16  1  0
  8 17  1  0
M  CHG  1   2   1
M  END
>  <i_m_ct_stereo_status>  (37) 
1

>  <s_m_source_file>  (37) 
/var/tmp/pbs.5076255.sched01/tmp6yc3ji7b/0haed4tc5.sdf

>  <i_m_source_file_index>  (37) 
17

>  <i_lp_mmshare_version>  (37) 
48012

>  <i_f3d_flags>  (37) 
0

>  <s_epik_input>  (37) 
W0NIM11bTkhdW0NAQEhdMVtDSF09W0NIXUMoPU8pW0NIMl0x

>  <s_epik_cmdline>  (37) 
J2VwaWtfcHl0aG9uJywgJy1waHQnLCAnMi4wJywgJy1waCcsICc3LjAnLCAnLXRuJywgJzgnLCAnLW1hJywgJzIwMCcsICctaW1hZScsICc8aW5maWxlLm1hZT4nLCAnLW9tYWUnLCAnPG91dGZpbGUubWFlPic=

>  <r_epik_Ionization_Penalty>  (37) 
0.0813259

>  <r_epik_Ionization_Penalty_Charging>  (37) 
0.0813259

>  <r_epik_Ionization_Penalty_Neutral>  (37) 
0

>  <r_epik_State_Penalty>  (37) 
0.072087

>  <r_epik_Charging_Adjusted_Penalty>  (37) 
0.153413

>  <i_epik_Tot_Q>  (37) 
1

>  <i_epik_Tot_abs_Q>  (37) 
1

>  <s_lp_Force_Field>  (37) 
OPLS3e

>  <r_lp_Energy>  (37) 
3.82454

>  <b_lp_Chiralities_Consistent>  (37) 
1

>  <s_lp_Variant>  (37) 
12:0-1

>  <s_i_glide_gridfile>  (37) 
pfpi4k_grid

>  <i_i_glide_lignum>  (37) 
17

>  <i_i_glide_rotatable_bonds>  (37) 
1

>  <r_i_docking_score>  (37) 
-4.80746

>  <r_i_glide_ligand_efficiency>  (37) 
-0.600932

>  <r_i_glide_ligand_efficiency_sa>  (37) 
-1.20186

>  <r_i_glide_ligand_efficiency_ln>  (37) 
-1.56115

>  <r_i_glide_gscore>  (37) 
-4.80746

>  <r_i_glide_lipo>  (37) 
0

>  <r_i_glide_hbond>  (37) 
-0.52

>  <r_i_glide_metal>  (37) 
-0

>  <r_i_glide_rewards>  (37) 
-2.42094

>  <r_i_glide_evdw>  (37) 
-11.9419

>  <r_i_glide_ecoul>  (37) 
-8.02703

>  <r_i_glide_erotb>  (37) 
0

>  <r_i_glide_esite>  (37) 
-0.0653635

>  <r_i_glide_emodel>  (37) 
-28.632

>  <r_i_glide_energy>  (37) 
-19.9689

>  <r_i_glide_einternal>  (37) 
0.168335

>  <r_i_glide_intrahb_reward>  (37) 
-0

>  <i_i_glide_confnum>  (37) 
2

>  <i_i_glide_posenum>  (37) 
12

>  <r_i_glide_eff_state_penalty>  (37) 
0

>  <ligand_id>  (37) 
12

>  <original_smiles>  (37) 
CNC1C=CC(=O)C1

>  <smiles>  (37) 
[H]C1=C([H])C([H])([N+]([H])([H])C([H])([H])[H])C([H])([H])C1=O

$$$$
12:0:1
     RDKit          3D

 18 18  0  0  1  0  0  0  0  0999 V2000
    3.5375   -2.1617    0.8880 C   0  0  0  0  0  0  0  0  0  0  0  0
    3.4103   -1.3096   -0.3122 N   0  0  0  0  0  0  0  0  0  0  0  0
    4.3894   -1.6216   -1.3666 C   0  0  2  0  0  0  0  0  0  0  0  0
    4.2111   -0.6532   -2.5159 C   0  0  0  0  0  0  0  0  0  0  0  0
    3.9096   -1.2279   -3.6763 C   0  0  0  0  0  0  0  0  0  0  0  0
    3.8513   -2.6579   -3.4652 C   0  0  0  0  0  0  0  0  0  0  0  0
    3.6224   -3.5059   -4.3107 O   0  0  0  0  0  0  0  0  0  0  0  0
    4.1455   -3.0020   -2.0146 C   0  0  0  0  0  0  0  0  0  0  0  0
    2.7965   -1.8770    1.6330 H   0  0  0  0  0  0  0  0  0  0  0  0
    4.5262   -2.0618    1.3344 H   0  0  0  0  0  0  0  0  0  0  0  0
    3.3813   -3.2147    0.6536 H   0  0  0  0  0  0  0  0  0  0  0  0
    2.4591   -1.3871   -0.6702 H   0  0  0  0  0  0  0  0  0  0  0  0
    5.4091   -1.5353   -0.9886 H   0  0  0  0  0  0  0  0  0  0  0  0
    4.3291    0.4195   -2.4075 H   0  0  0  0  0  0  0  0  0  0  0  0
    3.7429   -0.7460   -4.6274 H   0  0  0  0  0  0  0  0  0  0  0  0
    5.0234   -3.6457   -1.9434 H   0  0  0  0  0  0  0  0  0  0  0  0
    3.2867   -3.5238   -1.5936 H   0  0  0  0  0  0  0  0  0  0  0  0
    3.5354   -0.3526   -0.0213 H   0  0  0  0  0  0  0  0  0  0  0  0
  1  2  1  0
  1  9  1  0
  1 10  1  0
  1 11  1  0
  2  3  1  0
  2 12  1  0
  2 18  1  0
  3  8  1  0
  3  4  1  0
  3 13  1  1
  4  5  2  0
  4 14  1  0
  5  6  1  0
  5 15  1  0
  6  7  2  0
  6  8  1  0
  8 16  1  0
  8 17  1  0
M  CHG  1   2   1
M  END
>  <i_m_ct_stereo_status>  (38) 
1

>  <s_m_source_file>  (38) 
/var/tmp/pbs.5076255.sched01/tmp6yc3ji7b/0haed4tc5.sdf

>  <i_m_source_file_index>  (38) 
17

>  <i_lp_mmshare_version>  (38) 
48012

>  <i_f3d_flags>  (38) 
0

>  <s_epik_input>  (38) 
W0NIM11bTkhdW0NAQEhdMVtDSF09W0NIXUMoPU8pW0NIMl0x

>  <s_epik_cmdline>  (38) 
J2VwaWtfcHl0aG9uJywgJy1waHQnLCAnMi4wJywgJy1waCcsICc3LjAnLCAnLXRuJywgJzgnLCAnLW1hJywgJzIwMCcsICctaW1hZScsICc8aW5maWxlLm1hZT4nLCAnLW9tYWUnLCAnPG91dGZpbGUubWFlPic=

>  <r_epik_Ionization_Penalty>  (38) 
0.0813259

>  <r_epik_Ionization_Penalty_Charging>  (38) 
0.0813259

>  <r_epik_Ionization_Penalty_Neutral>  (38) 
0

>  <r_epik_State_Penalty>  (38) 
0.072087

>  <r_epik_Charging_Adjusted_Penalty>  (38) 
0.153413

>  <i_epik_Tot_Q>  (38) 
1

>  <i_epik_Tot_abs_Q>  (38) 
1

>  <s_lp_Force_Field>  (38) 
OPLS3e

>  <r_lp_Energy>  (38) 
3.82454

>  <b_lp_Chiralities_Consistent>  (38) 
1

>  <s_lp_Variant>  (38) 
12:0-1

>  <s_i_glide_gridfile>  (38) 
pfpi4k_grid

>  <i_i_glide_lignum>  (38) 
17

>  <i_i_glide_rotatable_bonds>  (38) 
1

>  <r_i_docking_score>  (38) 
-4.72616

>  <r_i_glide_ligand_efficiency>  (38) 
-0.59077

>  <r_i_glide_ligand_efficiency_sa>  (38) 
-1.18154

>  <r_i_glide_ligand_efficiency_ln>  (38) 
-1.53475

>  <r_i_glide_gscore>  (38) 
-4.72616

>  <r_i_glide_lipo>  (38) 
-0.285441

>  <r_i_glide_hbond>  (38) 
-0.310546

>  <r_i_glide_metal>  (38) 
-0

>  <r_i_glide_rewards>  (38) 
-2.50637

>  <r_i_glide_evdw>  (38) 
-12.7925

>  <r_i_glide_ecoul>  (38) 
-5.89454

>  <r_i_glide_erotb>  (38) 
0

>  <r_i_glide_esite>  (38) 
-0.1

>  <r_i_glide_emodel>  (38) 
-27.1014

>  <r_i_glide_energy>  (38) 
-18.687

>  <r_i_glide_einternal>  (38) 
0.256565

>  <r_i_glide_intrahb_reward>  (38) 
-0

>  <i_i_glide_confnum>  (38) 
2

>  <i_i_glide_posenum>  (38) 
25

>  <r_i_glide_eff_state_penalty>  (38) 
0

>  <ligand_id>  (38) 
12

>  <original_smiles>  (38) 
CNC1C=CC(=O)C1

>  <smiles>  (38) 
[H]C1=C([H])C([H])([N+]([H])([H])C([H])([H])[H])C([H])([H])C1=O

$$$$
12:0:2
     RDKit          3D

 18 18  0  0  1  0  0  0  0  0999 V2000
    2.3643   -2.6934   -3.6284 C   0  0  0  0  0  0  0  0  0  0  0  0
    3.3937   -3.4552   -2.8970 N   0  0  0  0  0  0  0  0  0  0  0  0
    3.5477   -3.0567   -1.4832 C   0  0  2  0  0  0  0  0  0  0  0  0
    4.7478   -3.7575   -0.8813 C   0  0  0  0  0  0  0  0  0  0  0  0
    4.4493   -4.5421    0.1580 C   0  0  0  0  0  0  0  0  0  0  0  0
    3.0158   -4.4768    0.3916 C   0  0  0  0  0  0  0  0  0  0  0  0
    2.3832   -5.0733    1.2611 O   0  0  0  0  0  0  0  0  0  0  0  0
    2.3638   -3.5424   -0.6154 C   0  0  0  0  0  0  0  0  0  0  0  0
    2.3119   -3.0435   -4.6602 H   0  0  0  0  0  0  0  0  0  0  0  0
    2.5929   -1.6285   -3.6251 H   0  0  0  0  0  0  0  0  0  0  0  0
    1.3869   -2.8389   -3.1726 H   0  0  0  0  0  0  0  0  0  0  0  0
    3.1644   -4.4510   -2.9221 H   0  0  0  0  0  0  0  0  0  0  0  0
    3.6779   -1.9799   -1.3965 H   0  0  0  0  0  0  0  0  0  0  0  0
    5.7473   -3.6201   -1.2659 H   0  0  0  0  0  0  0  0  0  0  0  0
    5.1348   -5.1284    0.7433 H   0  0  0  0  0  0  0  0  0  0  0  0
    1.8786   -2.7147   -0.0984 H   0  0  0  0  0  0  0  0  0  0  0  0
    1.6172   -4.0957   -1.1900 H   0  0  0  0  0  0  0  0  0  0  0  0
    4.2813   -3.3194   -3.3629 H   0  0  0  0  0  0  0  0  0  0  0  0
  1  2  1  0
  1  9  1  0
  1 10  1  0
  1 11  1  0
  2  3  1  0
  2 12  1  0
  2 18  1  0
  3  8  1  0
  3  4  1  0
  3 13  1  6
  4  5  2  0
  4 14  1  0
  5  6  1  0
  5 15  1  0
  6  7  2  0
  6  8  1  0
  8 16  1  0
  8 17  1  0
M  CHG  1   2   1
M  END
>  <i_m_ct_stereo_status>  (39) 
1

>  <s_m_source_file>  (39) 
/var/tmp/pbs.5076255.sched01/tmp6yc3ji7b/0haed4tc5.sdf

>  <i_m_source_file_index>  (39) 
17

>  <i_lp_mmshare_version>  (39) 
48012

>  <i_f3d_flags>  (39) 
0

>  <s_epik_input>  (39) 
W0NIM11bTkhdW0NAQEhdMVtDSF09W0NIXUMoPU8pW0NIMl0x

>  <s_epik_cmdline>  (39) 
J2VwaWtfcHl0aG9uJywgJy1waHQnLCAnMi4wJywgJy1waCcsICc3LjAnLCAnLXRuJywgJzgnLCAnLW1hJywgJzIwMCcsICctaW1hZScsICc8aW5maWxlLm1hZT4nLCAnLW9tYWUnLCAnPG91dGZpbGUubWFlPic=

>  <r_epik_Ionization_Penalty>  (39) 
0.0813259

>  <r_epik_Ionization_Penalty_Charging>  (39) 
0.0813259

>  <r_epik_Ionization_Penalty_Neutral>  (39) 
0

>  <r_epik_State_Penalty>  (39) 
0.072087

>  <r_epik_Charging_Adjusted_Penalty>  (39) 
0.153413

>  <i_epik_Tot_Q>  (39) 
1

>  <i_epik_Tot_abs_Q>  (39) 
1

>  <s_lp_Force_Field>  (39) 
OPLS3e

>  <r_lp_Energy>  (39) 
3.82454

>  <b_lp_Chiralities_Consistent>  (39) 
1

>  <s_lp_Variant>  (39) 
12:0-1

>  <s_i_glide_gridfile>  (39) 
pfpi4k_grid

>  <i_i_glide_lignum>  (39) 
17

>  <i_i_glide_rotatable_bonds>  (39) 
1

>  <r_i_docking_score>  (39) 
-4.13007

>  <r_i_glide_ligand_efficiency>  (39) 
-0.516259

>  <r_i_glide_ligand_efficiency_sa>  (39) 
-1.03252

>  <r_i_glide_ligand_efficiency_ln>  (39) 
-1.34117

>  <r_i_glide_gscore>  (39) 
-4.13007

>  <r_i_glide_lipo>  (39) 
-0.30595

>  <r_i_glide_hbond>  (39) 
0

>  <r_i_glide_metal>  (39) 
-0

>  <r_i_glide_rewards>  (39) 
-2.25

>  <r_i_glide_evdw>  (39) 
-9.77565

>  <r_i_glide_ecoul>  (39) 
-7.02537

>  <r_i_glide_erotb>  (39) 
0

>  <r_i_glide_esite>  (39) 
-0.0315296

>  <r_i_glide_emodel>  (39) 
-24.227

>  <r_i_glide_energy>  (39) 
-16.801

>  <r_i_glide_einternal>  (39) 
0.165475

>  <r_i_glide_intrahb_reward>  (39) 
-0

>  <i_i_glide_confnum>  (39) 
1

>  <i_i_glide_posenum>  (39) 
3

>  <r_i_glide_eff_state_penalty>  (39) 
0

>  <ligand_id>  (39) 
12

>  <original_smiles>  (39) 
CNC1C=CC(=O)C1

>  <smiles>  (39) 
[H]C1=C([H])C([H])([N+]([H])([H])C([H])([H])[H])C([H])([H])C1=O

$$$$
12:1:0
     RDKit          3D

 17 17  0  0  1  0  0  0  0  0999 V2000
    3.1866   -0.2164   -4.5641 C   0  0  0  0  0  0  0  0  0  0  0  0
    4.2069   -1.2258   -4.3217 N   0  0  0  0  0  0  0  0  0  0  0  0
    3.6883   -2.4168   -3.6682 C   0  0  2  0  0  0  0  0  0  0  0  0
    3.0347   -2.0658   -2.3548 C   0  0  0  0  0  0  0  0  0  0  0  0
    3.5760   -2.6373   -1.2851 C   0  0  0  0  0  0  0  0  0  0  0  0
    4.6888   -3.4551   -1.7294 C   0  0  0  0  0  0  0  0  0  0  0  0
    5.4287   -4.1192   -1.0103 O   0  0  0  0  0  0  0  0  0  0  0  0
    4.8138   -3.3907   -3.2518 C   0  0  0  0  0  0  0  0  0  0  0  0
    2.3009   -0.6380   -5.0350 H   0  0  0  0  0  0  0  0  0  0  0  0
    3.5836    0.5660   -5.2123 H   0  0  0  0  0  0  0  0  0  0  0  0
    2.8898    0.2716   -3.6351 H   0  0  0  0  0  0  0  0  0  0  0  0
    4.9418   -0.8207   -3.7582 H   0  0  0  0  0  0  0  0  0  0  0  0
    2.9529   -2.9130   -4.3043 H   0  0  0  0  0  0  0  0  0  0  0  0
    2.2087   -1.3857   -2.3171 H   0  0  0  0  0  0  0  0  0  0  0  0
    3.2759   -2.5125   -0.2554 H   0  0  0  0  0  0  0  0  0  0  0  0
    4.6616   -4.3790   -3.6772 H   0  0  0  0  0  0  0  0  0  0  0  0
    5.8126   -3.0373   -3.5232 H   0  0  0  0  0  0  0  0  0  0  0  0
  1  2  1  0
  1  9  1  0
  1 10  1  0
  1 11  1  0
  2  3  1  0
  2 12  1  0
  3  8  1  0
  3  4  1  0
  3 13  1  6
  4  5  2  0
  4 14  1  0
  5  6  1  0
  5 15  1  0
  6  7  2  0
  6  8  1  0
  8 16  1  0
  8 17  1  0
M  END
>  <i_m_ct_stereo_status>  (40) 
1

>  <s_m_source_file>  (40) 
/var/tmp/pbs.5076255.sched01/tmp6yc3ji7b/0haed4tc5.sdf

>  <i_m_source_file_index>  (40) 
18

>  <i_lp_mmshare_version>  (40) 
48012

>  <i_f3d_flags>  (40) 
0

>  <s_epik_input>  (40) 
W0NIM11bTkhdW0NAQEhdMVtDSF09W0NIXUMoPU8pW0NIMl0x

>  <s_epik_cmdline>  (40) 
J2VwaWtfcHl0aG9uJywgJy1waHQnLCAnMi4wJywgJy1waCcsICc3LjAnLCAnLXRuJywgJzgnLCAnLW1hJywgJzIwMCcsICctaW1hZScsICc8aW5maWxlLm1hZT4nLCAnLW9tYWUnLCAnPG91dGZpbGUubWFlPic=

>  <r_epik_Ionization_Penalty>  (40) 
1.21679

>  <r_epik_Ionization_Penalty_Charging>  (40) 
0

>  <r_epik_Ionization_Penalty_Neutral>  (40) 
1.21679

>  <r_epik_State_Penalty>  (40) 
1.28372

>  <r_epik_Charging_Adjusted_Penalty>  (40) 
1.28372

>  <i_epik_Tot_Q>  (40) 
0

>  <i_epik_Tot_abs_Q>  (40) 
0

>  <s_lp_Force_Field>  (40) 
OPLS3e

>  <r_lp_Energy>  (40) 
-4.06448

>  <b_lp_Chiralities_Consistent>  (40) 
1

>  <s_lp_Variant>  (40) 
12:0-2

>  <s_i_glide_gridfile>  (40) 
pfpi4k_grid

>  <i_i_glide_lignum>  (40) 
18

>  <i_i_glide_rotatable_bonds>  (40) 
1

>  <r_i_docking_score>  (40) 
-4.4827

>  <r_i_glide_ligand_efficiency>  (40) 
-0.560338

>  <r_i_glide_ligand_efficiency_sa>  (40) 
-1.12068

>  <r_i_glide_ligand_efficiency_ln>  (40) 
-1.45569

>  <r_i_glide_gscore>  (40) 
-4.4827

>  <r_i_glide_lipo>  (40) 
-0.704415

>  <r_i_glide_hbond>  (40) 
-0.209107

>  <r_i_glide_metal>  (40) 
-0

>  <r_i_glide_rewards>  (40) 
-2.26217

>  <r_i_glide_evdw>  (40) 
-14.2287

>  <r_i_glide_ecoul>  (40) 
-3.9705

>  <r_i_glide_erotb>  (40) 
0

>  <r_i_glide_esite>  (40) 
0

>  <r_i_glide_emodel>  (40) 
-23.7148

>  <r_i_glide_energy>  (40) 
-18.1992

>  <r_i_glide_einternal>  (40) 
0.933685

>  <r_i_glide_intrahb_reward>  (40) 
-0

>  <i_i_glide_confnum>  (40) 
4

>  <i_i_glide_posenum>  (40) 
16

>  <r_i_glide_eff_state_penalty>  (40) 
0

>  <ligand_id>  (40) 
12

>  <original_smiles>  (40) 
CNC1C=CC(=O)C1

>  <smiles>  (40) 
[H]C1=C([H])C([H])(N([H])C([H])([H])[H])C([H])([H])C1=O

$$$$
12:1:1
     RDKit          3D

 17 17  0  0  1  0  0  0  0  0999 V2000
    3.3647   -0.2143   -4.6629 C   0  0  0  0  0  0  0  0  0  0  0  0
    3.8146   -1.5559   -4.3193 N   0  0  0  0  0  0  0  0  0  0  0  0
    4.3239   -1.6051   -2.9546 C   0  0  2  0  0  0  0  0  0  0  0  0
    5.0989   -2.8862   -2.7559 C   0  0  0  0  0  0  0  0  0  0  0  0
    4.6161   -3.6804   -1.7988 C   0  0  0  0  0  0  0  0  0  0  0  0
    3.4317   -3.0570   -1.2321 C   0  0  0  0  0  0  0  0  0  0  0  0
    2.7279   -3.5085   -0.3281 O   0  0  0  0  0  0  0  0  0  0  0  0
    3.1892   -1.7119   -1.9099 C   0  0  0  0  0  0  0  0  0  0  0  0
    2.9511   -0.2123   -5.6727 H   0  0  0  0  0  0  0  0  0  0  0  0
    4.1882    0.5006   -4.6431 H   0  0  0  0  0  0  0  0  0  0  0  0
    2.5898    0.1403   -3.9826 H   0  0  0  0  0  0  0  0  0  0  0  0
    3.0286   -2.1898   -4.4083 H   0  0  0  0  0  0  0  0  0  0  0  0
    4.9812   -0.7617   -2.7435 H   0  0  0  0  0  0  0  0  0  0  0  0
    5.9751   -3.1191   -3.3484 H   0  0  0  0  0  0  0  0  0  0  0  0
    4.9933   -4.6407   -1.4872 H   0  0  0  0  0  0  0  0  0  0  0  0
    3.2352   -0.9105   -1.1749 H   0  0  0  0  0  0  0  0  0  0  0  0
    2.2044   -1.7139   -2.3687 H   0  0  0  0  0  0  0  0  0  0  0  0
  1  2  1  0
  1  9  1  0
  1 10  1  0
  1 11  1  0
  2  3  1  0
  2 12  1  0
  3  8  1  0
  3  4  1  0
  3 13  1  1
  4  5  2  0
  4 14  1  0
  5  6  1  0
  5 15  1  0
  6  7  2  0
  6  8  1  0
  8 16  1  0
  8 17  1  0
M  END
>  <i_m_ct_stereo_status>  (41) 
1

>  <s_m_source_file>  (41) 
/var/tmp/pbs.5076255.sched01/tmp6yc3ji7b/0haed4tc5.sdf

>  <i_m_source_file_index>  (41) 
18

>  <i_lp_mmshare_version>  (41) 
48012

>  <i_f3d_flags>  (41) 
0

>  <s_epik_input>  (41) 
W0NIM11bTkhdW0NAQEhdMVtDSF09W0NIXUMoPU8pW0NIMl0x

>  <s_epik_cmdline>  (41) 
J2VwaWtfcHl0aG9uJywgJy1waHQnLCAnMi4wJywgJy1waCcsICc3LjAnLCAnLXRuJywgJzgnLCAnLW1hJywgJzIwMCcsICctaW1hZScsICc8aW5maWxlLm1hZT4nLCAnLW9tYWUnLCAnPG91dGZpbGUubWFlPic=

>  <r_epik_Ionization_Penalty>  (41) 
1.21679

>  <r_epik_Ionization_Penalty_Charging>  (41) 
0

>  <r_epik_Ionization_Penalty_Neutral>  (41) 
1.21679

>  <r_epik_State_Penalty>  (41) 
1.28372

>  <r_epik_Charging_Adjusted_Penalty>  (41) 
1.28372

>  <i_epik_Tot_Q>  (41) 
0

>  <i_epik_Tot_abs_Q>  (41) 
0

>  <s_lp_Force_Field>  (41) 
OPLS3e

>  <r_lp_Energy>  (41) 
-4.06448

>  <b_lp_Chiralities_Consistent>  (41) 
1

>  <s_lp_Variant>  (41) 
12:0-2

>  <s_i_glide_gridfile>  (41) 
pfpi4k_grid

>  <i_i_glide_lignum>  (41) 
18

>  <i_i_glide_rotatable_bonds>  (41) 
1

>  <r_i_docking_score>  (41) 
-4.3269

>  <r_i_glide_ligand_efficiency>  (41) 
-0.540862

>  <r_i_glide_ligand_efficiency_sa>  (41) 
-1.08172

>  <r_i_glide_ligand_efficiency_ln>  (41) 
-1.40509

>  <r_i_glide_gscore>  (41) 
-4.3269

>  <r_i_glide_lipo>  (41) 
-0.486123

>  <r_i_glide_hbond>  (41) 
-0.30575

>  <r_i_glide_metal>  (41) 
-0

>  <r_i_glide_rewards>  (41) 
-2.25

>  <r_i_glide_evdw>  (41) 
-15.0608

>  <r_i_glide_ecoul>  (41) 
-3.52964

>  <r_i_glide_erotb>  (41) 
0

>  <r_i_glide_esite>  (41) 
-0.00253983

>  <r_i_glide_emodel>  (41) 
-24.2749

>  <r_i_glide_energy>  (41) 
-18.5904

>  <r_i_glide_einternal>  (41) 
0.17435

>  <r_i_glide_intrahb_reward>  (41) 
-0

>  <i_i_glide_confnum>  (41) 
1

>  <i_i_glide_posenum>  (41) 
8

>  <r_i_glide_eff_state_penalty>  (41) 
0

>  <ligand_id>  (41) 
12

>  <original_smiles>  (41) 
CNC1C=CC(=O)C1

>  <smiles>  (41) 
[H]C1=C([H])C([H])(N([H])C([H])([H])[H])C([H])([H])C1=O

$$$$
12:1:2
     RDKit          3D

 17 17  0  0  1  0  0  0  0  0999 V2000
    3.3487    0.0354   -4.6422 C   0  0  0  0  0  0  0  0  0  0  0  0
    3.4166   -1.3853   -4.3231 N   0  0  0  0  0  0  0  0  0  0  0  0
    3.2503   -1.6436   -2.8966 C   0  0  2  0  0  0  0  0  0  0  0  0
    4.3644   -1.0108   -2.0848 C   0  0  0  0  0  0  0  0  0  0  0  0
    5.1034   -1.8748   -1.3884 C   0  0  0  0  0  0  0  0  0  0  0  0
    4.5894   -3.2103   -1.6345 C   0  0  0  0  0  0  0  0  0  0  0  0
    5.0161   -4.2534   -1.1465 O   0  0  0  0  0  0  0  0  0  0  0  0
    3.3902   -3.1505   -2.5799 C   0  0  0  0  0  0  0  0  0  0  0  0
    3.4203    0.1752   -5.7219 H   0  0  0  0  0  0  0  0  0  0  0  0
    4.1606    0.6003   -4.1825 H   0  0  0  0  0  0  0  0  0  0  0  0
    2.3997    0.4586   -4.3107 H   0  0  0  0  0  0  0  0  0  0  0  0
    2.6651   -1.8507   -4.8275 H   0  0  0  0  0  0  0  0  0  0  0  0
    2.2827   -1.2698   -2.5565 H   0  0  0  0  0  0  0  0  0  0  0  0
    4.5223    0.0598   -2.0674 H   0  0  0  0  0  0  0  0  0  0  0  0
    5.9352   -1.6517   -0.7375 H   0  0  0  0  0  0  0  0  0  0  0  0
    2.5020   -3.5425   -2.0833 H   0  0  0  0  0  0  0  0  0  0  0  0
    3.5843   -3.7592   -3.4650 H   0  0  0  0  0  0  0  0  0  0  0  0
  1  2  1  0
  1  9  1  0
  1 10  1  0
  1 11  1  0
  2  3  1  0
  2 12  1  0
  3  8  1  0
  3  4  1  0
  3 13  1  1
  4  5  2  0
  4 14  1  0
  5  6  1  0
  5 15  1  0
  6  7  2  0
  6  8  1  0
  8 16  1  0
  8 17  1  0
M  END
>  <i_m_ct_stereo_status>  (42) 
1

>  <s_m_source_file>  (42) 
/var/tmp/pbs.5076255.sched01/tmp6yc3ji7b/0haed4tc5.sdf

>  <i_m_source_file_index>  (42) 
18

>  <i_lp_mmshare_version>  (42) 
48012

>  <i_f3d_flags>  (42) 
0

>  <s_epik_input>  (42) 
W0NIM11bTkhdW0NAQEhdMVtDSF09W0NIXUMoPU8pW0NIMl0x

>  <s_epik_cmdline>  (42) 
J2VwaWtfcHl0aG9uJywgJy1waHQnLCAnMi4wJywgJy1waCcsICc3LjAnLCAnLXRuJywgJzgnLCAnLW1hJywgJzIwMCcsICctaW1hZScsICc8aW5maWxlLm1hZT4nLCAnLW9tYWUnLCAnPG91dGZpbGUubWFlPic=

>  <r_epik_Ionization_Penalty>  (42) 
1.21679

>  <r_epik_Ionization_Penalty_Charging>  (42) 
0

>  <r_epik_Ionization_Penalty_Neutral>  (42) 
1.21679

>  <r_epik_State_Penalty>  (42) 
1.28372

>  <r_epik_Charging_Adjusted_Penalty>  (42) 
1.28372

>  <i_epik_Tot_Q>  (42) 
0

>  <i_epik_Tot_abs_Q>  (42) 
0

>  <s_lp_Force_Field>  (42) 
OPLS3e

>  <r_lp_Energy>  (42) 
-4.06448

>  <b_lp_Chiralities_Consistent>  (42) 
1

>  <s_lp_Variant>  (42) 
12:0-2

>  <s_i_glide_gridfile>  (42) 
pfpi4k_grid

>  <i_i_glide_lignum>  (42) 
18

>  <i_i_glide_rotatable_bonds>  (42) 
1

>  <r_i_docking_score>  (42) 
-4.19323

>  <r_i_glide_ligand_efficiency>  (42) 
-0.524154

>  <r_i_glide_ligand_efficiency_sa>  (42) 
-1.04831

>  <r_i_glide_ligand_efficiency_ln>  (42) 
-1.36169

>  <r_i_glide_gscore>  (42) 
-4.19323

>  <r_i_glide_lipo>  (42) 
-0.181475

>  <r_i_glide_hbond>  (42) 
-0.461259

>  <r_i_glide_metal>  (42) 
-0

>  <r_i_glide_rewards>  (42) 
-2.25

>  <r_i_glide_evdw>  (42) 
-15.3253

>  <r_i_glide_ecoul>  (42) 
-3.55414

>  <r_i_glide_erotb>  (42) 
0

>  <r_i_glide_esite>  (42) 
-0.00111405

>  <r_i_glide_emodel>  (42) 
-23.6593

>  <r_i_glide_energy>  (42) 
-18.8795

>  <r_i_glide_einternal>  (42) 
1.6477

>  <r_i_glide_intrahb_reward>  (42) 
-0

>  <i_i_glide_confnum>  (42) 
1

>  <i_i_glide_posenum>  (42) 
12

>  <r_i_glide_eff_state_penalty>  (42) 
0

>  <ligand_id>  (42) 
12

>  <original_smiles>  (42) 
CNC1C=CC(=O)C1

>  <smiles>  (42) 
[H]C1=C([H])C([H])(N([H])C([H])([H])[H])C([H])([H])C1=O

$$$$
13:0:0
     RDKit          3D

 48 53  0  0  1  0  0  0  0  0999 V2000
    4.4740   -1.4267   -1.4177 C   0  0  0  0  0  0  0  0  0  0  0  0
    4.9644   -2.4424   -0.6838 C   0  0  0  0  0  0  0  0  0  0  0  0
    6.2345   -2.3948    0.0429 C   0  0  0  0  0  0  0  0  0  0  0  0
    7.0309   -1.4589    0.0639 O   0  0  0  0  0  0  0  0  0  0  0  0
    6.3935   -3.5607    0.6907 O   0  0  0  0  0  0  0  0  0  0  0  0
    5.3125   -4.4636    0.5129 C   0  0  2  0  0  0  0  0  0  0  0  0
    5.0661   -4.9120   -0.8268 O   0  0  0  0  0  0  0  0  0  0  0  0
    4.3612   -3.7449   -0.3714 C   0  0  2  0  0  0  0  0  0  0  0  0
    2.8798   -3.8999   -0.1513 C   0  0  0  0  0  0  0  0  0  0  0  0
    2.5633   -5.2726    0.4784 C   0  0  0  0  0  0  0  0  0  0  0  0
    3.3163   -5.5343    1.8131 C   0  0  1  0  0  0  0  0  0  0  0  0
    2.8054   -4.6042    2.9482 C   0  0  0  0  0  0  0  0  0  0  0  0
    2.8400   -5.4543    4.2393 C   0  0  1  0  0  0  0  0  0  0  0  0
    3.4087   -4.6683    5.4369 C   0  0  0  0  0  0  0  0  0  0  0  0
    1.4096   -5.9318    4.5940 C   0  0  0  0  0  0  0  0  0  0  0  0
    0.7004   -6.5963    3.4046 C   0  0  0  0  0  0  0  0  0  0  0  0
    1.6398   -7.4975    2.5837 C   0  0  1  0  0  0  0  0  0  0  0  0
    1.0018   -7.7610    1.3508 O   0  0  0  0  0  0  0  0  0  0  0  0
    3.1169   -6.9804    2.4110 C   0  0  1  0  0  0  0  0  0  0  0  0
    3.8892   -8.0975    1.6494 C   0  0  0  0  0  0  0  0  0  0  0  0
    3.6751   -6.7041    3.8328 C   0  0  1  0  0  0  0  0  0  0  0  0
    5.2188   -6.4798    3.8215 C   0  0  0  0  0  0  0  0  0  0  0  0
    5.6827   -5.6552    2.6408 C   0  0  0  0  0  0  0  0  0  0  0  0
    4.8352   -5.2499    1.6792 C   0  0  0  0  0  0  0  0  0  0  0  0
    3.5128   -1.5147   -1.8951 H   0  0  0  0  0  0  0  0  0  0  0  0
    4.9967   -0.4924   -1.5397 H   0  0  0  0  0  0  0  0  0  0  0  0
    2.5417   -3.0919    0.4993 H   0  0  0  0  0  0  0  0  0  0  0  0
    2.3708   -3.7813   -1.1070 H   0  0  0  0  0  0  0  0  0  0  0  0
    1.4921   -5.3494    0.6307 H   0  0  0  0  0  0  0  0  0  0  0  0
    2.8189   -6.0554   -0.2338 H   0  0  0  0  0  0  0  0  0  0  0  0
    3.4251   -3.7100    3.0326 H   0  0  0  0  0  0  0  0  0  0  0  0
    1.8035   -4.2279    2.7461 H   0  0  0  0  0  0  0  0  0  0  0  0
    3.5527   -5.3154    6.3031 H   0  0  0  0  0  0  0  0  0  0  0  0
    2.7367   -3.8644    5.7352 H   0  0  0  0  0  0  0  0  0  0  0  0
    4.3676   -4.2033    5.2038 H   0  0  0  0  0  0  0  0  0  0  0  0
    1.4558   -6.6356    5.4269 H   0  0  0  0  0  0  0  0  0  0  0  0
    0.8023   -5.0964    4.9428 H   0  0  0  0  0  0  0  0  0  0  0  0
   -0.1523   -7.1785    3.7619 H   0  0  0  0  0  0  0  0  0  0  0  0
    0.2735   -5.8281    2.7619 H   0  0  0  0  0  0  0  0  0  0  0  0
    1.7002   -8.4492    3.1129 H   0  0  0  0  0  0  0  0  0  0  0  0
    0.6838   -8.6574    1.3480 H   0  0  0  0  0  0  0  0  0  0  0  0
    3.7998   -9.0526    2.1645 H   0  0  0  0  0  0  0  0  0  0  0  0
    4.9543   -7.9086    1.5224 H   0  0  0  0  0  0  0  0  0  0  0  0
    3.4930   -8.2365    0.6460 H   0  0  0  0  0  0  0  0  0  0  0  0
    3.4681   -7.5358    4.5040 H   0  0  0  0  0  0  0  0  0  0  0  0
    5.5784   -6.0304    4.7470 H   0  0  0  0  0  0  0  0  0  0  0  0
    5.7187   -7.4439    3.7364 H   0  0  0  0  0  0  0  0  0  0  0  0
    6.7407   -5.4429    2.5685 H   0  0  0  0  0  0  0  0  0  0  0  0
  1  2  2  0
  1 25  1  0
  1 26  1  0
  2  8  1  0
  2  3  1  0
  3  4  2  0
  3  5  1  0
  6  5  1  1
  6  8  1  0
  6 24  1  0
  6  7  1  0
  8  7  1  6
  8  9  1  0
  9 10  1  0
  9 27  1  0
  9 28  1  0
 11 10  1  6
 10 29  1  0
 10 30  1  0
 11 19  1  0
 11 24  1  0
 11 12  1  0
 12 13  1  0
 12 31  1  0
 12 32  1  0
 13 21  1  0
 13 14  1  1
 13 15  1  0
 14 33  1  0
 14 34  1  0
 14 35  1  0
 15 16  1  0
 15 36  1  0
 15 37  1  0
 16 17  1  0
 16 38  1  0
 16 39  1  0
 17 18  1  0
 17 19  1  0
 17 40  1  1
 18 41  1  0
 19 20  1  6
 19 21  1  0
 20 42  1  0
 20 43  1  0
 20 44  1  0
 21 22  1  0
 21 45  1  1
 22 23  1  0
 22 46  1  0
 22 47  1  0
 23 24  2  0
 23 48  1  0
M  END
>  <i_m_ct_stereo_status>  (43) 
1

>  <s_m_source_file>  (43) 
/var/tmp/pbs.5076255.sched01/tmp6yc3ji7b/0haed4tc5.sdf

>  <i_m_source_file_index>  (43) 
19

>  <i_lp_mmshare_version>  (43) 
48012

>  <i_f3d_flags>  (43) 
0

>  <s_epik_input>  (43) 
Tz1DKE8xKUMoPVtDSDJdKVtDQF0oW0NAXTEyMykoTzIpW0NIMl1bQ0gyXVtDQF00NVtDQEBdNihbQ0gzXSlbQ0BASF0oW0NIMl1bQ0hdPUMzNSlbQ0BdKFtDSDJdNCkoW0NIM10pW0NIMl1bQ0gyXVtDQEhdNltPSF0=

>  <s_epik_cmdline>  (43) 
J2VwaWtfcHl0aG9uJywgJy1waHQnLCAnMi4wJywgJy1waCcsICc3LjAnLCAnLXRuJywgJzgnLCAnLW1hJywgJzIwMCcsICctaW1hZScsICc8aW5maWxlLm1hZT4nLCAnLW9tYWUnLCAnPG91dGZpbGUubWFlPic=

>  <r_lp_tautomer_probability>  (43) 
1

>  <r_epik_Ionization_Penalty>  (43) 
5.81601e-07

>  <r_epik_Ionization_Penalty_Charging>  (43) 
0

>  <r_epik_Ionization_Penalty_Neutral>  (43) 
5.81601e-07

>  <r_epik_State_Penalty>  (43) 
-0

>  <r_epik_Charging_Adjusted_Penalty>  (43) 
0

>  <i_epik_Tot_Q>  (43) 
0

>  <i_epik_Tot_abs_Q>  (43) 
0

>  <s_epik_Chemistry_Notes>  (43) 
This compound has an ester and may undergo hydrolysis at high or low pH.

>  <s_lp_Force_Field>  (43) 
OPLS3e

>  <r_lp_Energy>  (43) 
52.4194

>  <b_lp_Chiralities_Consistent>  (43) 
1

>  <s_lp_Variant>  (43) 
13:0-1

>  <s_i_glide_gridfile>  (43) 
pfpi4k_grid

>  <i_i_glide_lignum>  (43) 
19

>  <i_i_glide_rotatable_bonds>  (43) 
1

>  <r_i_docking_score>  (43) 
-3.1859

>  <r_i_glide_ligand_efficiency>  (43) 
-0.132746

>  <r_i_glide_ligand_efficiency_sa>  (43) 
-0.382905

>  <r_i_glide_ligand_efficiency_ln>  (43) 
-0.762532

>  <r_i_glide_gscore>  (43) 
-3.1859

>  <r_i_glide_lipo>  (43) 
-0.0625623

>  <r_i_glide_hbond>  (43) 
-0.231341

>  <r_i_glide_metal>  (43) 
-0

>  <r_i_glide_rewards>  (43) 
-1.27972

>  <r_i_glide_evdw>  (43) 
-22.7913

>  <r_i_glide_ecoul>  (43) 
-3.1514

>  <r_i_glide_erotb>  (43) 
0

>  <r_i_glide_esite>  (43) 
0

>  <r_i_glide_emodel>  (43) 
-30.4662

>  <r_i_glide_energy>  (43) 
-25.9427

>  <r_i_glide_einternal>  (43) 
1.31433

>  <r_i_glide_intrahb_reward>  (43) 
-0

>  <i_i_glide_confnum>  (43) 
2

>  <i_i_glide_posenum>  (43) 
36

>  <r_i_glide_eff_state_penalty>  (43) 
0

>  <ligand_id>  (43) 
13

>  <original_smiles>  (43) 
C=C1C(=O)OC23OC12CCC12CC4(C)CCC(O)C1(C)C4CC=C23

>  <smiles>  (43) 
[H]OC1([H])C([H])([H])C([H])([H])C2(C([H])([H])[H])C([H])([H])C34C(=C([H])C([H])([H])C2([H])C13C([H])([H])[H])C12OC(=O)C(=C([H])[H])C1(O2)C([H])([H])C4([H])[H]

$$$$
13:0:1
     RDKit          3D

 48 53  0  0  1  0  0  0  0  0999 V2000
    2.2698    1.2652    4.1596 C   0  0  0  0  0  0  0  0  0  0  0  0
    2.3004   -0.0307    3.8035 C   0  0  0  0  0  0  0  0  0  0  0  0
    1.1247   -0.9016    3.7639 C   0  0  0  0  0  0  0  0  0  0  0  0
   -0.0235   -0.6030    4.0903 O   0  0  0  0  0  0  0  0  0  0  0  0
    1.5146   -2.1132    3.3245 O   0  0  0  0  0  0  0  0  0  0  0  0
    2.9055   -2.1942    3.0345 C   0  0  2  0  0  0  0  0  0  0  0  0
    3.8025   -1.9734    4.1373 O   0  0  0  0  0  0  0  0  0  0  0  0
    3.4314   -0.8407    3.3286 C   0  0  2  0  0  0  0  0  0  0  0  0
    4.5084   -0.2539    2.4491 C   0  0  0  0  0  0  0  0  0  0  0  0
    5.3762   -1.3647    1.8197 C   0  0  0  0  0  0  0  0  0  0  0  0
    4.5535   -2.4068    1.0131 C   0  0  1  0  0  0  0  0  0  0  0  0
    3.9601   -1.7886   -0.2835 C   0  0  0  0  0  0  0  0  0  0  0  0
    4.0221   -2.9043   -1.3555 C   0  0  1  0  0  0  0  0  0  0  0  0
    2.7301   -2.9899   -2.1950 C   0  0  0  0  0  0  0  0  0  0  0  0
    5.2108   -2.6489   -2.3123 C   0  0  0  0  0  0  0  0  0  0  0  0
    6.5212   -2.4017   -1.5530 C   0  0  0  0  0  0  0  0  0  0  0  0
    6.6996   -3.3125   -0.3322 C   0  0  1  0  0  0  0  0  0  0  0  0
    7.7483   -2.7844    0.4586 O   0  0  0  0  0  0  0  0  0  0  0  0
    5.3893   -3.6308    0.4781 C   0  0  1  0  0  0  0  0  0  0  0  0
    5.7916   -4.6592    1.5731 C   0  0  0  0  0  0  0  0  0  0  0  0
    4.3448   -4.1826   -0.5293 C   0  0  1  0  0  0  0  0  0  0  0  0
    3.1150   -4.8150    0.1907 C   0  0  0  0  0  0  0  0  0  0  0  0
    2.6757   -4.0248    1.4035 C   0  0  0  0  0  0  0  0  0  0  0  0
    3.3450   -2.9403    1.8274 C   0  0  0  0  0  0  0  0  0  0  0  0
    3.1682    1.8586    4.1406 H   0  0  0  0  0  0  0  0  0  0  0  0
    1.3611    1.7605    4.4605 H   0  0  0  0  0  0  0  0  0  0  0  0
    4.0287    0.3352    1.6684 H   0  0  0  0  0  0  0  0  0  0  0  0
    5.1134    0.4223    3.0453 H   0  0  0  0  0  0  0  0  0  0  0  0
    6.1234   -0.8931    1.1872 H   0  0  0  0  0  0  0  0  0  0  0  0
    5.9293   -1.8740    2.6105 H   0  0  0  0  0  0  0  0  0  0  0  0
    2.9418   -1.4409   -0.1171 H   0  0  0  0  0  0  0  0  0  0  0  0
    4.5004   -0.8972   -0.5993 H   0  0  0  0  0  0  0  0  0  0  0  0
    2.7355   -3.8533   -2.8609 H   0  0  0  0  0  0  0  0  0  0  0  0
    2.6002   -2.0982   -2.8091 H   0  0  0  0  0  0  0  0  0  0  0  0
    1.8400   -3.0600   -1.5688 H   0  0  0  0  0  0  0  0  0  0  0  0
    5.3323   -3.4975   -2.9881 H   0  0  0  0  0  0  0  0  0  0  0  0
    5.0080   -1.7869   -2.9479 H   0  0  0  0  0  0  0  0  0  0  0  0
    7.3668   -2.5198   -2.2359 H   0  0  0  0  0  0  0  0  0  0  0  0
    6.5434   -1.3706   -1.2160 H   0  0  0  0  0  0  0  0  0  0  0  0
    7.0724   -4.2540   -0.7153 H   0  0  0  0  0  0  0  0  0  0  0  0
    8.5357   -2.7479   -0.0654 H   0  0  0  0  0  0  0  0  0  0  0  0
    6.2694   -5.5311    1.1282 H   0  0  0  0  0  0  0  0  0  0  0  0
    4.9616   -5.0307    2.1726 H   0  0  0  0  0  0  0  0  0  0  0  0
    6.5008   -4.2255    2.2766 H   0  0  0  0  0  0  0  0  0  0  0  0
    4.7766   -4.9490   -1.1711 H   0  0  0  0  0  0  0  0  0  0  0  0
    2.2704   -4.9577   -0.4832 H   0  0  0  0  0  0  0  0  0  0  0  0
    3.3845   -5.8072    0.5499 H   0  0  0  0  0  0  0  0  0  0  0  0
    1.8215   -4.3906    1.9555 H   0  0  0  0  0  0  0  0  0  0  0  0
  1  2  2  0
  1 25  1  0
  1 26  1  0
  2  8  1  0
  2  3  1  0
  3  4  2  0
  3  5  1  0
  6  5  1  1
  6  8  1  0
  6 24  1  0
  6  7  1  0
  8  7  1  1
  8  9  1  0
  9 10  1  0
  9 27  1  0
  9 28  1  0
 11 10  1  1
 10 29  1  0
 10 30  1  0
 11 19  1  0
 11 24  1  0
 11 12  1  0
 12 13  1  0
 12 31  1  0
 12 32  1  0
 13 21  1  0
 13 14  1  6
 13 15  1  0
 14 33  1  0
 14 34  1  0
 14 35  1  0
 15 16  1  0
 15 36  1  0
 15 37  1  0
 16 17  1  0
 16 38  1  0
 16 39  1  0
 17 18  1  0
 17 19  1  0
 17 40  1  6
 18 41  1  0
 19 20  1  1
 19 21  1  0
 20 42  1  0
 20 43  1  0
 20 44  1  0
 21 22  1  0
 21 45  1  6
 22 23  1  0
 22 46  1  0
 22 47  1  0
 23 24  2  0
 23 48  1  0
M  END
>  <i_m_ct_stereo_status>  (44) 
1

>  <s_m_source_file>  (44) 
/var/tmp/pbs.5076255.sched01/tmp6yc3ji7b/0haed4tc5.sdf

>  <i_m_source_file_index>  (44) 
19

>  <i_lp_mmshare_version>  (44) 
48012

>  <i_f3d_flags>  (44) 
0

>  <s_epik_input>  (44) 
Tz1DKE8xKUMoPVtDSDJdKVtDQF0oW0NAXTEyMykoTzIpW0NIMl1bQ0gyXVtDQF00NVtDQEBdNihbQ0gzXSlbQ0BASF0oW0NIMl1bQ0hdPUMzNSlbQ0BdKFtDSDJdNCkoW0NIM10pW0NIMl1bQ0gyXVtDQEhdNltPSF0=

>  <s_epik_cmdline>  (44) 
J2VwaWtfcHl0aG9uJywgJy1waHQnLCAnMi4wJywgJy1waCcsICc3LjAnLCAnLXRuJywgJzgnLCAnLW1hJywgJzIwMCcsICctaW1hZScsICc8aW5maWxlLm1hZT4nLCAnLW9tYWUnLCAnPG91dGZpbGUubWFlPic=

>  <r_lp_tautomer_probability>  (44) 
1

>  <r_epik_Ionization_Penalty>  (44) 
5.81601e-07

>  <r_epik_Ionization_Penalty_Charging>  (44) 
0

>  <r_epik_Ionization_Penalty_Neutral>  (44) 
5.81601e-07

>  <r_epik_State_Penalty>  (44) 
-0

>  <r_epik_Charging_Adjusted_Penalty>  (44) 
0

>  <i_epik_Tot_Q>  (44) 
0

>  <i_epik_Tot_abs_Q>  (44) 
0

>  <s_epik_Chemistry_Notes>  (44) 
This compound has an ester and may undergo hydrolysis at high or low pH.

>  <s_lp_Force_Field>  (44) 
OPLS3e

>  <r_lp_Energy>  (44) 
52.4194

>  <b_lp_Chiralities_Consistent>  (44) 
1

>  <s_lp_Variant>  (44) 
13:0-1

>  <s_i_glide_gridfile>  (44) 
pfpi4k_grid

>  <i_i_glide_lignum>  (44) 
19

>  <i_i_glide_rotatable_bonds>  (44) 
1

>  <r_i_docking_score>  (44) 
-3.05432

>  <r_i_glide_ligand_efficiency>  (44) 
-0.127263

>  <r_i_glide_ligand_efficiency_sa>  (44) 
-0.367091

>  <r_i_glide_ligand_efficiency_ln>  (44) 
-0.731039

>  <r_i_glide_gscore>  (44) 
-3.05432

>  <r_i_glide_lipo>  (44) 
-0.556785

>  <r_i_glide_hbond>  (44) 
0

>  <r_i_glide_metal>  (44) 
-0

>  <r_i_glide_rewards>  (44) 
-1.16999

>  <r_i_glide_evdw>  (44) 
-26.5302

>  <r_i_glide_ecoul>  (44) 
0.0425367

>  <r_i_glide_erotb>  (44) 
0

>  <r_i_glide_esite>  (44) 
-0.00741976

>  <r_i_glide_emodel>  (44) 
-31.4272

>  <r_i_glide_energy>  (44) 
-26.4876

>  <r_i_glide_einternal>  (44) 
0.333461

>  <r_i_glide_intrahb_reward>  (44) 
-0

>  <i_i_glide_confnum>  (44) 
2

>  <i_i_glide_posenum>  (44) 
24

>  <r_i_glide_eff_state_penalty>  (44) 
0

>  <ligand_id>  (44) 
13

>  <original_smiles>  (44) 
C=C1C(=O)OC23OC12CCC12CC4(C)CCC(O)C1(C)C4CC=C23

>  <smiles>  (44) 
[H]OC1([H])C([H])([H])C([H])([H])C2(C([H])([H])[H])C([H])([H])C34C(=C([H])C([H])([H])C2([H])C13C([H])([H])[H])C12OC(=O)C(=C([H])[H])C1(O2)C([H])([H])C4([H])[H]

$$$$
13:0:2
     RDKit          3D

 48 53  0  0  1  0  0  0  0  0999 V2000
    2.0670    1.1095    4.2917 C   0  0  0  0  0  0  0  0  0  0  0  0
    2.1461   -0.1765    3.9111 C   0  0  0  0  0  0  0  0  0  0  0  0
    1.0070   -1.0933    3.8676 C   0  0  0  0  0  0  0  0  0  0  0  0
   -0.1472   -0.8456    4.2123 O   0  0  0  0  0  0  0  0  0  0  0  0
    1.4383   -2.2783    3.4000 O   0  0  0  0  0  0  0  0  0  0  0  0
    2.8279   -2.2989    3.0940 C   0  0  2  0  0  0  0  0  0  0  0  0
    3.7271   -2.0643    4.1897 O   0  0  0  0  0  0  0  0  0  0  0  0
    3.3027   -0.9305    3.4088 C   0  0  2  0  0  0  0  0  0  0  0  0
    4.3450   -0.2861    2.5310 C   0  0  0  0  0  0  0  0  0  0  0  0
    5.2495   -1.3464    1.8724 C   0  0  0  0  0  0  0  0  0  0  0  0
    4.4602   -2.4072    1.0543 C   0  0  1  0  0  0  0  0  0  0  0  0
    3.8258   -1.7916   -0.2245 C   0  0  0  0  0  0  0  0  0  0  0  0
    3.9235   -2.8821   -1.3200 C   0  0  1  0  0  0  0  0  0  0  0  0
    2.6301   -3.0038   -2.1504 C   0  0  0  0  0  0  0  0  0  0  0  0
    5.0903   -2.5583   -2.2826 C   0  0  0  0  0  0  0  0  0  0  0  0
    6.3936   -2.2681   -1.5266 C   0  0  0  0  0  0  0  0  0  0  0  0
    6.6233   -3.2033   -0.3290 C   0  0  1  0  0  0  0  0  0  0  0  0
    7.6603   -2.6594    0.4602 O   0  0  0  0  0  0  0  0  0  0  0  0
    5.3369   -3.5882    0.4876 C   0  0  1  0  0  0  0  0  0  0  0  0
    5.7932   -4.6200    1.5579 C   0  0  0  0  0  0  0  0  0  0  0  0
    4.3050   -4.1625   -0.5219 C   0  0  1  0  0  0  0  0  0  0  0  0
    3.1102   -4.8574    0.1987 C   0  0  0  0  0  0  0  0  0  0  0  0
    2.6538   -4.1084    1.4299 C   0  0  0  0  0  0  0  0  0  0  0  0
    3.2832   -3.0052    1.8692 C   0  0  0  0  0  0  0  0  0  0  0  0
    2.9397    1.7403    4.2755 H   0  0  0  0  0  0  0  0  0  0  0  0
    1.1416    1.5593    4.6121 H   0  0  0  0  0  0  0  0  0  0  0  0
    3.8334    0.3010    1.7646 H   0  0  0  0  0  0  0  0  0  0  0  0
    4.9285    0.4072    3.1338 H   0  0  0  0  0  0  0  0  0  0  0  0
    5.9636   -0.8270    1.2405 H   0  0  0  0  0  0  0  0  0  0  0  0
    5.8282   -1.8478    2.6492 H   0  0  0  0  0  0  0  0  0  0  0  0
    2.7957   -1.4932   -0.0354 H   0  0  0  0  0  0  0  0  0  0  0  0
    4.3240   -0.8718   -0.5280 H   0  0  0  0  0  0  0  0  0  0  0  0
    2.6610   -3.8556   -2.8303 H   0  0  0  0  0  0  0  0  0  0  0  0
    2.4617   -2.1073   -2.7473 H   0  0  0  0  0  0  0  0  0  0  0  0
    1.7496   -3.1121   -1.5161 H   0  0  0  0  0  0  0  0  0  0  0  0
    5.2430   -3.3892   -2.9741 H   0  0  0  0  0  0  0  0  0  0  0  0
    4.8456   -1.6945   -2.9020 H   0  0  0  0  0  0  0  0  0  0  0  0
    7.2381   -2.3411   -2.2160 H   0  0  0  0  0  0  0  0  0  0  0  0
    6.3694   -1.2376   -1.1785 H   0  0  0  0  0  0  0  0  0  0  0  0
    7.0309   -4.1318   -0.7216 H   0  0  0  0  0  0  0  0  0  0  0  0
    7.3102   -1.9382    0.9625 H   0  0  0  0  0  0  0  0  0  0  0  0
    6.3006   -5.4620    1.0901 H   0  0  0  0  0  0  0  0  0  0  0  0
    4.9862   -5.0369    2.1575 H   0  0  0  0  0  0  0  0  0  0  0  0
    6.4922   -4.1724    2.2623 H   0  0  0  0  0  0  0  0  0  0  0  0
    4.7628   -4.8977   -1.1823 H   0  0  0  0  0  0  0  0  0  0  0  0
    2.2651   -5.0205   -0.4710 H   0  0  0  0  0  0  0  0  0  0  0  0
    3.4239   -5.8449    0.5346 H   0  0  0  0  0  0  0  0  0  0  0  0
    1.8210   -4.5201    1.9833 H   0  0  0  0  0  0  0  0  0  0  0  0
  1  2  2  0
  1 25  1  0
  1 26  1  0
  2  8  1  0
  2  3  1  0
  3  4  2  0
  3  5  1  0
  6  5  1  1
  6  8  1  0
  6 24  1  0
  6  7  1  0
  8  7  1  1
  8  9  1  0
  9 10  1  0
  9 27  1  0
  9 28  1  0
 11 10  1  1
 10 29  1  0
 10 30  1  0
 11 19  1  0
 11 24  1  0
 11 12  1  0
 12 13  1  0
 12 31  1  0
 12 32  1  0
 13 21  1  0
 13 14  1  6
 13 15  1  0
 14 33  1  0
 14 34  1  0
 14 35  1  0
 15 16  1  0
 15 36  1  0
 15 37  1  0
 16 17  1  0
 16 38  1  0
 16 39  1  0
 17 18  1  0
 17 19  1  0
 17 40  1  6
 18 41  1  0
 19 20  1  1
 19 21  1  0
 20 42  1  0
 20 43  1  0
 20 44  1  0
 21 22  1  0
 21 45  1  6
 22 23  1  0
 22 46  1  0
 22 47  1  0
 23 24  2  0
 23 48  1  0
M  END
>  <i_m_ct_stereo_status>  (45) 
1

>  <s_m_source_file>  (45) 
/var/tmp/pbs.5076255.sched01/tmp6yc3ji7b/0haed4tc5.sdf

>  <i_m_source_file_index>  (45) 
19

>  <i_lp_mmshare_version>  (45) 
48012

>  <i_f3d_flags>  (45) 
0

>  <s_epik_input>  (45) 
Tz1DKE8xKUMoPVtDSDJdKVtDQF0oW0NAXTEyMykoTzIpW0NIMl1bQ0gyXVtDQF00NVtDQEBdNihbQ0gzXSlbQ0BASF0oW0NIMl1bQ0hdPUMzNSlbQ0BdKFtDSDJdNCkoW0NIM10pW0NIMl1bQ0gyXVtDQEhdNltPSF0=

>  <s_epik_cmdline>  (45) 
J2VwaWtfcHl0aG9uJywgJy1waHQnLCAnMi4wJywgJy1waCcsICc3LjAnLCAnLXRuJywgJzgnLCAnLW1hJywgJzIwMCcsICctaW1hZScsICc8aW5maWxlLm1hZT4nLCAnLW9tYWUnLCAnPG91dGZpbGUubWFlPic=

>  <r_lp_tautomer_probability>  (45) 
1

>  <r_epik_Ionization_Penalty>  (45) 
5.81601e-07

>  <r_epik_Ionization_Penalty_Charging>  (45) 
0

>  <r_epik_Ionization_Penalty_Neutral>  (45) 
5.81601e-07

>  <r_epik_State_Penalty>  (45) 
-0

>  <r_epik_Charging_Adjusted_Penalty>  (45) 
0

>  <i_epik_Tot_Q>  (45) 
0

>  <i_epik_Tot_abs_Q>  (45) 
0

>  <s_epik_Chemistry_Notes>  (45) 
This compound has an ester and may undergo hydrolysis at high or low pH.

>  <s_lp_Force_Field>  (45) 
OPLS3e

>  <r_lp_Energy>  (45) 
52.4194

>  <b_lp_Chiralities_Consistent>  (45) 
1

>  <s_lp_Variant>  (45) 
13:0-1

>  <s_i_glide_gridfile>  (45) 
pfpi4k_grid

>  <i_i_glide_lignum>  (45) 
19

>  <i_i_glide_rotatable_bonds>  (45) 
1

>  <r_i_docking_score>  (45) 
-3.04514

>  <r_i_glide_ligand_efficiency>  (45) 
-0.126881

>  <r_i_glide_ligand_efficiency_sa>  (45) 
-0.365988

>  <r_i_glide_ligand_efficiency_ln>  (45) 
-0.728842

>  <r_i_glide_gscore>  (45) 
-3.04514

>  <r_i_glide_lipo>  (45) 
-0.495856

>  <r_i_glide_hbond>  (45) 
0

>  <r_i_glide_metal>  (45) 
-0

>  <r_i_glide_rewards>  (45) 
-1.16999

>  <r_i_glide_evdw>  (45) 
-26.1556

>  <r_i_glide_ecoul>  (45) 
-0.432236

>  <r_i_glide_erotb>  (45) 
0

>  <r_i_glide_esite>  (45) 
-0.00668341

>  <r_i_glide_emodel>  (45) 
-31.6133

>  <r_i_glide_energy>  (45) 
-26.5879

>  <r_i_glide_einternal>  (45) 
0.0729991

>  <r_i_glide_intrahb_reward>  (45) 
-0

>  <i_i_glide_confnum>  (45) 
2

>  <i_i_glide_posenum>  (45) 
3

>  <r_i_glide_eff_state_penalty>  (45) 
0

>  <ligand_id>  (45) 
13

>  <original_smiles>  (45) 
C=C1C(=O)OC23OC12CCC12CC4(C)CCC(O)C1(C)C4CC=C23

>  <smiles>  (45) 
[H]OC1([H])C([H])([H])C([H])([H])C2(C([H])([H])[H])C([H])([H])C34C(=C([H])C([H])([H])C2([H])C13C([H])([H])[H])C12OC(=O)C(=C([H])[H])C1(O2)C([H])([H])C4([H])[H]

$$$$
14:0:0
     RDKit          3D

 51 54  0  0  1  0  0  0  0  0999 V2000
    8.5635   -4.9031    1.5635 C   0  0  0  0  0  0  0  0  0  0  0  0
    7.1380   -5.3397    1.8903 C   0  0  0  0  0  0  0  0  0  0  0  0
    6.4253   -5.6700    0.6155 C   0  0  0  0  0  0  0  0  0  0  0  0
    5.0049   -6.1499    0.8190 C   0  0  0  0  0  0  0  0  0  0  0  0
    3.8575   -5.4403    0.6752 C   0  0  0  0  0  0  0  0  0  0  0  0
    3.8182   -3.9394    0.3346 C   0  0  0  0  0  0  0  0  0  0  0  0
    3.8608   -3.6058   -1.1605 C   0  0  0  0  0  0  0  0  0  0  0  0
    2.7242   -3.0501   -1.8087 C   0  0  0  0  0  0  0  0  0  0  0  0
    2.8240   -2.7528   -3.1752 C   0  0  0  0  0  0  0  0  0  0  0  0
    3.9202   -2.9588   -3.9201 N   0  0  0  0  0  0  0  0  0  0  0  0
    4.9889   -3.5015   -3.3066 C   0  0  0  0  0  0  0  0  0  0  0  0
    5.0054   -3.8278   -1.9556 C   0  0  0  0  0  0  0  0  0  0  0  0
    2.5325   -6.0896    0.8651 C   0  0  0  0  0  0  0  0  0  0  0  0
    1.4721   -5.5335    0.5683 O   0  0  0  0  0  0  0  0  0  0  0  0
    2.5134   -7.4091    1.2686 N   0  0  0  0  0  0  0  0  0  0  0  0
    1.1780   -8.0448    1.4413 C   0  0  0  0  0  0  0  0  0  0  0  0
    0.2780   -7.3241    2.4760 C   0  0  0  0  0  0  0  0  0  0  0  0
    0.9653   -7.3921    3.8398 C   0  0  0  0  0  0  0  0  0  0  0  0
    1.1540   -8.8547    4.2905 C   0  0  0  0  0  0  0  0  0  0  0  0
    1.9326   -9.6476    3.2475 C   0  0  0  0  0  0  0  0  0  0  0  0
    1.2560   -9.5335    1.8602 C   0  0  0  0  0  0  0  0  0  0  0  0
    3.7581   -8.1176    1.1839 C   0  0  0  0  0  0  0  0  0  0  0  0
    3.9353   -9.3744    1.2010 N   0  0  0  0  0  0  0  0  0  0  0  0
    5.2486   -9.5008    1.3747 C   0  0  0  0  0  0  0  0  0  0  0  0
    5.8905   -8.4137    1.3292 N   0  0  0  0  0  0  0  0  0  0  0  0
    4.8872   -7.5017    1.0791 N   0  0  0  0  0  0  0  0  0  0  0  0
    9.0737   -4.6548    2.4839 H   0  0  0  0  0  0  0  0  0  0  0  0
    8.5905   -4.0276    0.9167 H   0  0  0  0  0  0  0  0  0  0  0  0
    9.1193   -5.7050    1.0759 H   0  0  0  0  0  0  0  0  0  0  0  0
    7.1199   -6.2022    2.5514 H   0  0  0  0  0  0  0  0  0  0  0  0
    6.5765   -4.5254    2.3630 H   0  0  0  0  0  0  0  0  0  0  0  0
    6.4555   -4.7444    0.0534 H   0  0  0  0  0  0  0  0  0  0  0  0
    6.9945   -6.4260    0.0922 H   0  0  0  0  0  0  0  0  0  0  0  0
    2.9298   -3.4736    0.7820 H   0  0  0  0  0  0  0  0  0  0  0  0
    4.6525   -3.4526    0.8393 H   0  0  0  0  0  0  0  0  0  0  0  0
    1.8187   -2.8495   -1.2708 H   0  0  0  0  0  0  0  0  0  0  0  0
    1.9737   -2.2997   -3.7076 H   0  0  0  0  0  0  0  0  0  0  0  0
    5.8702   -3.6982   -3.8764 H   0  0  0  0  0  0  0  0  0  0  0  0
    5.9048   -4.2497   -1.6325 H   0  0  0  0  0  0  0  0  0  0  0  0
    0.6577   -7.9198    0.4837 H   0  0  0  0  0  0  0  0  0  0  0  0
    0.0705   -6.2844    2.2405 H   0  0  0  0  0  0  0  0  0  0  0  0
   -0.6994   -7.7896    2.4959 H   0  0  0  0  0  0  0  0  0  0  0  0
    1.9279   -6.8641    3.7898 H   0  0  0  0  0  0  0  0  0  0  0  0
    0.3627   -6.8434    4.5655 H   0  0  0  0  0  0  0  0  0  0  0  0
    1.7118   -8.8689    5.2242 H   0  0  0  0  0  0  0  0  0  0  0  0
    0.1945   -9.3288    4.4289 H   0  0  0  0  0  0  0  0  0  0  0  0
    2.9214   -9.2017    3.3287 H   0  0  0  0  0  0  0  0  0  0  0  0
    2.0824  -10.6939    3.5235 H   0  0  0  0  0  0  0  0  0  0  0  0
    0.2691  -10.0148    1.8869 H   0  0  0  0  0  0  0  0  0  0  0  0
    1.7329  -10.1094    1.0858 H   0  0  0  0  0  0  0  0  0  0  0  0
    5.7358  -10.4755    1.6566 H   0  0  0  0  0  0  0  0  0  0  0  0
  1  2  1  0
  1 27  1  0
  1 28  1  0
  1 29  1  0
  2  3  1  0
  2 30  1  0
  2 31  1  0
  3  4  1  0
  3 32  1  0
  3 33  1  0
  4 26  1  0
  4  5  2  0
  5  6  1  0
  5 13  1  0
  6  7  1  0
  6 34  1  0
  6 35  1  0
  7 12  1  0
  7  8  2  0
  8  9  1  0
  8 36  1  0
  9 10  2  0
  9 37  1  0
 10 11  1  0
 11 12  2  0
 11 38  1  0
 12 39  1  0
 13 14  2  0
 13 15  1  0
 15 16  1  0
 15 22  1  0
 16 21  1  0
 16 17  1  0
 16 40  1  0
 17 18  1  0
 17 41  1  0
 17 42  1  0
 18 19  1  0
 18 43  1  0
 18 44  1  0
 19 20  1  0
 19 45  1  0
 19 46  1  0
 20 21  1  0
 20 47  1  0
 20 48  1  0
 21 49  1  0
 21 50  1  0
 22 26  1  0
 22 23  2  0
 23 24  1  0
 24 25  2  0
 24 51  1  0
 25 26  1  0
M  END
>  <i_m_ct_stereo_status>  (46) 
1

>  <s_m_source_file>  (46) 
/var/tmp/pbs.5076255.sched01/tmp6yc3ji7b/0haed4tc5.sdf

>  <i_m_source_file_index>  (46) 
20

>  <i_lp_mmshare_version>  (46) 
48012

>  <i_f3d_flags>  (46) 
0

>  <s_epik_input>  (46) 
W2NIXTFbY0hdbltjSF1bY0hdYzFbQ0gyXWMoYyhbQ0gyXVtDSDJdW0NIM10pbihjMjMpbltjSF1uMyljKD1PKW4yW0NIXTRbQ0gyXVtDSDJdW0NIMl1bQ0gyXVtDSDJdNA==

>  <s_epik_cmdline>  (46) 
J2VwaWtfcHl0aG9uJywgJy1waHQnLCAnMi4wJywgJy1waCcsICc3LjAnLCAnLXRuJywgJzgnLCAnLW1hJywgJzIwMCcsICctaW1hZScsICc8aW5maWxlLm1hZT4nLCAnLW9tYWUnLCAnPG91dGZpbGUubWFlPic=

>  <r_epik_Ionization_Penalty>  (46) 
0.0338124

>  <r_epik_Ionization_Penalty_Charging>  (46) 
6.88302e-09

>  <r_epik_Ionization_Penalty_Neutral>  (46) 
0.0338124

>  <r_epik_State_Penalty>  (46) 
0.0279871

>  <r_epik_Charging_Adjusted_Penalty>  (46) 
0.0279871

>  <i_epik_Tot_Q>  (46) 
0

>  <i_epik_Tot_abs_Q>  (46) 
0

>  <s_lp_Force_Field>  (46) 
OPLS3e

>  <r_lp_Energy>  (46) 
41.0114

>  <b_lp_Chiralities_Consistent>  (46) 
1

>  <s_lp_Variant>  (46) 
14:0-1

>  <s_i_glide_gridfile>  (46) 
pfpi4k_grid

>  <i_i_glide_lignum>  (46) 
20

>  <i_i_glide_rotatable_bonds>  (46) 
5

>  <r_i_docking_score>  (46) 
-2.89933

>  <r_i_glide_ligand_efficiency>  (46) 
-0.111513

>  <r_i_glide_ligand_efficiency_sa>  (46) 
-0.330356

>  <r_i_glide_ligand_efficiency_ln>  (46) 
-0.680898

>  <r_i_glide_gscore>  (46) 
-2.89933

>  <r_i_glide_lipo>  (46) 
-0.648517

>  <r_i_glide_hbond>  (46) 
-0.222853

>  <r_i_glide_metal>  (46) 
-0

>  <r_i_glide_rewards>  (46) 
-1.10781

>  <r_i_glide_evdw>  (46) 
-24.2097

>  <r_i_glide_ecoul>  (46) 
-4.85907

>  <r_i_glide_erotb>  (46) 
0.617679

>  <r_i_glide_esite>  (46) 
-0.0697224

>  <r_i_glide_emodel>  (46) 
-27.0995

>  <r_i_glide_energy>  (46) 
-29.0687

>  <r_i_glide_einternal>  (46) 
0.441449

>  <r_i_glide_intrahb_reward>  (46) 
-0

>  <i_i_glide_confnum>  (46) 
1

>  <i_i_glide_posenum>  (46) 
1

>  <r_i_glide_eff_state_penalty>  (46) 
0

>  <ligand_id>  (46) 
14

>  <original_smiles>  (46) 
CCCc1c(Cc2ccncc2)c(=O)n(C2CCCCC2)c2ncnn12

>  <smiles>  (46) 
[H]c1nc2n(C3([H])C([H])([H])C([H])([H])C([H])([H])C([H])([H])C3([H])[H])c(=O)c(C([H])([H])c3c([H])c([H])nc([H])c3[H])c(C([H])([H])C([H])([H])C([H])([H])[H])n2n1

$$$$
14:0:1
     RDKit          3D

 51 54  0  0  1  0  0  0  0  0999 V2000
    5.3511   -1.2060    1.3204 C   0  0  0  0  0  0  0  0  0  0  0  0
    4.4725   -0.7251    2.4855 C   0  0  0  0  0  0  0  0  0  0  0  0
    2.9805   -1.0376    2.3327 C   0  0  0  0  0  0  0  0  0  0  0  0
    2.7067   -2.5221    2.4867 C   0  0  0  0  0  0  0  0  0  0  0  0
    2.2366   -3.1648    3.5849 C   0  0  0  0  0  0  0  0  0  0  0  0
    2.0012   -2.4796    4.9415 C   0  0  0  0  0  0  0  0  0  0  0  0
    0.5458   -2.3621    5.3331 C   0  0  0  0  0  0  0  0  0  0  0  0
   -0.0591   -3.3326    6.1677 C   0  0  0  0  0  0  0  0  0  0  0  0
   -1.4200   -3.2063    6.4466 C   0  0  0  0  0  0  0  0  0  0  0  0
   -2.1655   -2.1538    6.0605 N   0  0  0  0  0  0  0  0  0  0  0  0
   -1.5789   -1.2179    5.2745 C   0  0  0  0  0  0  0  0  0  0  0  0
   -0.2392   -1.2938    4.8753 C   0  0  0  0  0  0  0  0  0  0  0  0
    1.9204   -4.6284    3.5714 C   0  0  0  0  0  0  0  0  0  0  0  0
    1.4801   -5.2109    4.5445 O   0  0  0  0  0  0  0  0  0  0  0  0
    2.1265   -5.2965    2.3884 N   0  0  0  0  0  0  0  0  0  0  0  0
    1.8907   -6.7820    2.3698 C   0  0  0  0  0  0  0  0  0  0  0  0
    2.6338   -7.5695    3.4915 C   0  0  0  0  0  0  0  0  0  0  0  0
    4.1582   -7.4671    3.3048 C   0  0  0  0  0  0  0  0  0  0  0  0
    4.5936   -8.0540    1.9422 C   0  0  0  0  0  0  0  0  0  0  0  0
    3.8477   -7.3686    0.8096 C   0  0  0  0  0  0  0  0  0  0  0  0
    2.2933   -7.4681    1.0492 C   0  0  0  0  0  0  0  0  0  0  0  0
    2.5355   -4.5500    1.2147 C   0  0  0  0  0  0  0  0  0  0  0  0
    2.6035   -4.9858   -0.0256 N   0  0  0  0  0  0  0  0  0  0  0  0
    3.1988   -3.9373   -0.6328 C   0  0  0  0  0  0  0  0  0  0  0  0
    3.2651   -2.8710    0.0880 N   0  0  0  0  0  0  0  0  0  0  0  0
    2.8418   -3.2946    1.3171 N   0  0  0  0  0  0  0  0  0  0  0  0
    6.3925   -0.9191    1.4435 H   0  0  0  0  0  0  0  0  0  0  0  0
    4.9856   -0.8049    0.3702 H   0  0  0  0  0  0  0  0  0  0  0  0
    5.3687   -2.2937    1.2593 H   0  0  0  0  0  0  0  0  0  0  0  0
    4.8441   -1.1526    3.4167 H   0  0  0  0  0  0  0  0  0  0  0  0
    4.5592    0.3502    2.5612 H   0  0  0  0  0  0  0  0  0  0  0  0
    2.3720   -0.4982    3.0578 H   0  0  0  0  0  0  0  0  0  0  0  0
    2.5935   -0.7291    1.3626 H   0  0  0  0  0  0  0  0  0  0  0  0
    2.5412   -3.0343    5.7106 H   0  0  0  0  0  0  0  0  0  0  0  0
    2.4475   -1.4877    4.9351 H   0  0  0  0  0  0  0  0  0  0  0  0
    0.4795   -4.1872    6.5444 H   0  0  0  0  0  0  0  0  0  0  0  0
   -1.9098   -3.9092    7.0973 H   0  0  0  0  0  0  0  0  0  0  0  0
   -2.2068   -0.4119    4.9490 H   0  0  0  0  0  0  0  0  0  0  0  0
    0.1860   -0.5313    4.2374 H   0  0  0  0  0  0  0  0  0  0  0  0
    0.8144   -6.9213    2.4968 H   0  0  0  0  0  0  0  0  0  0  0  0
    2.3892   -7.2488    4.5026 H   0  0  0  0  0  0  0  0  0  0  0  0
    2.3209   -8.6172    3.4670 H   0  0  0  0  0  0  0  0  0  0  0  0
    4.4699   -6.4203    3.3970 H   0  0  0  0  0  0  0  0  0  0  0  0
    4.6576   -8.0027    4.1155 H   0  0  0  0  0  0  0  0  0  0  0  0
    5.6692   -7.8986    1.8111 H   0  0  0  0  0  0  0  0  0  0  0  0
    4.3782   -9.1269    1.9083 H   0  0  0  0  0  0  0  0  0  0  0  0
    4.2580   -6.3553    0.8272 H   0  0  0  0  0  0  0  0  0  0  0  0
    4.1706   -7.7610   -0.1559 H   0  0  0  0  0  0  0  0  0  0  0  0
    1.9613   -8.5113    0.9914 H   0  0  0  0  0  0  0  0  0  0  0  0
    1.6594   -7.0217    0.2862 H   0  0  0  0  0  0  0  0  0  0  0  0
    3.6117   -3.9812   -1.6015 H   0  0  0  0  0  0  0  0  0  0  0  0
  1  2  1  0
  1 27  1  0
  1 28  1  0
  1 29  1  0
  2  3  1  0
  2 30  1  0
  2 31  1  0
  3  4  1  0
  3 32  1  0
  3 33  1  0
  4 26  1  0
  4  5  2  0
  5  6  1  0
  5 13  1  0
  6  7  1  0
  6 34  1  0
  6 35  1  0
  7 12  1  0
  7  8  2  0
  8  9  1  0
  8 36  1  0
  9 10  2  0
  9 37  1  0
 10 11  1  0
 11 12  2  0
 11 38  1  0
 12 39  1  0
 13 14  2  0
 13 15  1  0
 15 16  1  0
 15 22  1  0
 16 21  1  0
 16 17  1  0
 16 40  1  0
 17 18  1  0
 17 41  1  0
 17 42  1  0
 18 19  1  0
 18 43  1  0
 18 44  1  0
 19 20  1  0
 19 45  1  0
 19 46  1  0
 20 21  1  0
 20 47  1  0
 20 48  1  0
 21 49  1  0
 21 50  1  0
 22 26  1  0
 22 23  2  0
 23 24  1  0
 24 25  2  0
 24 51  1  0
 25 26  1  0
M  END
>  <i_m_ct_stereo_status>  (47) 
1

>  <s_m_source_file>  (47) 
/var/tmp/pbs.5076255.sched01/tmp6yc3ji7b/0haed4tc5.sdf

>  <i_m_source_file_index>  (47) 
20

>  <i_lp_mmshare_version>  (47) 
48012

>  <i_f3d_flags>  (47) 
0

>  <s_epik_input>  (47) 
W2NIXTFbY0hdbltjSF1bY0hdYzFbQ0gyXWMoYyhbQ0gyXVtDSDJdW0NIM10pbihjMjMpbltjSF1uMyljKD1PKW4yW0NIXTRbQ0gyXVtDSDJdW0NIMl1bQ0gyXVtDSDJdNA==

>  <s_epik_cmdline>  (47) 
J2VwaWtfcHl0aG9uJywgJy1waHQnLCAnMi4wJywgJy1waCcsICc3LjAnLCAnLXRuJywgJzgnLCAnLW1hJywgJzIwMCcsICctaW1hZScsICc8aW5maWxlLm1hZT4nLCAnLW9tYWUnLCAnPG91dGZpbGUubWFlPic=

>  <r_epik_Ionization_Penalty>  (47) 
0.0338124

>  <r_epik_Ionization_Penalty_Charging>  (47) 
6.88302e-09

>  <r_epik_Ionization_Penalty_Neutral>  (47) 
0.0338124

>  <r_epik_State_Penalty>  (47) 
0.0279871

>  <r_epik_Charging_Adjusted_Penalty>  (47) 
0.0279871

>  <i_epik_Tot_Q>  (47) 
0

>  <i_epik_Tot_abs_Q>  (47) 
0

>  <s_lp_Force_Field>  (47) 
OPLS3e

>  <r_lp_Energy>  (47) 
41.0114

>  <b_lp_Chiralities_Consistent>  (47) 
1

>  <s_lp_Variant>  (47) 
14:0-1

>  <s_i_glide_gridfile>  (47) 
pfpi4k_grid

>  <i_i_glide_lignum>  (47) 
20

>  <i_i_glide_rotatable_bonds>  (47) 
5

>  <r_i_docking_score>  (47) 
-1.80342

>  <r_i_glide_ligand_efficiency>  (47) 
-0.0693624

>  <r_i_glide_ligand_efficiency_sa>  (47) 
-0.205486

>  <r_i_glide_ligand_efficiency_ln>  (47) 
-0.423528

>  <r_i_glide_gscore>  (47) 
-1.80342

>  <r_i_glide_lipo>  (47) 
-0.319923

>  <r_i_glide_hbond>  (47) 
0

>  <r_i_glide_metal>  (47) 
-0

>  <r_i_glide_rewards>  (47) 
-1.01287

>  <r_i_glide_evdw>  (47) 
-11.1693

>  <r_i_glide_ecoul>  (47) 
-3.10073

>  <r_i_glide_erotb>  (47) 
0.617679

>  <r_i_glide_esite>  (47) 
-0.0647331

>  <r_i_glide_emodel>  (47) 
-11.7993

>  <r_i_glide_energy>  (47) 
-14.27

>  <r_i_glide_einternal>  (47) 
2.19651

>  <r_i_glide_intrahb_reward>  (47) 
-0

>  <i_i_glide_confnum>  (47) 
5

>  <i_i_glide_posenum>  (47) 
7

>  <r_i_glide_eff_state_penalty>  (47) 
0

>  <ligand_id>  (47) 
14

>  <original_smiles>  (47) 
CCCc1c(Cc2ccncc2)c(=O)n(C2CCCCC2)c2ncnn12

>  <smiles>  (47) 
[H]c1nc2n(C3([H])C([H])([H])C([H])([H])C([H])([H])C([H])([H])C3([H])[H])c(=O)c(C([H])([H])c3c([H])c([H])nc([H])c3[H])c(C([H])([H])C([H])([H])C([H])([H])[H])n2n1

$$$$
14:0:2
     RDKit          3D

 51 54  0  0  1  0  0  0  0  0999 V2000
    6.2601  -10.0597    0.9524 C   0  0  0  0  0  0  0  0  0  0  0  0
    5.2311   -9.2549    1.7479 C   0  0  0  0  0  0  0  0  0  0  0  0
    4.2752   -8.4840    0.8385 C   0  0  0  0  0  0  0  0  0  0  0  0
    3.2453   -7.7171    1.6423 C   0  0  0  0  0  0  0  0  0  0  0  0
    3.2448   -6.4012    1.9239 C   0  0  0  0  0  0  0  0  0  0  0  0
    4.3772   -5.4500    1.5435 C   0  0  0  0  0  0  0  0  0  0  0  0
    4.0274   -4.4144    0.4839 C   0  0  0  0  0  0  0  0  0  0  0  0
    4.8588   -3.2952    0.2902 C   0  0  0  0  0  0  0  0  0  0  0  0
    4.5100   -2.3634   -0.7057 C   0  0  0  0  0  0  0  0  0  0  0  0
    3.4252   -2.4863   -1.4969 N   0  0  0  0  0  0  0  0  0  0  0  0
    2.6144   -3.5425   -1.2865 C   0  0  0  0  0  0  0  0  0  0  0  0
    2.8748   -4.5320   -0.3058 C   0  0  0  0  0  0  0  0  0  0  0  0
    2.1167   -5.7461    2.6287 C   0  0  0  0  0  0  0  0  0  0  0  0
    2.1241   -4.5390    2.8167 O   0  0  0  0  0  0  0  0  0  0  0  0
    1.0841   -6.5868    2.9956 N   0  0  0  0  0  0  0  0  0  0  0  0
   -0.0304   -6.0484    3.8120 C   0  0  0  0  0  0  0  0  0  0  0  0
    0.3901   -5.1833    5.0268 C   0  0  0  0  0  0  0  0  0  0  0  0
    1.0442   -6.1244    6.0291 C   0  0  0  0  0  0  0  0  0  0  0  0
    0.0505   -7.1946    6.4630 C   0  0  0  0  0  0  0  0  0  0  0  0
   -0.5239   -7.9764    5.2854 C   0  0  0  0  0  0  0  0  0  0  0  0
   -1.1420   -7.0170    4.2387 C   0  0  0  0  0  0  0  0  0  0  0  0
    1.0486   -7.9551    2.5702 C   0  0  0  0  0  0  0  0  0  0  0  0
    0.0795   -8.8549    2.6331 N   0  0  0  0  0  0  0  0  0  0  0  0
    0.7453   -9.9826    2.4229 C   0  0  0  0  0  0  0  0  0  0  0  0
    1.9645   -9.8062    1.9101 N   0  0  0  0  0  0  0  0  0  0  0  0
    2.1327   -8.4602    2.0241 N   0  0  0  0  0  0  0  0  0  0  0  0
    6.9236  -10.6101    1.6119 H   0  0  0  0  0  0  0  0  0  0  0  0
    6.8583   -9.4286    0.3037 H   0  0  0  0  0  0  0  0  0  0  0  0
    5.8125  -10.8014    0.3090 H   0  0  0  0  0  0  0  0  0  0  0  0
    4.6668   -9.9277    2.3978 H   0  0  0  0  0  0  0  0  0  0  0  0
    5.7524   -8.5589    2.4050 H   0  0  0  0  0  0  0  0  0  0  0  0
    4.8107   -7.8007    0.1902 H   0  0  0  0  0  0  0  0  0  0  0  0
    3.7592   -9.1629    0.1599 H   0  0  0  0  0  0  0  0  0  0  0  0
    4.7136   -4.9362    2.4449 H   0  0  0  0  0  0  0  0  0  0  0  0
    5.2384   -6.0124    1.2026 H   0  0  0  0  0  0  0  0  0  0  0  0
    5.7452   -3.1470    0.8888 H   0  0  0  0  0  0  0  0  0  0  0  0
    5.1280   -1.4964   -0.8785 H   0  0  0  0  0  0  0  0  0  0  0  0
    1.7514   -3.6433   -1.9281 H   0  0  0  0  0  0  0  0  0  0  0  0
    2.2138   -5.3811   -0.2329 H   0  0  0  0  0  0  0  0  0  0  0  0
   -0.5055   -5.5183    3.0558 H   0  0  0  0  0  0  0  0  0  0  0  0
    1.0765   -4.3776    4.8046 H   0  0  0  0  0  0  0  0  0  0  0  0
   -0.4657   -4.6458    5.4401 H   0  0  0  0  0  0  0  0  0  0  0  0
    1.9374   -6.5731    5.5923 H   0  0  0  0  0  0  0  0  0  0  0  0
    1.3497   -5.5538    6.8966 H   0  0  0  0  0  0  0  0  0  0  0  0
    0.5264   -7.9198    7.1219 H   0  0  0  0  0  0  0  0  0  0  0  0
   -0.6998   -6.6247    6.9856 H   0  0  0  0  0  0  0  0  0  0  0  0
    0.3681   -8.5190    4.9728 H   0  0  0  0  0  0  0  0  0  0  0  0
   -1.2309   -8.7665    5.5145 H   0  0  0  0  0  0  0  0  0  0  0  0
   -2.0370   -6.5294    4.6128 H   0  0  0  0  0  0  0  0  0  0  0  0
   -1.5945   -7.4569    3.3473 H   0  0  0  0  0  0  0  0  0  0  0  0
    0.2082  -10.9344    2.4928 H   0  0  0  0  0  0  0  0  0  0  0  0
  1  2  1  0
  1 27  1  0
  1 28  1  0
  1 29  1  0
  2  3  1  0
  2 30  1  0
  2 31  1  0
  3  4  1  0
  3 32  1  0
  3 33  1  0
  4 26  1  0
  4  5  2  0
  5  6  1  0
  5 13  1  0
  6  7  1  0
  6 34  1  0
  6 35  1  0
  7 12  1  0
  7  8  2  0
  8  9  1  0
  8 36  1  0
  9 10  2  0
  9 37  1  0
 10 11  1  0
 11 12  2  0
 11 38  1  0
 12 39  1  0
 13 14  2  0
 13 15  1  0
 15 16  1  0
 15 22  1  0
 16 21  1  0
 16 17  1  0
 16 40  1  0
 17 18  1  0
 17 41  1  0
 17 42  1  0
 18 19  1  0
 18 43  1  0
 18 44  1  0
 19 20  1  0
 19 45  1  0
 19 46  1  0
 20 21  1  0
 20 47  1  0
 20 48  1  0
 21 49  1  0
 21 50  1  0
 22 26  1  0
 22 23  2  0
 23 24  1  0
 24 25  2  0
 24 51  1  0
 25 26  1  0
M  END
>  <i_m_ct_stereo_status>  (48) 
1

>  <s_m_source_file>  (48) 
/var/tmp/pbs.5076255.sched01/tmp6yc3ji7b/0haed4tc5.sdf

>  <i_m_source_file_index>  (48) 
20

>  <i_lp_mmshare_version>  (48) 
48012

>  <i_f3d_flags>  (48) 
0

>  <s_epik_input>  (48) 
W2NIXTFbY0hdbltjSF1bY0hdYzFbQ0gyXWMoYyhbQ0gyXVtDSDJdW0NIM10pbihjMjMpbltjSF1uMyljKD1PKW4yW0NIXTRbQ0gyXVtDSDJdW0NIMl1bQ0gyXVtDSDJdNA==

>  <s_epik_cmdline>  (48) 
J2VwaWtfcHl0aG9uJywgJy1waHQnLCAnMi4wJywgJy1waCcsICc3LjAnLCAnLXRuJywgJzgnLCAnLW1hJywgJzIwMCcsICctaW1hZScsICc8aW5maWxlLm1hZT4nLCAnLW9tYWUnLCAnPG91dGZpbGUubWFlPic=

>  <r_epik_Ionization_Penalty>  (48) 
0.0338124

>  <r_epik_Ionization_Penalty_Charging>  (48) 
6.88302e-09

>  <r_epik_Ionization_Penalty_Neutral>  (48) 
0.0338124

>  <r_epik_State_Penalty>  (48) 
0.0279871

>  <r_epik_Charging_Adjusted_Penalty>  (48) 
0.0279871

>  <i_epik_Tot_Q>  (48) 
0

>  <i_epik_Tot_abs_Q>  (48) 
0

>  <s_lp_Force_Field>  (48) 
OPLS3e

>  <r_lp_Energy>  (48) 
41.0114

>  <b_lp_Chiralities_Consistent>  (48) 
1

>  <s_lp_Variant>  (48) 
14:0-1

>  <s_i_glide_gridfile>  (48) 
pfpi4k_grid

>  <i_i_glide_lignum>  (48) 
20

>  <i_i_glide_rotatable_bonds>  (48) 
5

>  <r_i_docking_score>  (48) 
-1.08446

>  <r_i_glide_ligand_efficiency>  (48) 
-0.0417101

>  <r_i_glide_ligand_efficiency_sa>  (48) 
-0.123566

>  <r_i_glide_ligand_efficiency_ln>  (48) 
-0.254683

>  <r_i_glide_gscore>  (48) 
-1.08446

>  <r_i_glide_lipo>  (48) 
-0.157536

>  <r_i_glide_hbond>  (48) 
0

>  <r_i_glide_metal>  (48) 
-0

>  <r_i_glide_rewards>  (48) 
-1.2078

>  <r_i_glide_evdw>  (48) 
-17.4477

>  <r_i_glide_ecoul>  (48) 
3.16257

>  <r_i_glide_erotb>  (48) 
0.617679

>  <r_i_glide_esite>  (48) 
-0.0714947

>  <r_i_glide_emodel>  (48) 
-10.8216

>  <r_i_glide_energy>  (48) 
-14.2851

>  <r_i_glide_einternal>  (48) 
0.853035

>  <r_i_glide_intrahb_reward>  (48) 
-0

>  <i_i_glide_confnum>  (48) 
1

>  <i_i_glide_posenum>  (48) 
15

>  <r_i_glide_eff_state_penalty>  (48) 
0

>  <ligand_id>  (48) 
14

>  <original_smiles>  (48) 
CCCc1c(Cc2ccncc2)c(=O)n(C2CCCCC2)c2ncnn12

>  <smiles>  (48) 
[H]c1nc2n(C3([H])C([H])([H])C([H])([H])C([H])([H])C([H])([H])C3([H])[H])c(=O)c(C([H])([H])c3c([H])c([H])nc([H])c3[H])c(C([H])([H])C([H])([H])C([H])([H])[H])n2n1

$$$$
14:1:0
     RDKit          3D

 52 55  0  0  1  0  0  0  0  0999 V2000
    5.2776   -3.5884    4.9314 C   0  0  0  0  0  0  0  0  0  0  0  0
    4.3911   -4.6294    4.2411 C   0  0  0  0  0  0  0  0  0  0  0  0
    3.3400   -4.0181    3.3053 C   0  0  0  0  0  0  0  0  0  0  0  0
    3.9570   -3.2443    2.1760 C   0  0  0  0  0  0  0  0  0  0  0  0
    4.1425   -1.8975    2.0786 C   0  0  0  0  0  0  0  0  0  0  0  0
    3.6876   -0.9236    3.1531 C   0  0  0  0  0  0  0  0  0  0  0  0
    2.7819    0.1775    2.6568 C   0  0  0  0  0  0  0  0  0  0  0  0
    3.0076    1.5143    3.0471 C   0  0  0  0  0  0  0  0  0  0  0  0
    2.1693    2.5255    2.5457 C   0  0  0  0  0  0  0  0  0  0  0  0
    1.1647    2.1918    1.7263 N   0  0  0  0  0  0  0  0  0  0  0  0
    0.9336    0.9460    1.3309 C   0  0  0  0  0  0  0  0  0  0  0  0
    1.7263   -0.1193    1.7762 C   0  0  0  0  0  0  0  0  0  0  0  0
    4.8512   -1.2943    0.9407 C   0  0  0  0  0  0  0  0  0  0  0  0
    5.1060   -0.0839    0.9128 O   0  0  0  0  0  0  0  0  0  0  0  0
    5.2336   -2.1435   -0.0636 N   0  0  0  0  0  0  0  0  0  0  0  0
    5.7859   -1.5558   -1.3119 C   0  0  0  0  0  0  0  0  0  0  0  0
    4.8751   -0.4960   -1.9825 C   0  0  0  0  0  0  0  0  0  0  0  0
    3.5711   -1.0530   -2.5009 C   0  0  0  0  0  0  0  0  0  0  0  0
    3.8453   -2.1173   -3.5602 C   0  0  0  0  0  0  0  0  0  0  0  0
    4.7641   -3.1928   -3.0145 C   0  0  0  0  0  0  0  0  0  0  0  0
    6.0750   -2.5904   -2.3968 C   0  0  0  0  0  0  0  0  0  0  0  0
    5.1247   -3.5747    0.1122 C   0  0  0  0  0  0  0  0  0  0  0  0
    5.6450   -4.5671   -0.5975 N   0  0  0  0  0  0  0  0  0  0  0  0
    4.9520   -5.6185   -0.1165 C   0  0  0  0  0  0  0  0  0  0  0  0
    4.2844   -5.3806    1.0119 N   0  0  0  0  0  0  0  0  0  0  0  0
    4.4268   -4.0267    1.1312 N   0  0  0  0  0  0  0  0  0  0  0  0
    5.9889   -4.0674    5.6050 H   0  0  0  0  0  0  0  0  0  0  0  0
    4.6864   -2.8798    5.5096 H   0  0  0  0  0  0  0  0  0  0  0  0
    5.8379   -3.0167    4.1970 H   0  0  0  0  0  0  0  0  0  0  0  0
    5.0179   -5.3416    3.7009 H   0  0  0  0  0  0  0  0  0  0  0  0
    3.8638   -5.2029    4.9968 H   0  0  0  0  0  0  0  0  0  0  0  0
    2.7172   -4.7915    2.8641 H   0  0  0  0  0  0  0  0  0  0  0  0
    2.6553   -3.3912    3.8459 H   0  0  0  0  0  0  0  0  0  0  0  0
    3.1406   -1.4149    3.9393 H   0  0  0  0  0  0  0  0  0  0  0  0
    4.5693   -0.4880    3.6167 H   0  0  0  0  0  0  0  0  0  0  0  0
    3.8347    1.7851    3.6800 H   0  0  0  0  0  0  0  0  0  0  0  0
    2.2678    3.5807    2.7408 H   0  0  0  0  0  0  0  0  0  0  0  0
    0.1576    0.8832    0.6174 H   0  0  0  0  0  0  0  0  0  0  0  0
    1.5324   -1.1156    1.3963 H   0  0  0  0  0  0  0  0  0  0  0  0
    6.7222   -1.1030   -0.9985 H   0  0  0  0  0  0  0  0  0  0  0  0
    4.5829    0.2302   -1.2914 H   0  0  0  0  0  0  0  0  0  0  0  0
    5.4024    0.0996   -2.7171 H   0  0  0  0  0  0  0  0  0  0  0  0
    3.0136   -1.4293   -1.6378 H   0  0  0  0  0  0  0  0  0  0  0  0
    2.9840   -0.2372   -2.9149 H   0  0  0  0  0  0  0  0  0  0  0  0
    2.8946   -2.5764   -3.8252 H   0  0  0  0  0  0  0  0  0  0  0  0
    4.3223   -1.6750   -4.4309 H   0  0  0  0  0  0  0  0  0  0  0  0
    4.0954   -3.6581   -2.2903 H   0  0  0  0  0  0  0  0  0  0  0  0
    4.9890   -3.9872   -3.7236 H   0  0  0  0  0  0  0  0  0  0  0  0
    6.7486   -2.2624   -3.0856 H   0  0  0  0  0  0  0  0  0  0  0  0
    6.8683   -3.2725   -2.1096 H   0  0  0  0  0  0  0  0  0  0  0  0
    5.0162   -6.5806   -0.6227 H   0  0  0  0  0  0  0  0  0  0  0  0
    0.6106    2.9895    1.3212 H   0  0  0  0  0  0  0  0  0  0  0  0
  1  2  1  0
  1 27  1  0
  1 28  1  0
  1 29  1  0
  2  3  1  0
  2 30  1  0
  2 31  1  0
  3  4  1  0
  3 32  1  0
  3 33  1  0
  4 26  1  0
  4  5  2  0
  5  6  1  0
  5 13  1  0
  6  7  1  0
  6 34  1  0
  6 35  1  0
  7 12  1  0
  7  8  2  0
  8  9  1  0
  8 36  1  0
  9 10  2  0
  9 37  1  0
 10 11  1  0
 10 52  1  0
 11 12  2  0
 11 38  1  0
 12 39  1  0
 13 14  2  0
 13 15  1  0
 15 16  1  0
 15 22  1  0
 16 21  1  0
 16 17  1  0
 16 40  1  0
 17 18  1  0
 17 41  1  0
 17 42  1  0
 18 19  1  0
 18 43  1  0
 18 44  1  0
 19 20  1  0
 19 45  1  0
 19 46  1  0
 20 21  1  0
 20 47  1  0
 20 48  1  0
 21 49  1  0
 21 50  1  0
 22 26  1  0
 22 23  2  0
 23 24  1  0
 24 25  2  0
 24 51  1  0
 25 26  1  0
M  CHG  1  10   1
M  END
>  <i_m_ct_stereo_status>  (49) 
1

>  <s_m_source_file>  (49) 
/var/tmp/pbs.5076255.sched01/tmp6yc3ji7b/0haed4tc5.sdf

>  <i_m_source_file_index>  (49) 
21

>  <i_lp_mmshare_version>  (49) 
48012

>  <i_f3d_flags>  (49) 
0

>  <s_epik_input>  (49) 
W2NIXTFbY0hdbltjSF1bY0hdYzFbQ0gyXWMoYyhbQ0gyXVtDSDJdW0NIM10pbihjMjMpbltjSF1uMyljKD1PKW4yW0NIXTRbQ0gyXVtDSDJdW0NIMl1bQ0gyXVtDSDJdNA==

>  <s_epik_cmdline>  (49) 
J2VwaWtfcHl0aG9uJywgJy1waHQnLCAnMi4wJywgJy1waCcsICc3LjAnLCAnLXRuJywgJzgnLCAnLW1hJywgJzIwMCcsICctaW1hZScsICc8aW5maWxlLm1hZT4nLCAnLW9tYWUnLCAnPG91dGZpbGUubWFlPic=

>  <r_epik_Ionization_Penalty>  (49) 
1.71549

>  <r_epik_Ionization_Penalty_Charging>  (49) 
1.71544

>  <r_epik_Ionization_Penalty_Neutral>  (49) 
4.92062e-05

>  <r_epik_State_Penalty>  (49) 
1.82255

>  <r_epik_Charging_Adjusted_Penalty>  (49) 
3.53799

>  <i_epik_Tot_Q>  (49) 
1

>  <i_epik_Tot_abs_Q>  (49) 
1

>  <s_lp_Force_Field>  (49) 
OPLS3e

>  <r_lp_Energy>  (49) 
45.6794

>  <b_lp_Chiralities_Consistent>  (49) 
1

>  <s_lp_Variant>  (49) 
14:0-2

>  <s_i_glide_gridfile>  (49) 
pfpi4k_grid

>  <i_i_glide_lignum>  (49) 
21

>  <i_i_glide_rotatable_bonds>  (49) 
5

>  <r_i_docking_score>  (49) 
-3.23603

>  <r_i_glide_ligand_efficiency>  (49) 
-0.124463

>  <r_i_glide_ligand_efficiency_sa>  (49) 
-0.36872

>  <r_i_glide_ligand_efficiency_ln>  (49) 
-0.75997

>  <r_i_glide_gscore>  (49) 
-3.23603

>  <r_i_glide_lipo>  (49) 
-0.449817

>  <r_i_glide_hbond>  (49) 
-0.288461

>  <r_i_glide_metal>  (49) 
-0

>  <r_i_glide_rewards>  (49) 
-1.10809

>  <r_i_glide_evdw>  (49) 
-9.48008

>  <r_i_glide_ecoul>  (49) 
-9.61351

>  <r_i_glide_erotb>  (49) 
0.614541

>  <r_i_glide_esite>  (49) 
-0.0948351

>  <r_i_glide_emodel>  (49) 
-15.8559

>  <r_i_glide_energy>  (49) 
-19.0936

>  <r_i_glide_einternal>  (49) 
2.25306

>  <r_i_glide_intrahb_reward>  (49) 
-0

>  <i_i_glide_confnum>  (49) 
4

>  <i_i_glide_posenum>  (49) 
23

>  <r_i_glide_eff_state_penalty>  (49) 
0

>  <ligand_id>  (49) 
14

>  <original_smiles>  (49) 
CCCc1c(Cc2ccncc2)c(=O)n(C2CCCCC2)c2ncnn12

>  <smiles>  (49) 
[H]c1nc2n(C3([H])C([H])([H])C([H])([H])C([H])([H])C([H])([H])C3([H])[H])c(=O)c(C([H])([H])c3c([H])c([H])[n+]([H])c([H])c3[H])c(C([H])([H])C([H])([H])C([H])([H])[H])n2n1

$$$$
14:1:1
     RDKit          3D

 52 55  0  0  1  0  0  0  0  0999 V2000
    3.3095    1.0342    2.7886 C   0  0  0  0  0  0  0  0  0  0  0  0
    3.0322    0.9155    1.3047 C   0  0  0  0  0  0  0  0  0  0  0  0
    2.7059   -0.4961    0.8721 C   0  0  0  0  0  0  0  0  0  0  0  0
    3.8201   -1.4807    1.0348 C   0  0  0  0  0  0  0  0  0  0  0  0
    4.8196   -1.7520    0.1704 C   0  0  0  0  0  0  0  0  0  0  0  0
    4.9600   -1.1052   -1.2019 C   0  0  0  0  0  0  0  0  0  0  0  0
    4.2755   -1.8802   -2.3001 C   0  0  0  0  0  0  0  0  0  0  0  0
    3.0236   -1.4533   -2.7904 C   0  0  0  0  0  0  0  0  0  0  0  0
    2.4017   -2.1957   -3.8011 C   0  0  0  0  0  0  0  0  0  0  0  0
    2.9945   -3.2956   -4.3303 N   0  0  0  0  0  0  0  0  0  0  0  0
    4.2096   -3.7217   -3.8890 C   0  0  0  0  0  0  0  0  0  0  0  0
    4.8786   -3.0293   -2.8699 C   0  0  0  0  0  0  0  0  0  0  0  0
    5.9048   -2.6933    0.5128 C   0  0  0  0  0  0  0  0  0  0  0  0
    6.8558   -2.8428   -0.2438 O   0  0  0  0  0  0  0  0  0  0  0  0
    5.7829   -3.3381    1.7280 N   0  0  0  0  0  0  0  0  0  0  0  0
    6.7932   -4.4059    2.0510 C   0  0  0  0  0  0  0  0  0  0  0  0
    6.9377   -5.5072    0.9853 C   0  0  0  0  0  0  0  0  0  0  0  0
    5.6330   -6.2936    0.8358 C   0  0  0  0  0  0  0  0  0  0  0  0
    5.2641   -6.9879    2.1557 C   0  0  0  0  0  0  0  0  0  0  0  0
    5.1699   -5.9941    3.2835 C   0  0  0  0  0  0  0  0  0  0  0  0
    6.4981   -5.1683    3.3989 C   0  0  0  0  0  0  0  0  0  0  0  0
    4.7474   -2.9550    2.6676 C   0  0  0  0  0  0  0  0  0  0  0  0
    4.5906   -3.2454    3.9523 N   0  0  0  0  0  0  0  0  0  0  0  0
    3.3016   -2.8355    4.1738 C   0  0  0  0  0  0  0  0  0  0  0  0
    2.8148   -2.0635    3.1996 N   0  0  0  0  0  0  0  0  0  0  0  0
    3.7800   -2.1507    2.2393 N   0  0  0  0  0  0  0  0  0  0  0  0
    3.5089    2.0659    3.0632 H   0  0  0  0  0  0  0  0  0  0  0  0
    4.1749    0.4329    3.0673 H   0  0  0  0  0  0  0  0  0  0  0  0
    2.4517    0.7019    3.3705 H   0  0  0  0  0  0  0  0  0  0  0  0
    2.1872    1.5508    1.0448 H   0  0  0  0  0  0  0  0  0  0  0  0
    3.8925    1.2675    0.7402 H   0  0  0  0  0  0  0  0  0  0  0  0
    1.7886   -0.8682    1.3288 H   0  0  0  0  0  0  0  0  0  0  0  0
    2.6288   -0.4562   -0.1864 H   0  0  0  0  0  0  0  0  0  0  0  0
    4.5658   -0.0988   -1.1635 H   0  0  0  0  0  0  0  0  0  0  0  0
    6.0048   -0.9787   -1.4694 H   0  0  0  0  0  0  0  0  0  0  0  0
    2.5332   -0.5770   -2.3856 H   0  0  0  0  0  0  0  0  0  0  0  0
    1.4587   -1.9454   -4.2754 H   0  0  0  0  0  0  0  0  0  0  0  0
    4.5803   -4.6104   -4.3836 H   0  0  0  0  0  0  0  0  0  0  0  0
    5.8381   -3.3903   -2.5285 H   0  0  0  0  0  0  0  0  0  0  0  0
    7.7654   -3.9080    2.0526 H   0  0  0  0  0  0  0  0  0  0  0  0
    7.2314   -5.1228    0.0186 H   0  0  0  0  0  0  0  0  0  0  0  0
    7.7868   -6.1533    1.2274 H   0  0  0  0  0  0  0  0  0  0  0  0
    4.8400   -5.6224    0.4842 H   0  0  0  0  0  0  0  0  0  0  0  0
    5.7506   -7.0357    0.0805 H   0  0  0  0  0  0  0  0  0  0  0  0
    4.3000   -7.4781    2.0364 H   0  0  0  0  0  0  0  0  0  0  0  0
    6.0215   -7.7135    2.4307 H   0  0  0  0  0  0  0  0  0  0  0  0
    4.2645   -5.4683    2.9741 H   0  0  0  0  0  0  0  0  0  0  0  0
    4.8960   -6.4230    4.2446 H   0  0  0  0  0  0  0  0  0  0  0  0
    7.3228   -5.7956    3.7434 H   0  0  0  0  0  0  0  0  0  0  0  0
    6.5132   -4.5060    4.2578 H   0  0  0  0  0  0  0  0  0  0  0  0
    2.8325   -3.1033    5.1185 H   0  0  0  0  0  0  0  0  0  0  0  0
    2.5097   -3.7748   -5.0416 H   0  0  0  0  0  0  0  0  0  0  0  0
  1  2  1  0
  1 27  1  0
  1 28  1  0
  1 29  1  0
  2  3  1  0
  2 30  1  0
  2 31  1  0
  3  4  1  0
  3 32  1  0
  3 33  1  0
  4 26  1  0
  4  5  2  0
  5  6  1  0
  5 13  1  0
  6  7  1  0
  6 34  1  0
  6 35  1  0
  7 12  1  0
  7  8  2  0
  8  9  1  0
  8 36  1  0
  9 10  2  0
  9 37  1  0
 10 11  1  0
 10 52  1  0
 11 12  2  0
 11 38  1  0
 12 39  1  0
 13 14  2  0
 13 15  1  0
 15 16  1  0
 15 22  1  0
 16 21  1  0
 16 17  1  0
 16 40  1  0
 17 18  1  0
 17 41  1  0
 17 42  1  0
 18 19  1  0
 18 43  1  0
 18 44  1  0
 19 20  1  0
 19 45  1  0
 19 46  1  0
 20 21  1  0
 20 47  1  0
 20 48  1  0
 21 49  1  0
 21 50  1  0
 22 26  1  0
 22 23  2  0
 23 24  1  0
 24 25  2  0
 24 51  1  0
 25 26  1  0
M  CHG  1  10   1
M  END
>  <i_m_ct_stereo_status>  (50) 
1

>  <s_m_source_file>  (50) 
/var/tmp/pbs.5076255.sched01/tmp6yc3ji7b/0haed4tc5.sdf

>  <i_m_source_file_index>  (50) 
21

>  <i_lp_mmshare_version>  (50) 
48012

>  <i_f3d_flags>  (50) 
0

>  <s_epik_input>  (50) 
W2NIXTFbY0hdbltjSF1bY0hdYzFbQ0gyXWMoYyhbQ0gyXVtDSDJdW0NIM10pbihjMjMpbltjSF1uMyljKD1PKW4yW0NIXTRbQ0gyXVtDSDJdW0NIMl1bQ0gyXVtDSDJdNA==

>  <s_epik_cmdline>  (50) 
J2VwaWtfcHl0aG9uJywgJy1waHQnLCAnMi4wJywgJy1waCcsICc3LjAnLCAnLXRuJywgJzgnLCAnLW1hJywgJzIwMCcsICctaW1hZScsICc8aW5maWxlLm1hZT4nLCAnLW9tYWUnLCAnPG91dGZpbGUubWFlPic=

>  <r_epik_Ionization_Penalty>  (50) 
1.71549

>  <r_epik_Ionization_Penalty_Charging>  (50) 
1.71544

>  <r_epik_Ionization_Penalty_Neutral>  (50) 
4.92062e-05

>  <r_epik_State_Penalty>  (50) 
1.82255

>  <r_epik_Charging_Adjusted_Penalty>  (50) 
3.53799

>  <i_epik_Tot_Q>  (50) 
1

>  <i_epik_Tot_abs_Q>  (50) 
1

>  <s_lp_Force_Field>  (50) 
OPLS3e

>  <r_lp_Energy>  (50) 
45.6794

>  <b_lp_Chiralities_Consistent>  (50) 
1

>  <s_lp_Variant>  (50) 
14:0-2

>  <s_i_glide_gridfile>  (50) 
pfpi4k_grid

>  <i_i_glide_lignum>  (50) 
21

>  <i_i_glide_rotatable_bonds>  (50) 
5

>  <r_i_docking_score>  (50) 
-2.39032

>  <r_i_glide_ligand_efficiency>  (50) 
-0.0919354

>  <r_i_glide_ligand_efficiency_sa>  (50) 
-0.272358

>  <r_i_glide_ligand_efficiency_ln>  (50) 
-0.561359

>  <r_i_glide_gscore>  (50) 
-2.39032

>  <r_i_glide_lipo>  (50) 
-0.785405

>  <r_i_glide_hbond>  (50) 
0

>  <r_i_glide_metal>  (50) 
-0

>  <r_i_glide_rewards>  (50) 
-1.12913

>  <r_i_glide_evdw>  (50) 
-13.3422

>  <r_i_glide_ecoul>  (50) 
-2.66089

>  <r_i_glide_erotb>  (50) 
0.614541

>  <r_i_glide_esite>  (50) 
-0.0240803

>  <r_i_glide_emodel>  (50) 
-13.9971

>  <r_i_glide_energy>  (50) 
-16.0031

>  <r_i_glide_einternal>  (50) 
1.1217

>  <r_i_glide_intrahb_reward>  (50) 
-0

>  <i_i_glide_confnum>  (50) 
4

>  <i_i_glide_posenum>  (50) 
17

>  <r_i_glide_eff_state_penalty>  (50) 
0

>  <ligand_id>  (50) 
14

>  <original_smiles>  (50) 
CCCc1c(Cc2ccncc2)c(=O)n(C2CCCCC2)c2ncnn12

>  <smiles>  (50) 
[H]c1nc2n(C3([H])C([H])([H])C([H])([H])C([H])([H])C([H])([H])C3([H])[H])c(=O)c(C([H])([H])c3c([H])c([H])[n+]([H])c([H])c3[H])c(C([H])([H])C([H])([H])C([H])([H])[H])n2n1

$$$$
14:1:2
     RDKit          3D

 52 55  0  0  1  0  0  0  0  0999 V2000
    1.3493    1.7176    1.6968 C   0  0  0  0  0  0  0  0  0  0  0  0
    2.6245    0.8650    1.7065 C   0  0  0  0  0  0  0  0  0  0  0  0
    2.4235   -0.4538    0.9972 C   0  0  0  0  0  0  0  0  0  0  0  0
    3.5728   -1.4159    1.1629 C   0  0  0  0  0  0  0  0  0  0  0  0
    4.5768   -1.6620    0.3049 C   0  0  0  0  0  0  0  0  0  0  0  0
    4.7261   -1.0100   -1.0655 C   0  0  0  0  0  0  0  0  0  0  0  0
    4.2270   -1.8768   -2.2071 C   0  0  0  0  0  0  0  0  0  0  0  0
    2.8957   -1.7572   -2.6417 C   0  0  0  0  0  0  0  0  0  0  0  0
    2.4181   -2.5775   -3.6925 C   0  0  0  0  0  0  0  0  0  0  0  0
    3.2700   -3.4335   -4.2847 N   0  0  0  0  0  0  0  0  0  0  0  0
    4.5476   -3.5712   -3.9154 C   0  0  0  0  0  0  0  0  0  0  0  0
    5.0755   -2.7943   -2.8601 C   0  0  0  0  0  0  0  0  0  0  0  0
    5.6842   -2.5931    0.6450 C   0  0  0  0  0  0  0  0  0  0  0  0
    6.6363   -2.7206   -0.1055 O   0  0  0  0  0  0  0  0  0  0  0  0
    5.5563   -3.2517    1.8475 N   0  0  0  0  0  0  0  0  0  0  0  0
    6.5630   -4.3251    2.1476 C   0  0  0  0  0  0  0  0  0  0  0  0
    6.7534   -5.3997    1.0756 C   0  0  0  0  0  0  0  0  0  0  0  0
    5.4763   -6.2018    0.9271 C   0  0  0  0  0  0  0  0  0  0  0  0
    5.1182   -6.9081    2.2432 C   0  0  0  0  0  0  0  0  0  0  0  0
    4.9944   -5.9252    3.3855 C   0  0  0  0  0  0  0  0  0  0  0  0
    6.3066   -5.0713    3.5096 C   0  0  0  0  0  0  0  0  0  0  0  0
    4.5230   -2.8874    2.7933 C   0  0  0  0  0  0  0  0  0  0  0  0
    4.3572   -3.2009    4.0666 N   0  0  0  0  0  0  0  0  0  0  0  0
    3.0877   -2.8034    4.2938 C   0  0  0  0  0  0  0  0  0  0  0  0
    2.5872   -2.0268    3.3371 N   0  0  0  0  0  0  0  0  0  0  0  0
    3.5497   -2.0866    2.3724 N   0  0  0  0  0  0  0  0  0  0  0  0
    1.5206    2.7434    2.0526 H   0  0  0  0  0  0  0  0  0  0  0  0
    0.5032    1.2552    2.1797 H   0  0  0  0  0  0  0  0  0  0  0  0
    0.8081    1.6840    0.7749 H   0  0  0  0  0  0  0  0  0  0  0  0
    3.4799    1.3416    1.2389 H   0  0  0  0  0  0  0  0  0  0  0  0
    2.8872    0.7207    2.7440 H   0  0  0  0  0  0  0  0  0  0  0  0
    1.5074   -0.9489    1.3100 H   0  0  0  0  0  0  0  0  0  0  0  0
    2.3398   -0.2174   -0.0300 H   0  0  0  0  0  0  0  0  0  0  0  0
    4.2169   -0.0564   -1.0643 H   0  0  0  0  0  0  0  0  0  0  0  0
    5.7600   -0.7391   -1.2565 H   0  0  0  0  0  0  0  0  0  0  0  0
    2.2532   -1.0528   -2.1758 H   0  0  0  0  0  0  0  0  0  0  0  0
    1.4105   -2.5462   -4.0788 H   0  0  0  0  0  0  0  0  0  0  0  0
    5.1380   -4.2828   -4.4738 H   0  0  0  0  0  0  0  0  0  0  0  0
    6.1016   -2.8955   -2.5691 H   0  0  0  0  0  0  0  0  0  0  0  0
    7.5249   -3.8358    2.0051 H   0  0  0  0  0  0  0  0  0  0  0  0
    7.0504   -4.9800    0.1231 H   0  0  0  0  0  0  0  0  0  0  0  0
    7.6206   -6.0145    1.3355 H   0  0  0  0  0  0  0  0  0  0  0  0
    4.6755   -5.5407    0.5878 H   0  0  0  0  0  0  0  0  0  0  0  0
    5.6195   -6.9305    0.1478 H   0  0  0  0  0  0  0  0  0  0  0  0
    4.1643   -7.4179    2.1244 H   0  0  0  0  0  0  0  0  0  0  0  0
    5.8877   -7.6214    2.5209 H   0  0  0  0  0  0  0  0  0  0  0  0
    4.0880   -5.3965    3.0847 H   0  0  0  0  0  0  0  0  0  0  0  0
    4.7319   -6.3673    4.3442 H   0  0  0  0  0  0  0  0  0  0  0  0
    7.1413   -5.6895    3.8468 H   0  0  0  0  0  0  0  0  0  0  0  0
    6.2994   -4.3812    4.3489 H   0  0  0  0  0  0  0  0  0  0  0  0
    2.6113   -3.0828    5.2294 H   0  0  0  0  0  0  0  0  0  0  0  0
    2.8982   -3.9948   -5.0540 H   0  0  0  0  0  0  0  0  0  0  0  0
  1  2  1  0
  1 27  1  0
  1 28  1  0
  1 29  1  0
  2  3  1  0
  2 30  1  0
  2 31  1  0
  3  4  1  0
  3 32  1  0
  3 33  1  0
  4 26  1  0
  4  5  2  0
  5  6  1  0
  5 13  1  0
  6  7  1  0
  6 34  1  0
  6 35  1  0
  7 12  1  0
  7  8  2  0
  8  9  1  0
  8 36  1  0
  9 10  2  0
  9 37  1  0
 10 11  1  0
 10 52  1  0
 11 12  2  0
 11 38  1  0
 12 39  1  0
 13 14  2  0
 13 15  1  0
 15 16  1  0
 15 22  1  0
 16 21  1  0
 16 17  1  0
 16 40  1  0
 17 18  1  0
 17 41  1  0
 17 42  1  0
 18 19  1  0
 18 43  1  0
 18 44  1  0
 19 20  1  0
 19 45  1  0
 19 46  1  0
 20 21  1  0
 20 47  1  0
 20 48  1  0
 21 49  1  0
 21 50  1  0
 22 26  1  0
 22 23  2  0
 23 24  1  0
 24 25  2  0
 24 51  1  0
 25 26  1  0
M  CHG  1  10   1
M  END
>  <i_m_ct_stereo_status>  (51) 
1

>  <s_m_source_file>  (51) 
/var/tmp/pbs.5076255.sched01/tmp6yc3ji7b/0haed4tc5.sdf

>  <i_m_source_file_index>  (51) 
21

>  <i_lp_mmshare_version>  (51) 
48012

>  <i_f3d_flags>  (51) 
0

>  <s_epik_input>  (51) 
W2NIXTFbY0hdbltjSF1bY0hdYzFbQ0gyXWMoYyhbQ0gyXVtDSDJdW0NIM10pbihjMjMpbltjSF1uMyljKD1PKW4yW0NIXTRbQ0gyXVtDSDJdW0NIMl1bQ0gyXVtDSDJdNA==

>  <s_epik_cmdline>  (51) 
J2VwaWtfcHl0aG9uJywgJy1waHQnLCAnMi4wJywgJy1waCcsICc3LjAnLCAnLXRuJywgJzgnLCAnLW1hJywgJzIwMCcsICctaW1hZScsICc8aW5maWxlLm1hZT4nLCAnLW9tYWUnLCAnPG91dGZpbGUubWFlPic=

>  <r_epik_Ionization_Penalty>  (51) 
1.71549

>  <r_epik_Ionization_Penalty_Charging>  (51) 
1.71544

>  <r_epik_Ionization_Penalty_Neutral>  (51) 
4.92062e-05

>  <r_epik_State_Penalty>  (51) 
1.82255

>  <r_epik_Charging_Adjusted_Penalty>  (51) 
3.53799

>  <i_epik_Tot_Q>  (51) 
1

>  <i_epik_Tot_abs_Q>  (51) 
1

>  <s_lp_Force_Field>  (51) 
OPLS3e

>  <r_lp_Energy>  (51) 
45.6794

>  <b_lp_Chiralities_Consistent>  (51) 
1

>  <s_lp_Variant>  (51) 
14:0-2

>  <s_i_glide_gridfile>  (51) 
pfpi4k_grid

>  <i_i_glide_lignum>  (51) 
21

>  <i_i_glide_rotatable_bonds>  (51) 
5

>  <r_i_docking_score>  (51) 
-1.71081

>  <r_i_glide_ligand_efficiency>  (51) 
-0.0658002

>  <r_i_glide_ligand_efficiency_sa>  (51) 
-0.194933

>  <r_i_glide_ligand_efficiency_ln>  (51) 
-0.401777

>  <r_i_glide_gscore>  (51) 
-1.71081

>  <r_i_glide_lipo>  (51) 
-0.790878

>  <r_i_glide_hbond>  (51) 
0

>  <r_i_glide_metal>  (51) 
-0

>  <r_i_glide_rewards>  (51) 
-1.102

>  <r_i_glide_evdw>  (51) 
-13.1308

>  <r_i_glide_ecoul>  (51) 
-2.78571

>  <r_i_glide_erotb>  (51) 
0.614541

>  <r_i_glide_esite>  (51) 
-0.0216517

>  <r_i_glide_emodel>  (51) 
-10.609

>  <r_i_glide_energy>  (51) 
-15.9165

>  <r_i_glide_einternal>  (51) 
0.11155

>  <r_i_glide_intrahb_reward>  (51) 
-0

>  <i_i_glide_confnum>  (51) 
4

>  <i_i_glide_posenum>  (51) 
35

>  <r_i_glide_eff_state_penalty>  (51) 
0

>  <ligand_id>  (51) 
14

>  <original_smiles>  (51) 
CCCc1c(Cc2ccncc2)c(=O)n(C2CCCCC2)c2ncnn12

>  <smiles>  (51) 
[H]c1nc2n(C3([H])C([H])([H])C([H])([H])C([H])([H])C([H])([H])C3([H])[H])c(=O)c(C([H])([H])c3c([H])c([H])[n+]([H])c([H])c3[H])c(C([H])([H])C([H])([H])C([H])([H])[H])n2n1

$$$$
15:0:0
     RDKit          3D

 21 22  0  0  1  0  0  0  0  0999 V2000
  -10.1736   -3.8597   -5.7563 C   0  0  0  0  0  0  0  0  0  0  0  0
   -8.8492   -4.0570   -5.7943 C   0  0  0  0  0  0  0  0  0  0  0  0
   -8.1509   -5.1167   -6.6292 C   0  0  0  0  0  0  0  0  0  0  0  0
   -7.0309   -5.7613   -5.9525 N   0  0  0  0  0  0  0  0  0  0  0  0
   -6.2013   -5.0312   -5.1516 N   0  0  0  0  0  0  0  0  0  0  0  0
   -5.2467   -5.8048   -4.7226 N   0  0  0  0  0  0  0  0  0  0  0  0
   -5.4376   -7.0638   -5.2590 C   0  0  0  0  0  0  0  0  0  0  0  0
   -4.6995   -8.2612   -5.1357 C   0  0  0  0  0  0  0  0  0  0  0  0
   -5.1095   -9.4257   -5.8223 C   0  0  0  0  0  0  0  0  0  0  0  0
   -6.2570   -9.4056   -6.6436 C   0  0  0  0  0  0  0  0  0  0  0  0
   -7.0016   -8.2164   -6.7731 C   0  0  0  0  0  0  0  0  0  0  0  0
   -6.5875   -7.0678   -6.0770 C   0  0  0  0  0  0  0  0  0  0  0  0
  -10.8614   -4.4577   -6.3346 H   0  0  0  0  0  0  0  0  0  0  0  0
  -10.5799   -3.0789   -5.1351 H   0  0  0  0  0  0  0  0  0  0  0  0
   -8.2179   -3.4131   -5.2011 H   0  0  0  0  0  0  0  0  0  0  0  0
   -8.8622   -5.8823   -6.9366 H   0  0  0  0  0  0  0  0  0  0  0  0
   -7.7801   -4.6531   -7.5439 H   0  0  0  0  0  0  0  0  0  0  0  0
   -3.8183   -8.2783   -4.5165 H   0  0  0  0  0  0  0  0  0  0  0  0
   -4.5316  -10.3329   -5.7091 H   0  0  0  0  0  0  0  0  0  0  0  0
   -6.5648  -10.3025   -7.1636 H   0  0  0  0  0  0  0  0  0  0  0  0
   -7.8800   -8.1904   -7.3981 H   0  0  0  0  0  0  0  0  0  0  0  0
  1  2  2  0
  1 13  1  0
  1 14  1  0
  2  3  1  0
  2 15  1  0
  3  4  1  0
  3 16  1  0
  3 17  1  0
  4 12  1  0
  4  5  1  0
  5  6  2  0
  6  7  1  0
  7 12  2  0
  7  8  1  0
  8  9  2  0
  8 18  1  0
  9 10  1  0
  9 19  1  0
 10 11  2  0
 10 20  1  0
 11 12  1  0
 11 21  1  0
M  END
>  <i_m_ct_stereo_status>  (52) 
1

>  <s_m_source_file>  (52) 
/var/tmp/pbs.5076255.sched01/tmp6yc3ji7b/0haed4tc5.sdf

>  <i_m_source_file_index>  (52) 
22

>  <i_lp_mmshare_version>  (52) 
48012

>  <i_f3d_flags>  (52) 
0

>  <s_epik_input>  (52) 
W0NIMl09W0NIXVtDSDJdbihubjEpYyhjMTIpW2NIXVtjSF1bY0hdW2NIXTI=

>  <s_epik_cmdline>  (52) 
J2VwaWtfcHl0aG9uJywgJy1waHQnLCAnMi4wJywgJy1waCcsICc3LjAnLCAnLXRuJywgJzgnLCAnLW1hJywgJzIwMCcsICctaW1hZScsICc8aW5maWxlLm1hZT4nLCAnLW9tYWUnLCAnPG91dGZpbGUubWFlPic=

>  <r_lp_tautomer_probability>  (52) 
1

>  <r_epik_Ionization_Penalty>  (52) 
5.97292e-06

>  <r_epik_Ionization_Penalty_Charging>  (52) 
0

>  <r_epik_Ionization_Penalty_Neutral>  (52) 
5.97292e-06

>  <r_epik_State_Penalty>  (52) 
-0

>  <r_epik_Charging_Adjusted_Penalty>  (52) 
0

>  <i_epik_Tot_Q>  (52) 
0

>  <i_epik_Tot_abs_Q>  (52) 
0

>  <s_lp_Force_Field>  (52) 
OPLS3e

>  <r_lp_Energy>  (52) 
10.4548

>  <b_lp_Chiralities_Consistent>  (52) 
1

>  <s_lp_Variant>  (52) 
15:0-1

>  <s_i_glide_gridfile>  (52) 
pfpi4k_grid

>  <i_i_glide_lignum>  (52) 
22

>  <i_i_glide_rotatable_bonds>  (52) 
2

>  <r_i_docking_score>  (52) 
-5.92106

>  <r_i_glide_ligand_efficiency>  (52) 
-0.493421

>  <r_i_glide_ligand_efficiency_sa>  (52) 
-1.12965

>  <r_i_glide_ligand_efficiency_ln>  (52) 
-1.69906

>  <r_i_glide_gscore>  (52) 
-5.92106

>  <r_i_glide_lipo>  (52) 
-2.16275

>  <r_i_glide_hbond>  (52) 
0

>  <r_i_glide_metal>  (52) 
-0

>  <r_i_glide_rewards>  (52) 
-2.88228

>  <r_i_glide_evdw>  (52) 
-23.8111

>  <r_i_glide_ecoul>  (52) 
-1.86176

>  <r_i_glide_erotb>  (52) 
0.593802

>  <r_i_glide_esite>  (52) 
0

>  <r_i_glide_emodel>  (52) 
-34.2625

>  <r_i_glide_energy>  (52) 
-25.6729

>  <r_i_glide_einternal>  (52) 
1.37496

>  <r_i_glide_intrahb_reward>  (52) 
-0

>  <i_i_glide_confnum>  (52) 
5

>  <i_i_glide_posenum>  (52) 
4

>  <r_i_glide_eff_state_penalty>  (52) 
0

>  <ligand_id>  (52) 
15

>  <original_smiles>  (52) 
C=CCn1nnc2ccccc21

>  <smiles>  (52) 
[H]C([H])=C([H])C([H])([H])n1nnc2c([H])c([H])c([H])c([H])c21

$$$$
15:0:1
     RDKit          3D

 21 22  0  0  1  0  0  0  0  0999 V2000
   -7.0468   -4.9310   -3.7079 C   0  0  0  0  0  0  0  0  0  0  0  0
   -7.7214   -5.0448   -4.8703 C   0  0  0  0  0  0  0  0  0  0  0  0
   -7.4609   -6.0283   -6.0151 C   0  0  0  0  0  0  0  0  0  0  0  0
   -6.3817   -6.9698   -5.8150 N   0  0  0  0  0  0  0  0  0  0  0  0
   -5.1679   -6.5395   -5.3487 N   0  0  0  0  0  0  0  0  0  0  0  0
   -4.3824   -7.5510   -5.1878 N   0  0  0  0  0  0  0  0  0  0  0  0
   -5.0350   -8.6761   -5.6775 C   0  0  0  0  0  0  0  0  0  0  0  0
   -4.6103  -10.0064   -5.8173 C   0  0  0  0  0  0  0  0  0  0  0  0
   -5.4501  -10.9615   -6.4263 C   0  0  0  0  0  0  0  0  0  0  0  0
   -6.7524  -10.5948   -6.8665 C   0  0  0  0  0  0  0  0  0  0  0  0
   -7.2019   -9.2695   -6.6956 C   0  0  0  0  0  0  0  0  0  0  0  0
   -6.3287   -8.3277   -6.1156 C   0  0  0  0  0  0  0  0  0  0  0  0
   -6.2259   -5.5775   -3.4530 H   0  0  0  0  0  0  0  0  0  0  0  0
   -7.3212   -4.1756   -2.9871 H   0  0  0  0  0  0  0  0  0  0  0  0
   -8.5524   -4.3714   -5.0414 H   0  0  0  0  0  0  0  0  0  0  0  0
   -8.3719   -6.5868   -6.2135 H   0  0  0  0  0  0  0  0  0  0  0  0
   -7.2580   -5.4652   -6.9262 H   0  0  0  0  0  0  0  0  0  0  0  0
   -3.6175  -10.2823   -5.4893 H   0  0  0  0  0  0  0  0  0  0  0  0
   -5.0986  -11.9762   -6.5648 H   0  0  0  0  0  0  0  0  0  0  0  0
   -7.3915  -11.3272   -7.3386 H   0  0  0  0  0  0  0  0  0  0  0  0
   -8.1799   -8.9743   -7.0292 H   0  0  0  0  0  0  0  0  0  0  0  0
  1  2  2  0
  1 13  1  0
  1 14  1  0
  2  3  1  0
  2 15  1  0
  3  4  1  0
  3 16  1  0
  3 17  1  0
  4 12  1  0
  4  5  1  0
  5  6  2  0
  6  7  1  0
  7 12  2  0
  7  8  1  0
  8  9  2  0
  8 18  1  0
  9 10  1  0
  9 19  1  0
 10 11  2  0
 10 20  1  0
 11 12  1  0
 11 21  1  0
M  END
>  <i_m_ct_stereo_status>  (53) 
1

>  <s_m_source_file>  (53) 
/var/tmp/pbs.5076255.sched01/tmp6yc3ji7b/0haed4tc5.sdf

>  <i_m_source_file_index>  (53) 
22

>  <i_lp_mmshare_version>  (53) 
48012

>  <i_f3d_flags>  (53) 
0

>  <s_epik_input>  (53) 
W0NIMl09W0NIXVtDSDJdbihubjEpYyhjMTIpW2NIXVtjSF1bY0hdW2NIXTI=

>  <s_epik_cmdline>  (53) 
J2VwaWtfcHl0aG9uJywgJy1waHQnLCAnMi4wJywgJy1waCcsICc3LjAnLCAnLXRuJywgJzgnLCAnLW1hJywgJzIwMCcsICctaW1hZScsICc8aW5maWxlLm1hZT4nLCAnLW9tYWUnLCAnPG91dGZpbGUubWFlPic=

>  <r_lp_tautomer_probability>  (53) 
1

>  <r_epik_Ionization_Penalty>  (53) 
5.97292e-06

>  <r_epik_Ionization_Penalty_Charging>  (53) 
0

>  <r_epik_Ionization_Penalty_Neutral>  (53) 
5.97292e-06

>  <r_epik_State_Penalty>  (53) 
-0

>  <r_epik_Charging_Adjusted_Penalty>  (53) 
0

>  <i_epik_Tot_Q>  (53) 
0

>  <i_epik_Tot_abs_Q>  (53) 
0

>  <s_lp_Force_Field>  (53) 
OPLS3e

>  <r_lp_Energy>  (53) 
10.4548

>  <b_lp_Chiralities_Consistent>  (53) 
1

>  <s_lp_Variant>  (53) 
15:0-1

>  <s_i_glide_gridfile>  (53) 
pfpi4k_grid

>  <i_i_glide_lignum>  (53) 
22

>  <i_i_glide_rotatable_bonds>  (53) 
2

>  <r_i_docking_score>  (53) 
-5.53382

>  <r_i_glide_ligand_efficiency>  (53) 
-0.461151

>  <r_i_glide_ligand_efficiency_sa>  (53) 
-1.05577

>  <r_i_glide_ligand_efficiency_ln>  (53) 
-1.58794

>  <r_i_glide_gscore>  (53) 
-5.53382

>  <r_i_glide_lipo>  (53) 
-1.97684

>  <r_i_glide_hbond>  (53) 
0

>  <r_i_glide_metal>  (53) 
-0

>  <r_i_glide_rewards>  (53) 
-2.97329

>  <r_i_glide_evdw>  (53) 
-21.1759

>  <r_i_glide_ecoul>  (53) 
-0.791278

>  <r_i_glide_erotb>  (53) 
0.593802

>  <r_i_glide_esite>  (53) 
0

>  <r_i_glide_emodel>  (53) 
-29.4671

>  <r_i_glide_energy>  (53) 
-21.9672

>  <r_i_glide_einternal>  (53) 
1.71565

>  <r_i_glide_intrahb_reward>  (53) 
-0

>  <i_i_glide_confnum>  (53) 
5

>  <i_i_glide_posenum>  (53) 
1

>  <r_i_glide_eff_state_penalty>  (53) 
0

>  <ligand_id>  (53) 
15

>  <original_smiles>  (53) 
C=CCn1nnc2ccccc21

>  <smiles>  (53) 
[H]C([H])=C([H])C([H])([H])n1nnc2c([H])c([H])c([H])c([H])c21

$$$$
15:0:2
     RDKit          3D

 21 22  0  0  1  0  0  0  0  0999 V2000
   -6.2667   -3.9353   -4.2056 C   0  0  0  0  0  0  0  0  0  0  0  0
   -6.6138   -4.2605   -5.4587 C   0  0  0  0  0  0  0  0  0  0  0  0
   -7.8245   -5.0972   -5.8317 C   0  0  0  0  0  0  0  0  0  0  0  0
   -7.4749   -6.3284   -6.5231 N   0  0  0  0  0  0  0  0  0  0  0  0
   -8.1442   -6.6778   -7.6592 N   0  0  0  0  0  0  0  0  0  0  0  0
   -7.6840   -7.8188   -8.0825 N   0  0  0  0  0  0  0  0  0  0  0  0
   -6.7085   -8.2456   -7.1944 C   0  0  0  0  0  0  0  0  0  0  0  0
   -5.9017   -9.4073   -7.1574 C   0  0  0  0  0  0  0  0  0  0  0  0
   -4.9706   -9.5932   -6.1105 C   0  0  0  0  0  0  0  0  0  0  0  0
   -4.8268   -8.6177   -5.1022 C   0  0  0  0  0  0  0  0  0  0  0  0
   -5.6247   -7.4603   -5.1226 C   0  0  0  0  0  0  0  0  0  0  0  0
   -6.5489   -7.2909   -6.1656 C   0  0  0  0  0  0  0  0  0  0  0  0
   -6.8467   -4.2585   -3.3522 H   0  0  0  0  0  0  0  0  0  0  0  0
   -5.3906   -3.3336   -4.0095 H   0  0  0  0  0  0  0  0  0  0  0  0
   -6.0013   -3.9095   -6.2778 H   0  0  0  0  0  0  0  0  0  0  0  0
   -8.3959   -5.3583   -4.9394 H   0  0  0  0  0  0  0  0  0  0  0  0
   -8.4770   -4.4963   -6.4699 H   0  0  0  0  0  0  0  0  0  0  0  0
   -5.9996  -10.1557   -7.9296 H   0  0  0  0  0  0  0  0  0  0  0  0
   -4.3605  -10.4855   -6.0803 H   0  0  0  0  0  0  0  0  0  0  0  0
   -4.1201   -8.7747   -4.3005 H   0  0  0  0  0  0  0  0  0  0  0  0
   -5.5350   -6.7212   -4.3457 H   0  0  0  0  0  0  0  0  0  0  0  0
  1  2  2  0
  1 13  1  0
  1 14  1  0
  2  3  1  0
  2 15  1  0
  3  4  1  0
  3 16  1  0
  3 17  1  0
  4 12  1  0
  4  5  1  0
  5  6  2  0
  6  7  1  0
  7 12  2  0
  7  8  1  0
  8  9  2  0
  8 18  1  0
  9 10  1  0
  9 19  1  0
 10 11  2  0
 10 20  1  0
 11 12  1  0
 11 21  1  0
M  END
>  <i_m_ct_stereo_status>  (54) 
1

>  <s_m_source_file>  (54) 
/var/tmp/pbs.5076255.sched01/tmp6yc3ji7b/0haed4tc5.sdf

>  <i_m_source_file_index>  (54) 
22

>  <i_lp_mmshare_version>  (54) 
48012

>  <i_f3d_flags>  (54) 
0

>  <s_epik_input>  (54) 
W0NIMl09W0NIXVtDSDJdbihubjEpYyhjMTIpW2NIXVtjSF1bY0hdW2NIXTI=

>  <s_epik_cmdline>  (54) 
J2VwaWtfcHl0aG9uJywgJy1waHQnLCAnMi4wJywgJy1waCcsICc3LjAnLCAnLXRuJywgJzgnLCAnLW1hJywgJzIwMCcsICctaW1hZScsICc8aW5maWxlLm1hZT4nLCAnLW9tYWUnLCAnPG91dGZpbGUubWFlPic=

>  <r_lp_tautomer_probability>  (54) 
1

>  <r_epik_Ionization_Penalty>  (54) 
5.97292e-06

>  <r_epik_Ionization_Penalty_Charging>  (54) 
0

>  <r_epik_Ionization_Penalty_Neutral>  (54) 
5.97292e-06

>  <r_epik_State_Penalty>  (54) 
-0

>  <r_epik_Charging_Adjusted_Penalty>  (54) 
0

>  <i_epik_Tot_Q>  (54) 
0

>  <i_epik_Tot_abs_Q>  (54) 
0

>  <s_lp_Force_Field>  (54) 
OPLS3e

>  <r_lp_Energy>  (54) 
10.4548

>  <b_lp_Chiralities_Consistent>  (54) 
1

>  <s_lp_Variant>  (54) 
15:0-1

>  <s_i_glide_gridfile>  (54) 
pfpi4k_grid

>  <i_i_glide_lignum>  (54) 
22

>  <i_i_glide_rotatable_bonds>  (54) 
2

>  <r_i_docking_score>  (54) 
-4.96757

>  <r_i_glide_ligand_efficiency>  (54) 
-0.413964

>  <r_i_glide_ligand_efficiency_sa>  (54) 
-0.947742

>  <r_i_glide_ligand_efficiency_ln>  (54) 
-1.42545

>  <r_i_glide_gscore>  (54) 
-4.96757

>  <r_i_glide_lipo>  (54) 
-2.18636

>  <r_i_glide_hbond>  (54) 
0

>  <r_i_glide_metal>  (54) 
-0

>  <r_i_glide_rewards>  (54) 
-2.16637

>  <r_i_glide_evdw>  (54) 
-21.5262

>  <r_i_glide_ecoul>  (54) 
-0.88223

>  <r_i_glide_erotb>  (54) 
0.593802

>  <r_i_glide_esite>  (54) 
0

>  <r_i_glide_emodel>  (54) 
-30.0945

>  <r_i_glide_energy>  (54) 
-22.4084

>  <r_i_glide_einternal>  (54) 
0.349193

>  <r_i_glide_intrahb_reward>  (54) 
-0

>  <i_i_glide_confnum>  (54) 
1

>  <i_i_glide_posenum>  (54) 
30

>  <r_i_glide_eff_state_penalty>  (54) 
0

>  <ligand_id>  (54) 
15

>  <original_smiles>  (54) 
C=CCn1nnc2ccccc21

>  <smiles>  (54) 
[H]C([H])=C([H])C([H])([H])n1nnc2c([H])c([H])c([H])c([H])c21

$$$$
16:0:0
     RDKit          3D

 30 32  0  0  1  0  0  0  0  0999 V2000
    3.5788   -2.7953   -2.6781 C   0  0  0  0  0  0  0  0  0  0  0  0
    4.6426   -3.3815   -1.7455 C   0  0  0  0  0  0  0  0  0  0  0  0
    5.8252   -3.2413   -2.0587 O   0  0  0  0  0  0  0  0  0  0  0  0
    4.2453   -4.0055   -0.6091 N   0  0  0  0  0  0  0  0  0  0  0  0
    5.2042   -4.5187    0.3855 C   0  0  0  0  0  0  0  0  0  0  0  0
    4.9674   -6.0230    0.5975 C   0  0  0  0  0  0  0  0  0  0  0  0
    3.5823   -6.2319    0.9406 N   0  0  0  0  0  0  0  0  0  0  0  0
    3.0096   -7.2675    1.6667 C   0  0  0  0  0  0  0  0  0  0  0  0
    1.6532   -7.0346    1.6740 C   0  0  0  0  0  0  0  0  0  0  0  0
    0.5785   -7.8055    2.2829 C   0  0  0  0  0  0  0  0  0  0  0  0
   -0.8120   -7.5243    2.2238 C   0  0  0  0  0  0  0  0  0  0  0  0
   -1.5266   -8.4205    2.8829 N   0  0  0  0  0  0  0  0  0  0  0  0
   -0.6095   -9.2922    3.3569 N   0  0  0  0  0  0  0  0  0  0  0  0
    0.6833   -8.9503    3.0177 C   0  0  0  0  0  0  0  0  0  0  0  0
    1.3964   -5.8627    0.9569 N   0  0  0  0  0  0  0  0  0  0  0  0
    2.5847   -5.4246    0.5575 C   0  0  0  0  0  0  0  0  0  0  0  0
    2.8226   -4.1706   -0.2387 C   0  0  0  0  0  0  0  0  0  0  0  0
   -0.8948  -10.0865    3.9257 H   0  0  0  0  0  0  0  0  0  0  0  0
    2.8781   -2.1715   -2.1220 H   0  0  0  0  0  0  0  0  0  0  0  0
    3.0184   -3.5909   -3.1709 H   0  0  0  0  0  0  0  0  0  0  0  0
    4.0330   -2.1742   -3.4513 H   0  0  0  0  0  0  0  0  0  0  0  0
    6.2460   -4.3451    0.1119 H   0  0  0  0  0  0  0  0  0  0  0  0
    5.0419   -3.9858    1.3249 H   0  0  0  0  0  0  0  0  0  0  0  0
    5.1692   -6.5786   -0.3190 H   0  0  0  0  0  0  0  0  0  0  0  0
    5.6017   -6.4242    1.3902 H   0  0  0  0  0  0  0  0  0  0  0  0
    3.5943   -8.0677    2.1001 H   0  0  0  0  0  0  0  0  0  0  0  0
   -1.3171   -6.7093    1.7325 H   0  0  0  0  0  0  0  0  0  0  0  0
    1.5483   -9.5275    3.3165 H   0  0  0  0  0  0  0  0  0  0  0  0
    2.5086   -3.3046    0.3433 H   0  0  0  0  0  0  0  0  0  0  0  0
    2.1731   -4.2534   -1.1083 H   0  0  0  0  0  0  0  0  0  0  0  0
  1  2  1  0
  1 19  1  0
  1 20  1  0
  1 21  1  0
  2  3  2  0
  2  4  1  0
  4 17  1  0
  4  5  1  0
  5  6  1  0
  5 22  1  0
  5 23  1  0
  6  7  1  0
  6 24  1  0
  6 25  1  0
  7 16  1  0
  7  8  1  0
  8  9  2  0
  8 26  1  0
  9 10  1  0
  9 15  1  0
 10 14  2  0
 10 11  1  0
 11 12  2  0
 11 27  1  0
 12 13  1  0
 13 18  1  0
 13 14  1  0
 14 28  1  0
 15 16  2  0
 16 17  1  0
 17 29  1  0
 17 30  1  0
M  END
>  <i_m_ct_stereo_status>  (55) 
1

>  <s_m_source_file>  (55) 
/var/tmp/pbs.5076255.sched01/tmp6yc3ji7b/0haed4tc5.sdf

>  <i_m_source_file_index>  (55) 
23

>  <i_lp_mmshare_version>  (55) 
48012

>  <i_f3d_flags>  (55) 
0

>  <s_epik_input>  (55) 
W0NIM11DKD1PKU4oW0NIMl1bQ0gyXTEpW0NIMl1jKG4xMiluYyhbY0hdMiktYzNbY0hdbltuSF1bY0hdMw==

>  <s_epik_cmdline>  (55) 
J2VwaWtfcHl0aG9uJywgJy1waHQnLCAnMi4wJywgJy1waCcsICc3LjAnLCAnLXRuJywgJzgnLCAnLW1hJywgJzIwMCcsICctaW1hZScsICc8aW5maWxlLm1hZT4nLCAnLW9tYWUnLCAnPG91dGZpbGUubWFlPic=

>  <r_lp_tautomer_probability>  (55) 
0.5

>  <r_epik_Ionization_Penalty>  (55) 
0.378676

>  <r_epik_Ionization_Penalty_Charging>  (55) 
0.378674

>  <r_epik_Ionization_Penalty_Neutral>  (55) 
1.52109e-06

>  <r_epik_State_Penalty>  (55) 
0.376593

>  <r_epik_Charging_Adjusted_Penalty>  (55) 
0.755267

>  <i_epik_Tot_Q>  (55) 
0

>  <i_epik_Tot_abs_Q>  (55) 
0

>  <s_lp_Force_Field>  (55) 
OPLS3e

>  <r_lp_Energy>  (55) 
27.7495

>  <b_lp_Chiralities_Consistent>  (55) 
1

>  <s_lp_Variant>  (55) 
16:0-1

>  <s_i_glide_gridfile>  (55) 
pfpi4k_grid

>  <i_i_glide_lignum>  (55) 
23

>  <i_i_glide_rotatable_bonds>  (55) 
2

>  <r_i_docking_score>  (55) 
-4.44109

>  <r_i_glide_ligand_efficiency>  (55) 
-0.26124

>  <r_i_glide_ligand_efficiency_sa>  (55) 
-0.671723

>  <r_i_glide_ligand_efficiency_ln>  (55) 
-1.15858

>  <r_i_glide_gscore>  (55) 
-4.44109

>  <r_i_glide_lipo>  (55) 
-0.227214

>  <r_i_glide_hbond>  (55) 
-0.314346

>  <r_i_glide_metal>  (55) 
-0

>  <r_i_glide_rewards>  (55) 
-1.91313

>  <r_i_glide_evdw>  (55) 
-25.3759

>  <r_i_glide_ecoul>  (55) 
-6.13014

>  <r_i_glide_erotb>  (55) 
0.319828

>  <r_i_glide_esite>  (55) 
-0.117907

>  <r_i_glide_emodel>  (55) 
-41.318

>  <r_i_glide_energy>  (55) 
-31.506

>  <r_i_glide_einternal>  (55) 
0.214801

>  <r_i_glide_intrahb_reward>  (55) 
-0

>  <i_i_glide_confnum>  (55) 
1

>  <i_i_glide_posenum>  (55) 
12

>  <r_i_glide_eff_state_penalty>  (55) 
0

>  <ligand_id>  (55) 
16

>  <original_smiles>  (55) 
CC(=O)N1CCn2cc(-c3cn[nH]c3)nc2C1

>  <smiles>  (55) 
[H]c1nn([H])c([H])c1-c1nc2n(c1[H])C([H])([H])C([H])([H])N(C(=O)C([H])([H])[H])C2([H])[H]

$$$$
16:0:1
     RDKit          3D

 30 32  0  0  1  0  0  0  0  0999 V2000
    5.8959   -2.9894   -2.0469 C   0  0  0  0  0  0  0  0  0  0  0  0
    4.4260   -3.3262   -1.8028 C   0  0  0  0  0  0  0  0  0  0  0  0
    3.6249   -3.0220   -2.6862 O   0  0  0  0  0  0  0  0  0  0  0  0
    4.0578   -3.9073   -0.6329 N   0  0  0  0  0  0  0  0  0  0  0  0
    5.0041   -4.3370    0.4160 C   0  0  0  0  0  0  0  0  0  0  0  0
    4.8544   -5.8530    0.6308 C   0  0  0  0  0  0  0  0  0  0  0  0
    3.4748   -6.1370    0.9370 N   0  0  0  0  0  0  0  0  0  0  0  0
    2.9496   -7.1892    1.6734 C   0  0  0  0  0  0  0  0  0  0  0  0
    1.5833   -7.0370    1.6522 C   0  0  0  0  0  0  0  0  0  0  0  0
    0.5461   -7.8710    2.2518 C   0  0  0  0  0  0  0  0  0  0  0  0
   -0.8510   -7.6346    2.2167 C   0  0  0  0  0  0  0  0  0  0  0  0
   -1.5266   -8.5751    2.8536 N   0  0  0  0  0  0  0  0  0  0  0  0
   -0.5766   -9.4341    3.2849 N   0  0  0  0  0  0  0  0  0  0  0  0
    0.7007   -9.0390    2.9425 C   0  0  0  0  0  0  0  0  0  0  0  0
    1.2717   -5.8912    0.9124 N   0  0  0  0  0  0  0  0  0  0  0  0
    2.4403   -5.4000    0.5128 C   0  0  0  0  0  0  0  0  0  0  0  0
    2.6327   -4.1479   -0.3103 C   0  0  0  0  0  0  0  0  0  0  0  0
   -0.8299  -10.2441    3.8465 H   0  0  0  0  0  0  0  0  0  0  0  0
    6.5437   -3.8495   -1.9015 H   0  0  0  0  0  0  0  0  0  0  0  0
    6.2097   -2.1975   -1.3691 H   0  0  0  0  0  0  0  0  0  0  0  0
    6.0474   -2.6553   -3.0734 H   0  0  0  0  0  0  0  0  0  0  0  0
    6.0526   -4.1181    0.2167 H   0  0  0  0  0  0  0  0  0  0  0  0
    4.7645   -3.8019    1.3387 H   0  0  0  0  0  0  0  0  0  0  0  0
    5.1220   -6.4065   -0.2726 H   0  0  0  0  0  0  0  0  0  0  0  0
    5.4844   -6.2033    1.4499 H   0  0  0  0  0  0  0  0  0  0  0  0
    3.5699   -7.9483    2.1321 H   0  0  0  0  0  0  0  0  0  0  0  0
   -1.3807   -6.8162    1.7619 H   0  0  0  0  0  0  0  0  0  0  0  0
    1.5841   -9.5931    3.2092 H   0  0  0  0  0  0  0  0  0  0  0  0
    2.2497   -3.2917    0.2408 H   0  0  0  0  0  0  0  0  0  0  0  0
    2.0303   -4.2588   -1.2119 H   0  0  0  0  0  0  0  0  0  0  0  0
  1  2  1  0
  1 19  1  0
  1 20  1  0
  1 21  1  0
  2  3  2  0
  2  4  1  0
  4 17  1  0
  4  5  1  0
  5  6  1  0
  5 22  1  0
  5 23  1  0
  6  7  1  0
  6 24  1  0
  6 25  1  0
  7 16  1  0
  7  8  1  0
  8  9  2  0
  8 26  1  0
  9 10  1  0
  9 15  1  0
 10 14  2  0
 10 11  1  0
 11 12  2  0
 11 27  1  0
 12 13  1  0
 13 18  1  0
 13 14  1  0
 14 28  1  0
 15 16  2  0
 16 17  1  0
 17 29  1  0
 17 30  1  0
M  END
>  <i_m_ct_stereo_status>  (56) 
1

>  <s_m_source_file>  (56) 
/var/tmp/pbs.5076255.sched01/tmp6yc3ji7b/0haed4tc5.sdf

>  <i_m_source_file_index>  (56) 
23

>  <i_lp_mmshare_version>  (56) 
48012

>  <i_f3d_flags>  (56) 
0

>  <s_epik_input>  (56) 
W0NIM11DKD1PKU4oW0NIMl1bQ0gyXTEpW0NIMl1jKG4xMiluYyhbY0hdMiktYzNbY0hdbltuSF1bY0hdMw==

>  <s_epik_cmdline>  (56) 
J2VwaWtfcHl0aG9uJywgJy1waHQnLCAnMi4wJywgJy1waCcsICc3LjAnLCAnLXRuJywgJzgnLCAnLW1hJywgJzIwMCcsICctaW1hZScsICc8aW5maWxlLm1hZT4nLCAnLW9tYWUnLCAnPG91dGZpbGUubWFlPic=

>  <r_lp_tautomer_probability>  (56) 
0.5

>  <r_epik_Ionization_Penalty>  (56) 
0.378676

>  <r_epik_Ionization_Penalty_Charging>  (56) 
0.378674

>  <r_epik_Ionization_Penalty_Neutral>  (56) 
1.52109e-06

>  <r_epik_State_Penalty>  (56) 
0.376593

>  <r_epik_Charging_Adjusted_Penalty>  (56) 
0.755267

>  <i_epik_Tot_Q>  (56) 
0

>  <i_epik_Tot_abs_Q>  (56) 
0

>  <s_lp_Force_Field>  (56) 
OPLS3e

>  <r_lp_Energy>  (56) 
27.7495

>  <b_lp_Chiralities_Consistent>  (56) 
1

>  <s_lp_Variant>  (56) 
16:0-1

>  <s_i_glide_gridfile>  (56) 
pfpi4k_grid

>  <i_i_glide_lignum>  (56) 
23

>  <i_i_glide_rotatable_bonds>  (56) 
2

>  <r_i_docking_score>  (56) 
-4.22239

>  <r_i_glide_ligand_efficiency>  (56) 
-0.248376

>  <r_i_glide_ligand_efficiency_sa>  (56) 
-0.638645

>  <r_i_glide_ligand_efficiency_ln>  (56) 
-1.10153

>  <r_i_glide_gscore>  (56) 
-4.22239

>  <r_i_glide_lipo>  (56) 
-0.298833

>  <r_i_glide_hbond>  (56) 
-0.308531

>  <r_i_glide_metal>  (56) 
-0

>  <r_i_glide_rewards>  (56) 
-1.87096

>  <r_i_glide_evdw>  (56) 
-24.459

>  <r_i_glide_ecoul>  (56) 
-4.77059

>  <r_i_glide_erotb>  (56) 
0.319828

>  <r_i_glide_esite>  (56) 
-0.125357

>  <r_i_glide_emodel>  (56) 
-38.356

>  <r_i_glide_energy>  (56) 
-29.2296

>  <r_i_glide_einternal>  (56) 
0.391812

>  <r_i_glide_intrahb_reward>  (56) 
-0

>  <i_i_glide_confnum>  (56) 
3

>  <i_i_glide_posenum>  (56) 
7

>  <r_i_glide_eff_state_penalty>  (56) 
0

>  <ligand_id>  (56) 
16

>  <original_smiles>  (56) 
CC(=O)N1CCn2cc(-c3cn[nH]c3)nc2C1

>  <smiles>  (56) 
[H]c1nn([H])c([H])c1-c1nc2n(c1[H])C([H])([H])C([H])([H])N(C(=O)C([H])([H])[H])C2([H])[H]

$$$$
16:0:2
     RDKit          3D

 30 32  0  0  1  0  0  0  0  0999 V2000
    5.1153   -3.2503   -2.5341 C   0  0  0  0  0  0  0  0  0  0  0  0
    5.0085   -2.4074   -1.2598 C   0  0  0  0  0  0  0  0  0  0  0  0
    5.8203   -1.4911   -1.1030 O   0  0  0  0  0  0  0  0  0  0  0  0
    4.0127   -2.6844   -0.3790 N   0  0  0  0  0  0  0  0  0  0  0  0
    3.7231   -1.8282    0.7808 C   0  0  0  0  0  0  0  0  0  0  0  0
    3.8171   -2.6615    2.0696 C   0  0  0  0  0  0  0  0  0  0  0  0
    2.9585   -3.8185    1.9402 N   0  0  0  0  0  0  0  0  0  0  0  0
    2.3482   -4.5713    2.9326 C   0  0  0  0  0  0  0  0  0  0  0  0
    1.6859   -5.5993    2.2988 C   0  0  0  0  0  0  0  0  0  0  0  0
    0.8633   -6.6664    2.8537 C   0  0  0  0  0  0  0  0  0  0  0  0
    0.3203   -6.7083    4.1649 C   0  0  0  0  0  0  0  0  0  0  0  0
   -0.3760   -7.8155    4.3646 N   0  0  0  0  0  0  0  0  0  0  0  0
   -0.2571   -8.5021    3.2045 N   0  0  0  0  0  0  0  0  0  0  0  0
    0.4833   -7.8314    2.2563 C   0  0  0  0  0  0  0  0  0  0  0  0
    1.8694   -5.4693    0.9212 N   0  0  0  0  0  0  0  0  0  0  0  0
    2.6356   -4.3922    0.7734 C   0  0  0  0  0  0  0  0  0  0  0  0
    3.0964   -3.8328   -0.5409 C   0  0  0  0  0  0  0  0  0  0  0  0
   -0.6627   -9.4239    3.0953 H   0  0  0  0  0  0  0  0  0  0  0  0
    4.1496   -3.3105   -3.0385 H   0  0  0  0  0  0  0  0  0  0  0  0
    5.4440   -4.2641   -2.3052 H   0  0  0  0  0  0  0  0  0  0  0  0
    5.8332   -2.8181   -3.2324 H   0  0  0  0  0  0  0  0  0  0  0  0
    4.3741   -0.9542    0.8448 H   0  0  0  0  0  0  0  0  0  0  0  0
    2.7072   -1.4424    0.6662 H   0  0  0  0  0  0  0  0  0  0  0  0
    4.8414   -3.0056    2.2322 H   0  0  0  0  0  0  0  0  0  0  0  0
    3.5209   -2.0787    2.9428 H   0  0  0  0  0  0  0  0  0  0  0  0
    2.4335   -4.3197    3.9784 H   0  0  0  0  0  0  0  0  0  0  0  0
    0.3964   -5.9808    4.9588 H   0  0  0  0  0  0  0  0  0  0  0  0
    0.6811   -8.2353    1.2739 H   0  0  0  0  0  0  0  0  0  0  0  0
    2.2352   -3.5302   -1.1383 H   0  0  0  0  0  0  0  0  0  0  0  0
    3.5956   -4.6545   -1.0408 H   0  0  0  0  0  0  0  0  0  0  0  0
  1  2  1  0
  1 19  1  0
  1 20  1  0
  1 21  1  0
  2  3  2  0
  2  4  1  0
  4 17  1  0
  4  5  1  0
  5  6  1  0
  5 22  1  0
  5 23  1  0
  6  7  1  0
  6 24  1  0
  6 25  1  0
  7 16  1  0
  7  8  1  0
  8  9  2  0
  8 26  1  0
  9 10  1  0
  9 15  1  0
 10 14  2  0
 10 11  1  0
 11 12  2  0
 11 27  1  0
 12 13  1  0
 13 18  1  0
 13 14  1  0
 14 28  1  0
 15 16  2  0
 16 17  1  0
 17 29  1  0
 17 30  1  0
M  END
>  <i_m_ct_stereo_status>  (57) 
1

>  <s_m_source_file>  (57) 
/var/tmp/pbs.5076255.sched01/tmp6yc3ji7b/0haed4tc5.sdf

>  <i_m_source_file_index>  (57) 
23

>  <i_lp_mmshare_version>  (57) 
48012

>  <i_f3d_flags>  (57) 
0

>  <s_epik_input>  (57) 
W0NIM11DKD1PKU4oW0NIMl1bQ0gyXTEpW0NIMl1jKG4xMiluYyhbY0hdMiktYzNbY0hdbltuSF1bY0hdMw==

>  <s_epik_cmdline>  (57) 
J2VwaWtfcHl0aG9uJywgJy1waHQnLCAnMi4wJywgJy1waCcsICc3LjAnLCAnLXRuJywgJzgnLCAnLW1hJywgJzIwMCcsICctaW1hZScsICc8aW5maWxlLm1hZT4nLCAnLW9tYWUnLCAnPG91dGZpbGUubWFlPic=

>  <r_lp_tautomer_probability>  (57) 
0.5

>  <r_epik_Ionization_Penalty>  (57) 
0.378676

>  <r_epik_Ionization_Penalty_Charging>  (57) 
0.378674

>  <r_epik_Ionization_Penalty_Neutral>  (57) 
1.52109e-06

>  <r_epik_State_Penalty>  (57) 
0.376593

>  <r_epik_Charging_Adjusted_Penalty>  (57) 
0.755267

>  <i_epik_Tot_Q>  (57) 
0

>  <i_epik_Tot_abs_Q>  (57) 
0

>  <s_lp_Force_Field>  (57) 
OPLS3e

>  <r_lp_Energy>  (57) 
27.7495

>  <b_lp_Chiralities_Consistent>  (57) 
1

>  <s_lp_Variant>  (57) 
16:0-1

>  <s_i_glide_gridfile>  (57) 
pfpi4k_grid

>  <i_i_glide_lignum>  (57) 
23

>  <i_i_glide_rotatable_bonds>  (57) 
2

>  <r_i_docking_score>  (57) 
-3.88877

>  <r_i_glide_ligand_efficiency>  (57) 
-0.228751

>  <r_i_glide_ligand_efficiency_sa>  (57) 
-0.588183

>  <r_i_glide_ligand_efficiency_ln>  (57) 
-1.01449

>  <r_i_glide_gscore>  (57) 
-3.88877

>  <r_i_glide_lipo>  (57) 
-0.19628

>  <r_i_glide_hbond>  (57) 
-0.145097

>  <r_i_glide_metal>  (57) 
-0

>  <r_i_glide_rewards>  (57) 
-1.83236

>  <r_i_glide_evdw>  (57) 
-20.943

>  <r_i_glide_ecoul>  (57) 
-5.91592

>  <r_i_glide_erotb>  (57) 
0.319828

>  <r_i_glide_esite>  (57) 
-0.100321

>  <r_i_glide_emodel>  (57) 
-35.1856

>  <r_i_glide_energy>  (57) 
-26.8589

>  <r_i_glide_einternal>  (57) 
0.659177

>  <r_i_glide_intrahb_reward>  (57) 
-0

>  <i_i_glide_confnum>  (57) 
2

>  <i_i_glide_posenum>  (57) 
29

>  <r_i_glide_eff_state_penalty>  (57) 
0

>  <ligand_id>  (57) 
16

>  <original_smiles>  (57) 
CC(=O)N1CCn2cc(-c3cn[nH]c3)nc2C1

>  <smiles>  (57) 
[H]c1nn([H])c([H])c1-c1nc2n(c1[H])C([H])([H])C([H])([H])N(C(=O)C([H])([H])[H])C2([H])[H]

$$$$
16:1:0
     RDKit          3D

 31 33  0  0  1  0  0  0  0  0999 V2000
   -2.2530    3.1796    2.8825 C   0  0  0  0  0  0  0  0  0  0  0  0
   -1.3029    2.7750    4.0080 C   0  0  0  0  0  0  0  0  0  0  0  0
   -1.3402    3.4271    5.0527 O   0  0  0  0  0  0  0  0  0  0  0  0
   -0.4953    1.7022    3.8292 N   0  0  0  0  0  0  0  0  0  0  0  0
    0.3182    1.1558    4.9277 C   0  0  0  0  0  0  0  0  0  0  0  0
    1.7957    1.4202    4.6031 C   0  0  0  0  0  0  0  0  0  0  0  0
    2.1288    0.8363    3.2993 N   0  0  0  0  0  0  0  0  0  0  0  0
    3.3445    0.4126    2.8377 C   0  0  0  0  0  0  0  0  0  0  0  0
    3.1499   -0.0320    1.5522 C   0  0  0  0  0  0  0  0  0  0  0  0
    4.1160   -0.5893    0.5960 C   0  0  0  0  0  0  0  0  0  0  0  0
    5.5269   -0.6887    0.7636 C   0  0  0  0  0  0  0  0  0  0  0  0
    6.1121   -1.2170   -0.3046 N   0  0  0  0  0  0  0  0  0  0  0  0
    5.0931   -1.4570   -1.1565 N   0  0  0  0  0  0  0  0  0  0  0  0
    3.8673   -1.0917   -0.6485 C   0  0  0  0  0  0  0  0  0  0  0  0
    1.8122    0.1447    1.2793 N   0  0  0  0  0  0  0  0  0  0  0  0
    1.1964    0.6823    2.3469 C   0  0  0  0  0  0  0  0  0  0  0  0
   -0.2599    1.0475    2.5202 C   0  0  0  0  0  0  0  0  0  0  0  0
    5.2413   -1.8766   -2.0629 H   0  0  0  0  0  0  0  0  0  0  0  0
   -2.7511    2.3104    2.4508 H   0  0  0  0  0  0  0  0  0  0  0  0
   -1.7110    3.7011    2.0962 H   0  0  0  0  0  0  0  0  0  0  0  0
   -3.0196    3.8564    3.2614 H   0  0  0  0  0  0  0  0  0  0  0  0
    0.0685    1.5819    5.9006 H   0  0  0  0  0  0  0  0  0  0  0  0
    0.1414    0.0824    5.0247 H   0  0  0  0  0  0  0  0  0  0  0  0
    1.9903    2.4944    4.5545 H   0  0  0  0  0  0  0  0  0  0  0  0
    2.4511    0.9960    5.3644 H   0  0  0  0  0  0  0  0  0  0  0  0
    4.2333    0.4578    3.4446 H   0  0  0  0  0  0  0  0  0  0  0  0
    6.1418   -0.3916    1.6033 H   0  0  0  0  0  0  0  0  0  0  0  0
    2.9574   -1.2129   -1.2162 H   0  0  0  0  0  0  0  0  0  0  0  0
   -0.8485    0.1373    2.4602 H   0  0  0  0  0  0  0  0  0  0  0  0
   -0.4938    1.6796    1.6650 H   0  0  0  0  0  0  0  0  0  0  0  0
    1.3610   -0.1348    0.3957 H   0  0  0  0  0  0  0  0  0  0  0  0
  1  2  1  0
  1 19  1  0
  1 20  1  0
  1 21  1  0
  2  3  2  0
  2  4  1  0
  4 17  1  0
  4  5  1  0
  5  6  1  0
  5 22  1  0
  5 23  1  0
  6  7  1  0
  6 24  1  0
  6 25  1  0
  7 16  1  0
  7  8  1  0
  8  9  2  0
  8 26  1  0
  9 10  1  0
  9 15  1  0
 10 14  2  0
 10 11  1  0
 11 12  2  0
 11 27  1  0
 12 13  1  0
 13 18  1  0
 13 14  1  0
 14 28  1  0
 15 16  2  0
 15 31  1  0
 16 17  1  0
 17 29  1  0
 17 30  1  0
M  CHG  1  15   1
M  END
>  <i_m_ct_stereo_status>  (58) 
1

>  <s_m_source_file>  (58) 
/var/tmp/pbs.5076255.sched01/tmp6yc3ji7b/0haed4tc5.sdf

>  <i_m_source_file_index>  (58) 
24

>  <i_lp_mmshare_version>  (58) 
48012

>  <i_f3d_flags>  (58) 
0

>  <s_epik_input>  (58) 
W0NIM11DKD1PKU4oW0NIMl1bQ0gyXTEpW0NIMl1jKG4xMiluYyhbY0hdMiktYzNbY0hdbltuSF1bY0hdMw==

>  <s_epik_cmdline>  (58) 
J2VwaWtfcHl0aG9uJywgJy1waHQnLCAnMi4wJywgJy1waCcsICc3LjAnLCAnLXRuJywgJzgnLCAnLW1hJywgJzIwMCcsICctaW1hZScsICc8aW5maWxlLm1hZT4nLCAnLW9tYWUnLCAnPG91dGZpbGUubWFlPic=

>  <r_lp_tautomer_probability>  (58) 
0.5

>  <r_epik_Ionization_Penalty>  (58) 
0.444515

>  <r_epik_Ionization_Penalty_Charging>  (58) 
0

>  <r_epik_Ionization_Penalty_Neutral>  (58) 
0.444515

>  <r_epik_State_Penalty>  (58) 
0.446848

>  <r_epik_Charging_Adjusted_Penalty>  (58) 
0.446848

>  <i_epik_Tot_Q>  (58) 
1

>  <i_epik_Tot_abs_Q>  (58) 
1

>  <s_lp_Force_Field>  (58) 
OPLS3e

>  <r_lp_Energy>  (58) 
27.6621

>  <b_lp_Chiralities_Consistent>  (58) 
1

>  <s_lp_Variant>  (58) 
16:0-2

>  <s_i_glide_gridfile>  (58) 
pfpi4k_grid

>  <i_i_glide_lignum>  (58) 
24

>  <i_i_glide_rotatable_bonds>  (58) 
2

>  <r_i_docking_score>  (58) 
-4.6766

>  <r_i_glide_ligand_efficiency>  (58) 
-0.275094

>  <r_i_glide_ligand_efficiency_sa>  (58) 
-0.707344

>  <r_i_glide_ligand_efficiency_ln>  (58) 
-1.22002

>  <r_i_glide_gscore>  (58) 
-4.6766

>  <r_i_glide_lipo>  (58) 
-0.238917

>  <r_i_glide_hbond>  (58) 
-0.244878

>  <r_i_glide_metal>  (58) 
-0

>  <r_i_glide_rewards>  (58) 
-1.82549

>  <r_i_glide_evdw>  (58) 
-20.1214

>  <r_i_glide_ecoul>  (58) 
-9.67222

>  <r_i_glide_erotb>  (58) 
0.317474

>  <r_i_glide_esite>  (58) 
-0.227888

>  <r_i_glide_emodel>  (58) 
-41.1879

>  <r_i_glide_energy>  (58) 
-29.7936

>  <r_i_glide_einternal>  (58) 
0.116543

>  <r_i_glide_intrahb_reward>  (58) 
-0

>  <i_i_glide_confnum>  (58) 
3

>  <i_i_glide_posenum>  (58) 
35

>  <r_i_glide_eff_state_penalty>  (58) 
0

>  <ligand_id>  (58) 
16

>  <original_smiles>  (58) 
CC(=O)N1CCn2cc(-c3cn[nH]c3)nc2C1

>  <smiles>  (58) 
[H]c1nn([H])c([H])c1-c1c([H])n2c([n+]1[H])C([H])([H])N(C(=O)C([H])([H])[H])C([H])([H])C2([H])[H]

$$$$
16:1:1
     RDKit          3D

 31 33  0  0  1  0  0  0  0  0999 V2000
   -1.1480    3.9348    4.9381 C   0  0  0  0  0  0  0  0  0  0  0  0
   -1.2876    2.9680    3.7582 C   0  0  0  0  0  0  0  0  0  0  0  0
   -2.1077    3.2402    2.8819 O   0  0  0  0  0  0  0  0  0  0  0  0
   -0.4820    1.8788    3.7062 N   0  0  0  0  0  0  0  0  0  0  0  0
    0.3248    1.4140    4.8437 C   0  0  0  0  0  0  0  0  0  0  0  0
    1.7960    1.6709    4.4970 C   0  0  0  0  0  0  0  0  0  0  0  0
    2.1284    0.9887    3.2397 N   0  0  0  0  0  0  0  0  0  0  0  0
    3.3455    0.5413    2.8124 C   0  0  0  0  0  0  0  0  0  0  0  0
    3.1548   -0.0045    1.5652 C   0  0  0  0  0  0  0  0  0  0  0  0
    4.1306   -0.6243    0.6536 C   0  0  0  0  0  0  0  0  0  0  0  0
    5.5442   -0.6817    0.8237 C   0  0  0  0  0  0  0  0  0  0  0  0
    6.1360   -1.2886   -0.1975 N   0  0  0  0  0  0  0  0  0  0  0  0
    5.1190   -1.6223   -1.0205 N   0  0  0  0  0  0  0  0  0  0  0  0
    3.8877   -1.2399   -0.5406 C   0  0  0  0  0  0  0  0  0  0  0  0
    1.8174    0.1461    1.2774 N   0  0  0  0  0  0  0  0  0  0  0  0
    1.1946    0.7577    2.3036 C   0  0  0  0  0  0  0  0  0  0  0  0
   -0.2670    1.1141    2.4567 C   0  0  0  0  0  0  0  0  0  0  0  0
    5.2735   -2.1236   -1.8846 H   0  0  0  0  0  0  0  0  0  0  0  0
   -0.0980    4.1158    5.1757 H   0  0  0  0  0  0  0  0  0  0  0  0
   -1.6512    3.5423    5.8230 H   0  0  0  0  0  0  0  0  0  0  0  0
   -1.5882    4.9000    4.6905 H   0  0  0  0  0  0  0  0  0  0  0  0
    0.0729    1.8803    5.7944 H   0  0  0  0  0  0  0  0  0  0  0  0
    0.1546    0.3502    5.0100 H   0  0  0  0  0  0  0  0  0  0  0  0
    1.9820    2.7393    4.3599 H   0  0  0  0  0  0  0  0  0  0  0  0
    2.4578    1.3195    5.2884 H   0  0  0  0  0  0  0  0  0  0  0  0
    4.2341    0.6432    3.4149 H   0  0  0  0  0  0  0  0  0  0  0  0
    6.1564   -0.3027    1.6308 H   0  0  0  0  0  0  0  0  0  0  0  0
    2.9780   -1.4303   -1.0874 H   0  0  0  0  0  0  0  0  0  0  0  0
   -0.8446    0.1885    2.4635 H   0  0  0  0  0  0  0  0  0  0  0  0
   -0.5233    1.6968    1.5712 H   0  0  0  0  0  0  0  0  0  0  0  0
    1.3759   -0.1730    0.3965 H   0  0  0  0  0  0  0  0  0  0  0  0
  1  2  1  0
  1 19  1  0
  1 20  1  0
  1 21  1  0
  2  3  2  0
  2  4  1  0
  4 17  1  0
  4  5  1  0
  5  6  1  0
  5 22  1  0
  5 23  1  0
  6  7  1  0
  6 24  1  0
  6 25  1  0
  7 16  1  0
  7  8  1  0
  8  9  2  0
  8 26  1  0
  9 10  1  0
  9 15  1  0
 10 14  2  0
 10 11  1  0
 11 12  2  0
 11 27  1  0
 12 13  1  0
 13 18  1  0
 13 14  1  0
 14 28  1  0
 15 16  2  0
 15 31  1  0
 16 17  1  0
 17 29  1  0
 17 30  1  0
M  CHG  1  15   1
M  END
>  <i_m_ct_stereo_status>  (59) 
1

>  <s_m_source_file>  (59) 
/var/tmp/pbs.5076255.sched01/tmp6yc3ji7b/0haed4tc5.sdf

>  <i_m_source_file_index>  (59) 
24

>  <i_lp_mmshare_version>  (59) 
48012

>  <i_f3d_flags>  (59) 
0

>  <s_epik_input>  (59) 
W0NIM11DKD1PKU4oW0NIMl1bQ0gyXTEpW0NIMl1jKG4xMiluYyhbY0hdMiktYzNbY0hdbltuSF1bY0hdMw==

>  <s_epik_cmdline>  (59) 
J2VwaWtfcHl0aG9uJywgJy1waHQnLCAnMi4wJywgJy1waCcsICc3LjAnLCAnLXRuJywgJzgnLCAnLW1hJywgJzIwMCcsICctaW1hZScsICc8aW5maWxlLm1hZT4nLCAnLW9tYWUnLCAnPG91dGZpbGUubWFlPic=

>  <r_lp_tautomer_probability>  (59) 
0.5

>  <r_epik_Ionization_Penalty>  (59) 
0.444515

>  <r_epik_Ionization_Penalty_Charging>  (59) 
0

>  <r_epik_Ionization_Penalty_Neutral>  (59) 
0.444515

>  <r_epik_State_Penalty>  (59) 
0.446848

>  <r_epik_Charging_Adjusted_Penalty>  (59) 
0.446848

>  <i_epik_Tot_Q>  (59) 
1

>  <i_epik_Tot_abs_Q>  (59) 
1

>  <s_lp_Force_Field>  (59) 
OPLS3e

>  <r_lp_Energy>  (59) 
27.6621

>  <b_lp_Chiralities_Consistent>  (59) 
1

>  <s_lp_Variant>  (59) 
16:0-2

>  <s_i_glide_gridfile>  (59) 
pfpi4k_grid

>  <i_i_glide_lignum>  (59) 
24

>  <i_i_glide_rotatable_bonds>  (59) 
2

>  <r_i_docking_score>  (59) 
-4.48951

>  <r_i_glide_ligand_efficiency>  (59) 
-0.264089

>  <r_i_glide_ligand_efficiency_sa>  (59) 
-0.679046

>  <r_i_glide_ligand_efficiency_ln>  (59) 
-1.17121

>  <r_i_glide_gscore>  (59) 
-4.48951

>  <r_i_glide_lipo>  (59) 
-0.234851

>  <r_i_glide_hbond>  (59) 
-0.231049

>  <r_i_glide_metal>  (59) 
-0

>  <r_i_glide_rewards>  (59) 
-1.82549

>  <r_i_glide_evdw>  (59) 
-21.037

>  <r_i_glide_ecoul>  (59) 
-8.12834

>  <r_i_glide_erotb>  (59) 
0.317474

>  <r_i_glide_esite>  (59) 
-0.244493

>  <r_i_glide_emodel>  (59) 
-39.5031

>  <r_i_glide_energy>  (59) 
-29.1654

>  <r_i_glide_einternal>  (59) 
0.873963

>  <r_i_glide_intrahb_reward>  (59) 
-0

>  <i_i_glide_confnum>  (59) 
3

>  <i_i_glide_posenum>  (59) 
21

>  <r_i_glide_eff_state_penalty>  (59) 
0

>  <ligand_id>  (59) 
16

>  <original_smiles>  (59) 
CC(=O)N1CCn2cc(-c3cn[nH]c3)nc2C1

>  <smiles>  (59) 
[H]c1nn([H])c([H])c1-c1c([H])n2c([n+]1[H])C([H])([H])N(C(=O)C([H])([H])[H])C([H])([H])C2([H])[H]

$$$$
16:1:2
     RDKit          3D

 31 33  0  0  1  0  0  0  0  0999 V2000
   -2.1204    3.0975    5.6269 C   0  0  0  0  0  0  0  0  0  0  0  0
   -1.8330    2.7269    4.1709 C   0  0  0  0  0  0  0  0  0  0  0  0
   -2.2029    3.5086    3.2951 O   0  0  0  0  0  0  0  0  0  0  0  0
   -1.1676    1.5749    3.9034 N   0  0  0  0  0  0  0  0  0  0  0  0
   -0.7487    0.6070    4.9360 C   0  0  0  0  0  0  0  0  0  0  0  0
    0.7835    0.6936    5.0560 C   0  0  0  0  0  0  0  0  0  0  0  0
    1.3858    0.4154    3.7526 N   0  0  0  0  0  0  0  0  0  0  0  0
    2.6322   -0.0829    3.4672 C   0  0  0  0  0  0  0  0  0  0  0  0
    2.7258   -0.1494    2.0964 C   0  0  0  0  0  0  0  0  0  0  0  0
    3.8447   -0.6063    1.2528 C   0  0  0  0  0  0  0  0  0  0  0  0
    5.2241   -0.6580    1.6128 C   0  0  0  0  0  0  0  0  0  0  0  0
    5.9862   -1.0845    0.6147 N   0  0  0  0  0  0  0  0  0  0  0  0
    5.1144   -1.3314   -0.3828 N   0  0  0  0  0  0  0  0  0  0  0  0
    3.8110   -1.0534   -0.0383 C   0  0  0  0  0  0  0  0  0  0  0  0
    1.5236    0.3129    1.6183 N   0  0  0  0  0  0  0  0  0  0  0  0
    0.7221    0.6832    2.6232 C   0  0  0  0  0  0  0  0  0  0  0  0
   -0.6782    1.2474    2.5457 C   0  0  0  0  0  0  0  0  0  0  0  0
    5.4126   -1.6996   -1.2734 H   0  0  0  0  0  0  0  0  0  0  0  0
   -1.2536    2.9437    6.2694 H   0  0  0  0  0  0  0  0  0  0  0  0
   -2.9635    2.5276    6.0117 H   0  0  0  0  0  0  0  0  0  0  0  0
   -2.3761    4.1479    5.7039 H   0  0  0  0  0  0  0  0  0  0  0  0
   -1.1974    0.7563    5.9164 H   0  0  0  0  0  0  0  0  0  0  0  0
   -1.0531   -0.4004    4.6421 H   0  0  0  0  0  0  0  0  0  0  0  0
    1.0982    1.6986    5.3530 H   0  0  0  0  0  0  0  0  0  0  0  0
    1.1733   -0.0220    5.7803 H   0  0  0  0  0  0  0  0  0  0  0  0
    3.3373   -0.3579    4.2366 H   0  0  0  0  0  0  0  0  0  0  0  0
    5.6949   -0.3816    2.5485 H   0  0  0  0  0  0  0  0  0  0  0  0
    3.0076   -1.1924   -0.7445 H   0  0  0  0  0  0  0  0  0  0  0  0
   -1.3262    0.5104    2.0713 H   0  0  0  0  0  0  0  0  0  0  0  0
   -0.6146    2.1183    1.8924 H   0  0  0  0  0  0  0  0  0  0  0  0
    1.2496    0.3372    0.6381 H   0  0  0  0  0  0  0  0  0  0  0  0
  1  2  1  0
  1 19  1  0
  1 20  1  0
  1 21  1  0
  2  3  2  0
  2  4  1  0
  4 17  1  0
  4  5  1  0
  5  6  1  0
  5 22  1  0
  5 23  1  0
  6  7  1  0
  6 24  1  0
  6 25  1  0
  7 16  1  0
  7  8  1  0
  8  9  2  0
  8 26  1  0
  9 10  1  0
  9 15  1  0
 10 14  2  0
 10 11  1  0
 11 12  2  0
 11 27  1  0
 12 13  1  0
 13 18  1  0
 13 14  1  0
 14 28  1  0
 15 16  2  0
 15 31  1  0
 16 17  1  0
 17 29  1  0
 17 30  1  0
M  CHG  1  15   1
M  END
>  <i_m_ct_stereo_status>  (60) 
1

>  <s_m_source_file>  (60) 
/var/tmp/pbs.5076255.sched01/tmp6yc3ji7b/0haed4tc5.sdf

>  <i_m_source_file_index>  (60) 
24

>  <i_lp_mmshare_version>  (60) 
48012

>  <i_f3d_flags>  (60) 
0

>  <s_epik_input>  (60) 
W0NIM11DKD1PKU4oW0NIMl1bQ0gyXTEpW0NIMl1jKG4xMiluYyhbY0hdMiktYzNbY0hdbltuSF1bY0hdMw==

>  <s_epik_cmdline>  (60) 
J2VwaWtfcHl0aG9uJywgJy1waHQnLCAnMi4wJywgJy1waCcsICc3LjAnLCAnLXRuJywgJzgnLCAnLW1hJywgJzIwMCcsICctaW1hZScsICc8aW5maWxlLm1hZT4nLCAnLW9tYWUnLCAnPG91dGZpbGUubWFlPic=

>  <r_lp_tautomer_probability>  (60) 
0.5

>  <r_epik_Ionization_Penalty>  (60) 
0.444515

>  <r_epik_Ionization_Penalty_Charging>  (60) 
0

>  <r_epik_Ionization_Penalty_Neutral>  (60) 
0.444515

>  <r_epik_State_Penalty>  (60) 
0.446848

>  <r_epik_Charging_Adjusted_Penalty>  (60) 
0.446848

>  <i_epik_Tot_Q>  (60) 
1

>  <i_epik_Tot_abs_Q>  (60) 
1

>  <s_lp_Force_Field>  (60) 
OPLS3e

>  <r_lp_Energy>  (60) 
27.6621

>  <b_lp_Chiralities_Consistent>  (60) 
1

>  <s_lp_Variant>  (60) 
16:0-2

>  <s_i_glide_gridfile>  (60) 
pfpi4k_grid

>  <i_i_glide_lignum>  (60) 
24

>  <i_i_glide_rotatable_bonds>  (60) 
2

>  <r_i_docking_score>  (60) 
-3.72666

>  <r_i_glide_ligand_efficiency>  (60) 
-0.219215

>  <r_i_glide_ligand_efficiency_sa>  (60) 
-0.563664

>  <r_i_glide_ligand_efficiency_ln>  (60) 
-0.972203

>  <r_i_glide_gscore>  (60) 
-3.72666

>  <r_i_glide_lipo>  (60) 
-0.171262

>  <r_i_glide_hbond>  (60) 
-0.15354

>  <r_i_glide_metal>  (60) 
-0

>  <r_i_glide_rewards>  (60) 
-1.82549

>  <r_i_glide_evdw>  (60) 
-22.806

>  <r_i_glide_ecoul>  (60) 
-3.69333

>  <r_i_glide_erotb>  (60) 
0.317474

>  <r_i_glide_esite>  (60) 
-0.199544

>  <r_i_glide_emodel>  (60) 
-34.8395

>  <r_i_glide_energy>  (60) 
-26.4993

>  <r_i_glide_einternal>  (60) 
1.26646

>  <r_i_glide_intrahb_reward>  (60) 
-0

>  <i_i_glide_confnum>  (60) 
3

>  <i_i_glide_posenum>  (60) 
29

>  <r_i_glide_eff_state_penalty>  (60) 
0

>  <ligand_id>  (60) 
16

>  <original_smiles>  (60) 
CC(=O)N1CCn2cc(-c3cn[nH]c3)nc2C1

>  <smiles>  (60) 
[H]c1nn([H])c([H])c1-c1c([H])n2c([n+]1[H])C([H])([H])N(C(=O)C([H])([H])[H])C([H])([H])C2([H])[H]

$$$$
17:0:0
     RDKit          3D

 18 20  0  0  1  0  0  0  0  0999 V2000
    3.3780    3.2984    4.9054 N   0  0  0  0  0  0  0  0  0  0  0  0
    2.1210    3.0832    4.3424 C   0  0  0  0  0  0  0  0  0  0  0  0
    1.1695    3.9799    4.7145 N   0  0  0  0  0  0  0  0  0  0  0  0
   -0.0624    3.7684    4.1833 C   0  0  0  0  0  0  0  0  0  0  0  0
   -1.1508    4.5188    4.4096 N   0  0  0  0  0  0  0  0  0  0  0  0
   -2.1947    3.9374    3.6624 N   0  0  0  0  0  0  0  0  0  0  0  0
   -1.6758    2.8735    3.0400 C   0  0  0  0  0  0  0  0  0  0  0  0
   -0.3973    2.7740    3.3586 N   0  0  0  0  0  0  0  0  0  0  0  0
    0.5858    1.8729    2.9898 C   0  0  0  0  0  0  0  0  0  0  0  0
    0.4786    0.7352    2.1164 C   0  0  0  0  0  0  0  0  0  0  0  0
    1.6932    0.0769    2.0141 C   0  0  0  0  0  0  0  0  0  0  0  0
    3.0232    0.7619    2.9369 S   0  0  0  0  0  0  0  0  0  0  0  0
    1.9115    1.9800    3.4747 C   0  0  0  0  0  0  0  0  0  0  0  0
    4.1678    2.7088    4.6795 H   0  0  0  0  0  0  0  0  0  0  0  0
   -2.2153    2.2054    2.3826 H   0  0  0  0  0  0  0  0  0  0  0  0
   -0.4569    0.5002    1.6285 H   0  0  0  0  0  0  0  0  0  0  0  0
    1.8825   -0.7900    1.3969 H   0  0  0  0  0  0  0  0  0  0  0  0
    3.5368    4.0884    5.5169 H   0  0  0  0  0  0  0  0  0  0  0  0
  1  2  1  0
  1 14  1  0
  1 18  1  0
  2 13  1  0
  2  3  2  0
  3  4  1  0
  4  8  1  0
  4  5  2  0
  5  6  1  0
  6  7  2  0
  7  8  1  0
  7 15  1  0
  8  9  1  0
  9 13  2  0
  9 10  1  0
 10 11  2  0
 10 16  1  0
 11 12  1  0
 11 17  1  0
 12 13  1  0
M  END
>  <i_m_ct_stereo_status>  (61) 
1

>  <s_m_source_file>  (61) 
/var/tmp/pbs.5076255.sched01/tmp6yc3ji7b/0haed4tc5.sdf

>  <i_m_source_file_index>  (61) 
25

>  <i_lp_mmshare_version>  (61) 
48012

>  <i_f3d_flags>  (61) 
0

>  <s_epik_input>  (61) 
W2NIXTFbY0hdc2MoYyg9TlxbSF0pXFtuSF0yKWMxbihjMjMpW2NIXW5uMw==

>  <s_epik_cmdline>  (61) 
J2VwaWtfcHl0aG9uJywgJy1waHQnLCAnMi4wJywgJy1waCcsICc3LjAnLCAnLXRuJywgJzgnLCAnLW1hJywgJzIwMCcsICctaW1hZScsICc8aW5maWxlLm1hZT4nLCAnLW9tYWUnLCAnPG91dGZpbGUubWFlPic=

>  <r_lp_tautomer_probability>  (61) 
1

>  <r_epik_Ionization_Penalty>  (61) 
2.2737e-05

>  <r_epik_Ionization_Penalty_Charging>  (61) 
0

>  <r_epik_Ionization_Penalty_Neutral>  (61) 
2.2737e-05

>  <r_epik_State_Penalty>  (61) 
-0

>  <r_epik_Charging_Adjusted_Penalty>  (61) 
0

>  <i_epik_Tot_Q>  (61) 
0

>  <i_epik_Tot_abs_Q>  (61) 
0

>  <s_lp_Force_Field>  (61) 
OPLS3e

>  <r_lp_Energy>  (61) 
7.8393

>  <b_lp_Chiralities_Consistent>  (61) 
1

>  <s_lp_Variant>  (61) 
17:0-1

>  <s_i_glide_gridfile>  (61) 
pfpi4k_grid

>  <i_i_glide_lignum>  (61) 
25

>  <i_i_glide_rotatable_bonds>  (61) 
0

>  <r_i_docking_score>  (61) 
-4.02215

>  <r_i_glide_ligand_efficiency>  (61) 
-0.309396

>  <r_i_glide_ligand_efficiency_sa>  (61) 
-0.727493

>  <r_i_glide_ligand_efficiency_ln>  (61) 
-1.12825

>  <r_i_glide_gscore>  (61) 
-4.02215

>  <r_i_glide_lipo>  (61) 
-0.0221132

>  <r_i_glide_hbond>  (61) 
0

>  <r_i_glide_metal>  (61) 
-0

>  <r_i_glide_rewards>  (61) 
-2.10536

>  <r_i_glide_evdw>  (61) 
-15.6949

>  <r_i_glide_ecoul>  (61) 
-5.07589

>  <r_i_glide_erotb>  (61) 
0

>  <r_i_glide_esite>  (61) 
-0.348548

>  <r_i_glide_emodel>  (61) 
-26.5897

>  <r_i_glide_energy>  (61) 
-20.7708

>  <r_i_glide_einternal>  (61) 
0

>  <r_i_glide_intrahb_reward>  (61) 
-0

>  <i_i_glide_confnum>  (61) 
1

>  <i_i_glide_posenum>  (61) 
6

>  <r_i_glide_eff_state_penalty>  (61) 
0

>  <ligand_id>  (61) 
17

>  <original_smiles>  (61) 
N=c1[nH]c2nncn2c2ccsc12

>  <smiles>  (61) 
[H]c1sc2c(N([H])[H])nc3nnc([H])n3c2c1[H]

$$$$
17:0:1
     RDKit          3D

 18 20  0  0  1  0  0  0  0  0999 V2000
    2.9900    1.3563    3.1553 N   0  0  0  0  0  0  0  0  0  0  0  0
    1.6506    1.6015    3.4583 C   0  0  0  0  0  0  0  0  0  0  0  0
    1.2747    2.9057    3.3835 N   0  0  0  0  0  0  0  0  0  0  0  0
   -0.0267    3.1583    3.6891 C   0  0  0  0  0  0  0  0  0  0  0  0
   -0.6213    4.3615    3.7029 N   0  0  0  0  0  0  0  0  0  0  0  0
   -1.9621    4.1430    4.0805 N   0  0  0  0  0  0  0  0  0  0  0  0
   -2.0869    2.8285    4.2815 C   0  0  0  0  0  0  0  0  0  0  0  0
   -0.9272    2.2412    4.0527 N   0  0  0  0  0  0  0  0  0  0  0  0
   -0.5257    0.9196    4.1357 C   0  0  0  0  0  0  0  0  0  0  0  0
   -1.3025   -0.2338    4.5186 C   0  0  0  0  0  0  0  0  0  0  0  0
   -0.5254   -1.3825    4.4802 C   0  0  0  0  0  0  0  0  0  0  0  0
    1.1503   -1.1685    3.9832 S   0  0  0  0  0  0  0  0  0  0  0  0
    0.8019    0.5259    3.8366 C   0  0  0  0  0  0  0  0  0  0  0  0
    3.3780    0.4239    3.1560 H   0  0  0  0  0  0  0  0  0  0  0  0
   -2.9860    2.3363    4.5974 H   0  0  0  0  0  0  0  0  0  0  0  0
   -2.3474   -0.1318    4.7749 H   0  0  0  0  0  0  0  0  0  0  0  0
   -0.8600   -2.3818    4.7062 H   0  0  0  0  0  0  0  0  0  0  0  0
    3.6054    2.1076    2.8565 H   0  0  0  0  0  0  0  0  0  0  0  0
  1  2  1  0
  1 14  1  0
  1 18  1  0
  2 13  1  0
  2  3  2  0
  3  4  1  0
  4  8  1  0
  4  5  2  0
  5  6  1  0
  6  7  2  0
  7  8  1  0
  7 15  1  0
  8  9  1  0
  9 13  2  0
  9 10  1  0
 10 11  2  0
 10 16  1  0
 11 12  1  0
 11 17  1  0
 12 13  1  0
M  END
>  <i_m_ct_stereo_status>  (62) 
1

>  <s_m_source_file>  (62) 
/var/tmp/pbs.5076255.sched01/tmp6yc3ji7b/0haed4tc5.sdf

>  <i_m_source_file_index>  (62) 
25

>  <i_lp_mmshare_version>  (62) 
48012

>  <i_f3d_flags>  (62) 
0

>  <s_epik_input>  (62) 
W2NIXTFbY0hdc2MoYyg9TlxbSF0pXFtuSF0yKWMxbihjMjMpW2NIXW5uMw==

>  <s_epik_cmdline>  (62) 
J2VwaWtfcHl0aG9uJywgJy1waHQnLCAnMi4wJywgJy1waCcsICc3LjAnLCAnLXRuJywgJzgnLCAnLW1hJywgJzIwMCcsICctaW1hZScsICc8aW5maWxlLm1hZT4nLCAnLW9tYWUnLCAnPG91dGZpbGUubWFlPic=

>  <r_lp_tautomer_probability>  (62) 
1

>  <r_epik_Ionization_Penalty>  (62) 
2.2737e-05

>  <r_epik_Ionization_Penalty_Charging>  (62) 
0

>  <r_epik_Ionization_Penalty_Neutral>  (62) 
2.2737e-05

>  <r_epik_State_Penalty>  (62) 
-0

>  <r_epik_Charging_Adjusted_Penalty>  (62) 
0

>  <i_epik_Tot_Q>  (62) 
0

>  <i_epik_Tot_abs_Q>  (62) 
0

>  <s_lp_Force_Field>  (62) 
OPLS3e

>  <r_lp_Energy>  (62) 
7.8393

>  <b_lp_Chiralities_Consistent>  (62) 
1

>  <s_lp_Variant>  (62) 
17:0-1

>  <s_i_glide_gridfile>  (62) 
pfpi4k_grid

>  <i_i_glide_lignum>  (62) 
25

>  <i_i_glide_rotatable_bonds>  (62) 
0

>  <r_i_docking_score>  (62) 
-3.9565

>  <r_i_glide_ligand_efficiency>  (62) 
-0.304346

>  <r_i_glide_ligand_efficiency_sa>  (62) 
-0.71562

>  <r_i_glide_ligand_efficiency_ln>  (62) 
-1.10983

>  <r_i_glide_gscore>  (62) 
-3.9565

>  <r_i_glide_lipo>  (62) 
0

>  <r_i_glide_hbond>  (62) 
-0.250308

>  <r_i_glide_metal>  (62) 
-0

>  <r_i_glide_rewards>  (62) 
-2.10536

>  <r_i_glide_evdw>  (62) 
-15.0547

>  <r_i_glide_ecoul>  (62) 
-3.45843

>  <r_i_glide_erotb>  (62) 
0

>  <r_i_glide_esite>  (62) 
-0.329336

>  <r_i_glide_emodel>  (62) 
-24.2378

>  <r_i_glide_energy>  (62) 
-18.5131

>  <r_i_glide_einternal>  (62) 
0

>  <r_i_glide_intrahb_reward>  (62) 
-0

>  <i_i_glide_confnum>  (62) 
2

>  <i_i_glide_posenum>  (62) 
22

>  <r_i_glide_eff_state_penalty>  (62) 
0

>  <ligand_id>  (62) 
17

>  <original_smiles>  (62) 
N=c1[nH]c2nncn2c2ccsc12

>  <smiles>  (62) 
[H]c1sc2c(N([H])[H])nc3nnc([H])n3c2c1[H]

$$$$
17:0:2
     RDKit          3D

 18 20  0  0  1  0  0  0  0  0999 V2000
    1.2277    0.9425    1.7154 N   0  0  0  0  0  0  0  0  0  0  0  0
    0.6572    1.2502    2.9505 C   0  0  0  0  0  0  0  0  0  0  0  0
   -0.2640    0.3586    3.4001 N   0  0  0  0  0  0  0  0  0  0  0  0
   -0.8004    0.6317    4.6190 C   0  0  0  0  0  0  0  0  0  0  0  0
   -1.7155   -0.1097    5.2614 N   0  0  0  0  0  0  0  0  0  0  0  0
   -1.9784    0.5470    6.4795 N   0  0  0  0  0  0  0  0  0  0  0  0
   -1.1979    1.6350    6.5009 C   0  0  0  0  0  0  0  0  0  0  0  0
   -0.4931    1.6817    5.3825 N   0  0  0  0  0  0  0  0  0  0  0  0
    0.4458    2.5834    4.9132 C   0  0  0  0  0  0  0  0  0  0  0  0
    0.9414    3.7751    5.5497 C   0  0  0  0  0  0  0  0  0  0  0  0
    1.8791    4.4055    4.7434 C   0  0  0  0  0  0  0  0  0  0  0  0
    2.2292    3.6308    3.2023 S   0  0  0  0  0  0  0  0  0  0  0  0
    1.0738    2.4127    3.6540 C   0  0  0  0  0  0  0  0  0  0  0  0
    1.8694    1.5836    1.2695 H   0  0  0  0  0  0  0  0  0  0  0  0
   -1.1491    2.3546    7.3072 H   0  0  0  0  0  0  0  0  0  0  0  0
    0.5772    4.0676    6.5246 H   0  0  0  0  0  0  0  0  0  0  0  0
    2.4015    5.3221    4.9777 H   0  0  0  0  0  0  0  0  0  0  0  0
    0.8878    0.1763    1.1403 H   0  0  0  0  0  0  0  0  0  0  0  0
  1  2  1  0
  1 14  1  0
  1 18  1  0
  2 13  1  0
  2  3  2  0
  3  4  1  0
  4  8  1  0
  4  5  2  0
  5  6  1  0
  6  7  2  0
  7  8  1  0
  7 15  1  0
  8  9  1  0
  9 13  2  0
  9 10  1  0
 10 11  2  0
 10 16  1  0
 11 12  1  0
 11 17  1  0
 12 13  1  0
M  END
>  <i_m_ct_stereo_status>  (63) 
1

>  <s_m_source_file>  (63) 
/var/tmp/pbs.5076255.sched01/tmp6yc3ji7b/0haed4tc5.sdf

>  <i_m_source_file_index>  (63) 
25

>  <i_lp_mmshare_version>  (63) 
48012

>  <i_f3d_flags>  (63) 
0

>  <s_epik_input>  (63) 
W2NIXTFbY0hdc2MoYyg9TlxbSF0pXFtuSF0yKWMxbihjMjMpW2NIXW5uMw==

>  <s_epik_cmdline>  (63) 
J2VwaWtfcHl0aG9uJywgJy1waHQnLCAnMi4wJywgJy1waCcsICc3LjAnLCAnLXRuJywgJzgnLCAnLW1hJywgJzIwMCcsICctaW1hZScsICc8aW5maWxlLm1hZT4nLCAnLW9tYWUnLCAnPG91dGZpbGUubWFlPic=

>  <r_lp_tautomer_probability>  (63) 
1

>  <r_epik_Ionization_Penalty>  (63) 
2.2737e-05

>  <r_epik_Ionization_Penalty_Charging>  (63) 
0

>  <r_epik_Ionization_Penalty_Neutral>  (63) 
2.2737e-05

>  <r_epik_State_Penalty>  (63) 
-0

>  <r_epik_Charging_Adjusted_Penalty>  (63) 
0

>  <i_epik_Tot_Q>  (63) 
0

>  <i_epik_Tot_abs_Q>  (63) 
0

>  <s_lp_Force_Field>  (63) 
OPLS3e

>  <r_lp_Energy>  (63) 
7.8393

>  <b_lp_Chiralities_Consistent>  (63) 
1

>  <s_lp_Variant>  (63) 
17:0-1

>  <s_i_glide_gridfile>  (63) 
pfpi4k_grid

>  <i_i_glide_lignum>  (63) 
25

>  <i_i_glide_rotatable_bonds>  (63) 
0

>  <r_i_docking_score>  (63) 
-3.7156

>  <r_i_glide_ligand_efficiency>  (63) 
-0.285815

>  <r_i_glide_ligand_efficiency_sa>  (63) 
-0.672047

>  <r_i_glide_ligand_efficiency_ln>  (63) 
-1.04226

>  <r_i_glide_gscore>  (63) 
-3.7156

>  <r_i_glide_lipo>  (63) 
0

>  <r_i_glide_hbond>  (63) 
-0.083914

>  <r_i_glide_metal>  (63) 
-0

>  <r_i_glide_rewards>  (63) 
-2.10536

>  <r_i_glide_evdw>  (63) 
-15.3447

>  <r_i_glide_ecoul>  (63) 
-3.30475

>  <r_i_glide_erotb>  (63) 
0

>  <r_i_glide_esite>  (63) 
-0.263378

>  <r_i_glide_emodel>  (63) 
-24.0249

>  <r_i_glide_energy>  (63) 
-18.6495

>  <r_i_glide_einternal>  (63) 
0

>  <r_i_glide_intrahb_reward>  (63) 
-0

>  <i_i_glide_confnum>  (63) 
2

>  <i_i_glide_posenum>  (63) 
33

>  <r_i_glide_eff_state_penalty>  (63) 
0

>  <ligand_id>  (63) 
17

>  <original_smiles>  (63) 
N=c1[nH]c2nncn2c2ccsc12

>  <smiles>  (63) 
[H]c1sc2c(N([H])[H])nc3nnc([H])n3c2c1[H]

$$$$
18:0:0
     RDKit          3D

 72 77  0  0  1  0  0  0  0  0999 V2000
    5.0027   -2.3000    5.1216 C   0  0  0  0  0  0  0  0  0  0  0  0
    4.8373   -2.2046    6.6174 C   0  0  0  0  0  0  0  0  0  0  0  0
    3.9139   -3.3176    7.1900 C   0  0  0  0  0  0  0  0  0  0  0  0
    2.4232   -3.2532    6.7512 C   0  0  0  0  0  0  0  0  0  0  0  0
    1.5844   -4.3808    7.4291 C   0  0  0  0  0  0  0  0  0  0  0  0
    0.1147   -4.5430    6.9067 C   0  0  2  0  0  0  0  0  0  0  0  0
   -0.7022   -5.4879    7.8030 C   0  0  0  0  0  0  0  0  0  0  0  0
    0.0832   -5.0672    5.5404 N   0  0  0  0  0  0  0  0  0  0  0  0
    0.6866   -6.2541    5.2923 C   0  0  0  0  0  0  0  0  0  0  0  0
   -0.2988   -7.4333    4.9427 C   0  0  0  0  0  0  0  0  0  0  0  0
    0.1100   -8.4153    3.7464 C   0  0  2  0  0  0  0  0  0  0  0  0
    0.7277   -9.7433    4.2339 C   0  0  1  0  0  0  0  0  0  0  0  0
    1.4331  -10.5644    3.1330 C   0  0  0  0  0  0  0  0  0  0  0  0
    2.9405  -10.3001    2.9520 C   0  0  0  0  0  0  0  0  0  0  0  0
    3.3689   -8.8738    2.5675 C   0  0  0  0  0  0  0  0  0  0  0  0
    2.5246   -7.7138    3.1605 C   0  0  2  0  0  0  0  0  0  0  0  0
    2.7814   -6.3976    2.4321 C   0  0  0  0  0  0  0  0  0  0  0  0
    2.2200   -6.4063    1.1526 C   0  0  0  0  0  0  0  0  0  0  0  0
    2.2919   -5.2280    0.3783 C   0  0  0  0  0  0  0  0  0  0  0  0
    2.8126   -4.0590    1.0285 C   0  0  0  0  0  0  0  0  0  0  0  0
    2.9976   -4.0180    2.4228 C   0  0  0  0  0  0  0  0  0  0  0  0
    3.0292   -2.7762    2.9370 O   0  0  0  0  0  0  0  0  0  0  0  0
    2.9681   -5.2083    3.1962 C   0  0  0  0  0  0  0  0  0  0  0  0
    2.8436   -5.2728    4.5886 O   0  0  0  0  0  0  0  0  0  0  0  0
    2.0718   -6.3466    5.0519 C   0  0  0  0  0  0  0  0  0  0  0  0
    2.7903   -7.5801    4.6715 C   0  0  1  0  0  0  0  0  0  0  0  0
    2.7416   -8.7983    5.5587 N   0  0  1  0  0  0  0  0  0  0  0  0
    3.2753   -8.5492    6.9440 C   0  0  0  0  0  0  0  0  0  0  0  0
    3.7600   -9.8408    7.6381 C   0  0  0  0  0  0  0  0  0  0  0  0
    1.5175   -9.6524    5.5649 C   0  0  0  0  0  0  0  0  0  0  0  0
    1.0864   -7.4846    1.2482 C   0  0  0  0  0  0  0  0  0  0  0  0
    1.0451   -7.6968    2.7673 C   0  0  1  0  0  0  0  0  0  0  0  0
    5.5951   -1.5179    4.6654 H   0  0  0  0  0  0  0  0  0  0  0  0
    3.9918   -2.0855    4.8693 H   0  0  0  0  0  0  0  0  0  0  0  0
    5.3151   -3.2800    4.7713 H   0  0  0  0  0  0  0  0  0  0  0  0
    5.8231   -2.2209    7.1009 H   0  0  0  0  0  0  0  0  0  0  0  0
    4.3574   -1.2363    6.8239 H   0  0  0  0  0  0  0  0  0  0  0  0
    4.3411   -4.2979    6.9448 H   0  0  0  0  0  0  0  0  0  0  0  0
    3.9337   -3.2368    8.2832 H   0  0  0  0  0  0  0  0  0  0  0  0
    1.9920   -2.2704    6.9713 H   0  0  0  0  0  0  0  0  0  0  0  0
    2.3523   -3.3033    5.6623 H   0  0  0  0  0  0  0  0  0  0  0  0
    2.1192   -5.3341    7.3542 H   0  0  0  0  0  0  0  0  0  0  0  0
    1.5861   -4.2145    8.5135 H   0  0  0  0  0  0  0  0  0  0  0  0
   -0.3632   -3.5641    6.9698 H   0  0  0  0  0  0  0  0  0  0  0  0
   -0.7383   -5.1590    8.8449 H   0  0  0  0  0  0  0  0  0  0  0  0
   -0.2777   -6.4958    7.7933 H   0  0  0  0  0  0  0  0  0  0  0  0
   -1.7235   -5.5524    7.4297 H   0  0  0  0  0  0  0  0  0  0  0  0
   -0.5540   -7.9630    5.8568 H   0  0  0  0  0  0  0  0  0  0  0  0
   -1.2608   -6.9911    4.6469 H   0  0  0  0  0  0  0  0  0  0  0  0
   -0.8056   -8.6457    3.2148 H   0  0  0  0  0  0  0  0  0  0  0  0
   -0.1403  -10.3369    4.5137 H   0  0  0  0  0  0  0  0  0  0  0  0
    1.3250  -11.6182    3.3768 H   0  0  0  0  0  0  0  0  0  0  0  0
    0.9054  -10.4422    2.1932 H   0  0  0  0  0  0  0  0  0  0  0  0
    3.4744  -10.6153    3.8413 H   0  0  0  0  0  0  0  0  0  0  0  0
    3.3108  -10.9619    2.1771 H   0  0  0  0  0  0  0  0  0  0  0  0
    4.4126   -8.7143    2.8505 H   0  0  0  0  0  0  0  0  0  0  0  0
    3.3688   -8.7978    1.4837 H   0  0  0  0  0  0  0  0  0  0  0  0
    1.8363   -5.1450   -0.6201 H   0  0  0  0  0  0  0  0  0  0  0  0
    2.8552   -3.1450    0.4545 H   0  0  0  0  0  0  0  0  0  0  0  0
    3.2482   -2.0901    2.3245 H   0  0  0  0  0  0  0  0  0  0  0  0
    3.8453   -7.2884    4.7498 H   0  0  0  0  0  0  0  0  0  0  0  0
    4.1274   -7.8632    6.8958 H   0  0  0  0  0  0  0  0  0  0  0  0
    2.5222   -8.0482    7.5538 H   0  0  0  0  0  0  0  0  0  0  0  0
    4.2339   -9.5998    8.5884 H   0  0  0  0  0  0  0  0  0  0  0  0
    4.4944  -10.3764    7.0442 H   0  0  0  0  0  0  0  0  0  0  0  0
    2.9472  -10.5231    7.8666 H   0  0  0  0  0  0  0  0  0  0  0  0
    0.8825   -9.3807    6.4052 H   0  0  0  0  0  0  0  0  0  0  0  0
    1.8502  -10.6585    5.8233 H   0  0  0  0  0  0  0  0  0  0  0  0
    0.1483   -7.1097    0.8520 H   0  0  0  0  0  0  0  0  0  0  0  0
    1.4137   -8.3657    0.7251 H   0  0  0  0  0  0  0  0  0  0  0  0
    0.5898   -6.7156    2.9137 H   0  0  0  0  0  0  0  0  0  0  0  0
    3.4337   -9.3747    5.1329 H   0  0  0  0  0  0  0  0  0  0  0  0
  1  2  1  0
  1 33  1  0
  1 34  1  0
  1 35  1  0
  2  3  1  0
  2 36  1  0
  2 37  1  0
  3  4  1  0
  3 38  1  0
  3 39  1  0
  4  5  1  0
  4 40  1  0
  4 41  1  0
  5  6  1  0
  5 42  1  0
  5 43  1  0
  6  7  1  0
  6  8  1  0
  6 44  1  6
  7 45  1  0
  7 46  1  0
  7 47  1  0
  8  9  1  0
  9 25  2  0
  9 10  1  0
 10 11  1  0
 10 48  1  0
 10 49  1  0
 11 32  1  0
 11 12  1  0
 11 50  1  6
 12 30  1  0
 12 13  1  0
 12 51  1  1
 13 14  1  0
 13 52  1  0
 13 53  1  0
 14 15  1  0
 14 54  1  0
 14 55  1  0
 16 15  1  6
 15 56  1  0
 15 57  1  0
 16 26  1  0
 16 32  1  0
 16 17  1  0
 17 23  2  0
 17 18  1  0
 18 19  2  0
 18 31  1  0
 19 20  1  0
 19 58  1  0
 20 21  2  0
 20 59  1  0
 21 22  1  0
 21 23  1  0
 22 60  1  0
 23 24  1  0
 24 25  1  0
 25 26  1  0
 26 27  1  0
 26 61  1  6
 27 28  1  0
 27 30  1  0
 27 72  1  6
 28 29  1  0
 28 62  1  0
 28 63  1  0
 29 64  1  0
 29 65  1  0
 29 66  1  0
 30 67  1  0
 30 68  1  0
 31 32  1  0
 31 69  1  0
 31 70  1  0
 32 71  1  1
M  CHG  2   8  -1  27   1
M  END
>  <i_m_ct_stereo_status>  (64) 
1

>  <s_m_source_file>  (64) 
/var/tmp/pbs.5076255.sched01/tmp6yc3ji7b/0haed4tc5.sdf

>  <i_m_source_file_index>  (64) 
26

>  <i_lp_mmshare_version>  (64) 
48012

>  <i_f3d_flags>  (64) 
0

>  <s_epik_input>  (64) 
W0NIM11bQ0gyXVtDSDJdW0NIMl1bQ0gyXVtDQEhdKFtDSDNdKS9OPUMxL1tDSDJdW0NAQEhdKFtDQEBIXTJbQ0gyXTMpW0NAQEhdKFtDSDJdW0NIMl1bQ0gyXTQpW0NIMl1OKFtDSDJdW0NIM10pW0NAQEhdNVtDQEhdMU9jNmMoW09IXSlbY0hdW2NIXWMzYzZbQ0BAXTI0NQ==

>  <s_epik_cmdline>  (64) 
J2VwaWtfcHl0aG9uJywgJy1waHQnLCAnMi4wJywgJy1waCcsICc3LjAnLCAnLXRuJywgJzgnLCAnLW1hJywgJzIwMCcsICctaW1hZScsICc8aW5maWxlLm1hZT4nLCAnLW9tYWUnLCAnPG91dGZpbGUubWFlPic=

>  <r_epik_Ionization_Penalty>  (64) 
0.021755

>  <r_epik_Ionization_Penalty_Charging>  (64) 
0.00222283

>  <r_epik_Ionization_Penalty_Neutral>  (64) 
0.0195322

>  <r_epik_State_Penalty>  (64) 
0.0169696

>  <r_epik_Charging_Adjusted_Penalty>  (64) 
0.0191925

>  <i_epik_Tot_Q>  (64) 
0

>  <i_epik_Tot_abs_Q>  (64) 
2

>  <s_epik_Chemistry_Notes>  (64) 
This compound has an imine and may undergo hydrolysis.

>  <s_lp_Force_Field>  (64) 
OPLS3e

>  <r_lp_Energy>  (64) 
152.546

>  <b_lp_Chiralities_Consistent>  (64) 
1

>  <s_lp_Variant>  (64) 
18:0-1

>  <s_i_glide_gridfile>  (64) 
pfpi4k_grid

>  <i_i_glide_lignum>  (64) 
26

>  <i_i_glide_rotatable_bonds>  (64) 
8

>  <r_i_docking_score>  (64) 
-1.47792

>  <r_i_glide_ligand_efficiency>  (64) 
-0.0461849

>  <r_i_glide_ligand_efficiency_sa>  (64) 
-0.146628

>  <r_i_glide_ligand_efficiency_ln>  (64) 
-0.330946

>  <r_i_glide_gscore>  (64) 
-1.47792

>  <r_i_glide_lipo>  (64) 
-0.243971

>  <r_i_glide_hbond>  (64) 
0

>  <r_i_glide_metal>  (64) 
-0

>  <r_i_glide_rewards>  (64) 
-0.432072

>  <r_i_glide_evdw>  (64) 
-20.7142

>  <r_i_glide_ecoul>  (64) 
-1.84577

>  <r_i_glide_erotb>  (64) 
0.522816

>  <r_i_glide_esite>  (64) 
-0.0121145

>  <r_i_glide_emodel>  (64) 
-21.2861

>  <r_i_glide_energy>  (64) 
-22.56

>  <r_i_glide_einternal>  (64) 
4.24504

>  <r_i_glide_intrahb_reward>  (64) 
-0

>  <i_i_glide_confnum>  (64) 
4

>  <i_i_glide_posenum>  (64) 
14

>  <r_i_glide_eff_state_penalty>  (64) 
0

>  <ligand_id>  (64) 
18

>  <original_smiles>  (64) 
CCCCCC(C)N=C1CC2C3CCCC45c6c(ccc(O)c6OC1C4N(CC)C3)CC25

>  <smiles>  (64) 
[H]Oc1c([H])c([H])c2c3c1OC1=C([N-]C([H])(C([H])([H])[H])C([H])([H])C([H])([H])C([H])([H])C([H])([H])C([H])([H])[H])C([H])([H])C4([H])C([H])(C2([H])[H])C32C([H])([H])C([H])([H])C([H])([H])C4([H])C([H])([H])[N+]([H])(C([H])([H])C([H])([H])[H])C12[H]

$$$$
18:0:1
     RDKit          3D

 72 77  0  0  1  0  0  0  0  0999 V2000
    5.3586   -0.3606    2.1316 C   0  0  0  0  0  0  0  0  0  0  0  0
    4.1848   -0.4470    3.1323 C   0  0  0  0  0  0  0  0  0  0  0  0
    4.6251   -1.2010    4.3756 C   0  0  0  0  0  0  0  0  0  0  0  0
    3.4765   -1.6323    5.3184 C   0  0  0  0  0  0  0  0  0  0  0  0
    3.8974   -2.6290    6.4481 C   0  0  0  0  0  0  0  0  0  0  0  0
    4.3434   -4.0755    6.0545 C   0  0  2  0  0  0  0  0  0  0  0  0
    5.7459   -4.2061    5.3825 C   0  0  0  0  0  0  0  0  0  0  0  0
    3.2869   -4.6895    5.2432 N   0  0  0  0  0  0  0  0  0  0  0  0
    2.9768   -5.9767    5.4543 C   0  0  0  0  0  0  0  0  0  0  0  0
    1.8306   -6.2246    6.4935 C   0  0  0  0  0  0  0  0  0  0  0  0
    0.7278   -7.3181    6.1525 C   0  0  2  0  0  0  0  0  0  0  0  0
    0.9406   -8.6530    6.8955 C   0  0  1  0  0  0  0  0  0  0  0  0
    0.1003   -9.8239    6.3586 C   0  0  0  0  0  0  0  0  0  0  0  0
    0.7763  -10.6746    5.2566 C   0  0  0  0  0  0  0  0  0  0  0  0
    1.1749   -9.9646    3.9429 C   0  0  0  0  0  0  0  0  0  0  0  0
    1.6645   -8.4931    4.0656 C   0  0  2  0  0  0  0  0  0  0  0  0
    1.6789   -7.7600    2.7399 C   0  0  0  0  0  0  0  0  0  0  0  0
    0.3718   -7.5423    2.2767 C   0  0  0  0  0  0  0  0  0  0  0  0
    0.2229   -6.7732    1.1130 C   0  0  0  0  0  0  0  0  0  0  0  0
    1.3883   -6.2413    0.5060 C   0  0  0  0  0  0  0  0  0  0  0  0
    2.6486   -6.2663    1.1699 C   0  0  0  0  0  0  0  0  0  0  0  0
    3.6772   -5.5237    0.6595 O   0  0  0  0  0  0  0  0  0  0  0  0
    2.8112   -6.9783    2.3849 C   0  0  0  0  0  0  0  0  0  0  0  0
    3.8576   -6.7801    3.3055 O   0  0  0  0  0  0  0  0  0  0  0  0
    3.4489   -7.0094    4.6143 C   0  0  0  0  0  0  0  0  0  0  0  0
    3.0545   -8.4248    4.7082 C   0  0  1  0  0  0  0  0  0  0  0  0
    3.3050   -9.1766    5.9925 N   0  0  1  0  0  0  0  0  0  0  0  0
    4.7517   -9.2585    6.3819 C   0  0  0  0  0  0  0  0  0  0  0  0
    5.3591   -7.9374    6.8802 C   0  0  0  0  0  0  0  0  0  0  0  0
    2.4050   -9.0126    7.1747 C   0  0  0  0  0  0  0  0  0  0  0  0
   -0.4878   -7.5584    3.5734 C   0  0  0  0  0  0  0  0  0  0  0  0
    0.6389   -7.5297    4.6323 C   0  0  1  0  0  0  0  0  0  0  0  0
    5.0435    0.1891    1.2489 H   0  0  0  0  0  0  0  0  0  0  0  0
    5.7088   -1.3397    1.7920 H   0  0  0  0  0  0  0  0  0  0  0  0
    6.2102    0.1433    2.5885 H   0  0  0  0  0  0  0  0  0  0  0  0
    3.8017    0.5408    3.4108 H   0  0  0  0  0  0  0  0  0  0  0  0
    3.3785   -1.0302    2.6577 H   0  0  0  0  0  0  0  0  0  0  0  0
    5.0123   -2.0561    3.8517 H   0  0  0  0  0  0  0  0  0  0  0  0
    5.4267   -0.7146    4.9382 H   0  0  0  0  0  0  0  0  0  0  0  0
    3.0641   -0.7379    5.8003 H   0  0  0  0  0  0  0  0  0  0  0  0
    2.6365   -2.0602    4.7518 H   0  0  0  0  0  0  0  0  0  0  0  0
    4.6826   -2.1760    7.0565 H   0  0  0  0  0  0  0  0  0  0  0  0
    3.0442   -2.7225    7.1400 H   0  0  0  0  0  0  0  0  0  0  0  0
    4.4200   -4.6186    7.0043 H   0  0  0  0  0  0  0  0  0  0  0  0
    6.5015   -3.7501    6.0382 H   0  0  0  0  0  0  0  0  0  0  0  0
    5.8440   -3.7851    4.3857 H   0  0  0  0  0  0  0  0  0  0  0  0
    5.9788   -5.2549    5.1845 H   0  0  0  0  0  0  0  0  0  0  0  0
    2.2619   -6.3204    7.4874 H   0  0  0  0  0  0  0  0  0  0  0  0
    1.2848   -5.2771    6.5698 H   0  0  0  0  0  0  0  0  0  0  0  0
   -0.2139   -6.8957    6.4758 H   0  0  0  0  0  0  0  0  0  0  0  0
    0.5413   -8.4589    7.8882 H   0  0  0  0  0  0  0  0  0  0  0  0
   -0.1364  -10.4909    7.1875 H   0  0  0  0  0  0  0  0  0  0  0  0
   -0.8620   -9.4339    6.0361 H   0  0  0  0  0  0  0  0  0  0  0  0
    1.6403  -11.1919    5.6650 H   0  0  0  0  0  0  0  0  0  0  0  0
    0.1153  -11.5026    5.0118 H   0  0  0  0  0  0  0  0  0  0  0  0
    1.9436  -10.5674    3.4524 H   0  0  0  0  0  0  0  0  0  0  0  0
    0.3179  -10.0358    3.2771 H   0  0  0  0  0  0  0  0  0  0  0  0
   -0.7539   -6.5654    0.6946 H   0  0  0  0  0  0  0  0  0  0  0  0
    1.3027   -5.6956   -0.4280 H   0  0  0  0  0  0  0  0  0  0  0  0
    3.4952   -5.1401   -0.1950 H   0  0  0  0  0  0  0  0  0  0  0  0
    3.7222   -8.9478    4.0116 H   0  0  0  0  0  0  0  0  0  0  0  0
    4.8582  -10.0182    7.1561 H   0  0  0  0  0  0  0  0  0  0  0  0
    5.3325   -9.6488    5.5473 H   0  0  0  0  0  0  0  0  0  0  0  0
    6.3751   -8.0679    7.2398 H   0  0  0  0  0  0  0  0  0  0  0  0
    4.7888   -7.4782    7.6797 H   0  0  0  0  0  0  0  0  0  0  0  0
    5.4377   -7.2112    6.0852 H   0  0  0  0  0  0  0  0  0  0  0  0
    2.8131   -8.3094    7.8822 H   0  0  0  0  0  0  0  0  0  0  0  0
    2.4476   -9.9421    7.7392 H   0  0  0  0  0  0  0  0  0  0  0  0
   -1.1391   -6.6890    3.6587 H   0  0  0  0  0  0  0  0  0  0  0  0
   -1.1002   -8.4500    3.6304 H   0  0  0  0  0  0  0  0  0  0  0  0
    0.8702   -6.4913    4.3949 H   0  0  0  0  0  0  0  0  0  0  0  0
    3.0903  -10.1104    5.7179 H   0  0  0  0  0  0  0  0  0  0  0  0
  1  2  1  0
  1 33  1  0
  1 34  1  0
  1 35  1  0
  2  3  1  0
  2 36  1  0
  2 37  1  0
  3  4  1  0
  3 38  1  0
  3 39  1  0
  4  5  1  0
  4 40  1  0
  4 41  1  0
  5  6  1  0
  5 42  1  0
  5 43  1  0
  6  7  1  0
  6  8  1  0
  6 44  1  1
  7 45  1  0
  7 46  1  0
  7 47  1  0
  8  9  1  0
  9 25  2  0
  9 10  1  0
 10 11  1  0
 10 48  1  0
 10 49  1  0
 11 32  1  0
 11 12  1  0
 11 50  1  1
 12 30  1  0
 12 13  1  0
 12 51  1  1
 13 14  1  0
 13 52  1  0
 13 53  1  0
 14 15  1  0
 14 54  1  0
 14 55  1  0
 16 15  1  6
 15 56  1  0
 15 57  1  0
 16 26  1  0
 16 32  1  0
 16 17  1  0
 17 23  2  0
 17 18  1  0
 18 19  2  0
 18 31  1  0
 19 20  1  0
 19 58  1  0
 20 21  2  0
 20 59  1  0
 21 22  1  0
 21 23  1  0
 22 60  1  0
 23 24  1  0
 24 25  1  0
 25 26  1  0
 26 27  1  0
 26 61  1  6
 27 28  1  0
 27 30  1  0
 27 72  1  6
 28 29  1  0
 28 62  1  0
 28 63  1  0
 29 64  1  0
 29 65  1  0
 29 66  1  0
 30 67  1  0
 30 68  1  0
 31 32  1  0
 31 69  1  0
 31 70  1  0
 32 71  1  6
M  CHG  2   8  -1  27   1
M  END
>  <i_m_ct_stereo_status>  (65) 
1

>  <s_m_source_file>  (65) 
/var/tmp/pbs.5076255.sched01/tmp6yc3ji7b/0haed4tc5.sdf

>  <i_m_source_file_index>  (65) 
26

>  <i_lp_mmshare_version>  (65) 
48012

>  <i_f3d_flags>  (65) 
0

>  <s_epik_input>  (65) 
W0NIM11bQ0gyXVtDSDJdW0NIMl1bQ0gyXVtDQEhdKFtDSDNdKS9OPUMxL1tDSDJdW0NAQEhdKFtDQEBIXTJbQ0gyXTMpW0NAQEhdKFtDSDJdW0NIMl1bQ0gyXTQpW0NIMl1OKFtDSDJdW0NIM10pW0NAQEhdNVtDQEhdMU9jNmMoW09IXSlbY0hdW2NIXWMzYzZbQ0BAXTI0NQ==

>  <s_epik_cmdline>  (65) 
J2VwaWtfcHl0aG9uJywgJy1waHQnLCAnMi4wJywgJy1waCcsICc3LjAnLCAnLXRuJywgJzgnLCAnLW1hJywgJzIwMCcsICctaW1hZScsICc8aW5maWxlLm1hZT4nLCAnLW9tYWUnLCAnPG91dGZpbGUubWFlPic=

>  <r_epik_Ionization_Penalty>  (65) 
0.021755

>  <r_epik_Ionization_Penalty_Charging>  (65) 
0.00222283

>  <r_epik_Ionization_Penalty_Neutral>  (65) 
0.0195322

>  <r_epik_State_Penalty>  (65) 
0.0169696

>  <r_epik_Charging_Adjusted_Penalty>  (65) 
0.0191925

>  <i_epik_Tot_Q>  (65) 
0

>  <i_epik_Tot_abs_Q>  (65) 
2

>  <s_epik_Chemistry_Notes>  (65) 
This compound has an imine and may undergo hydrolysis.

>  <s_lp_Force_Field>  (65) 
OPLS3e

>  <r_lp_Energy>  (65) 
152.546

>  <b_lp_Chiralities_Consistent>  (65) 
1

>  <s_lp_Variant>  (65) 
18:0-1

>  <s_i_glide_gridfile>  (65) 
pfpi4k_grid

>  <i_i_glide_lignum>  (65) 
26

>  <i_i_glide_rotatable_bonds>  (65) 
8

>  <r_i_docking_score>  (65) 
-1.3951

>  <r_i_glide_ligand_efficiency>  (65) 
-0.0435969

>  <r_i_glide_ligand_efficiency_sa>  (65) 
-0.138412

>  <r_i_glide_ligand_efficiency_ln>  (65) 
-0.312401

>  <r_i_glide_gscore>  (65) 
-1.3951

>  <r_i_glide_lipo>  (65) 
-0.185659

>  <r_i_glide_hbond>  (65) 
0

>  <r_i_glide_metal>  (65) 
-0

>  <r_i_glide_rewards>  (65) 
-0.432072

>  <r_i_glide_evdw>  (65) 
-21.1529

>  <r_i_glide_ecoul>  (65) 
-1.50644

>  <r_i_glide_erotb>  (65) 
0.522816

>  <r_i_glide_esite>  (65) 
-0.0165751

>  <r_i_glide_emodel>  (65) 
-20.4253

>  <r_i_glide_energy>  (65) 
-22.6593

>  <r_i_glide_einternal>  (65) 
7.44796

>  <r_i_glide_intrahb_reward>  (65) 
-0

>  <i_i_glide_confnum>  (65) 
4

>  <i_i_glide_posenum>  (65) 
3

>  <r_i_glide_eff_state_penalty>  (65) 
0

>  <ligand_id>  (65) 
18

>  <original_smiles>  (65) 
CCCCCC(C)N=C1CC2C3CCCC45c6c(ccc(O)c6OC1C4N(CC)C3)CC25

>  <smiles>  (65) 
[H]Oc1c([H])c([H])c2c3c1OC1=C([N-]C([H])(C([H])([H])[H])C([H])([H])C([H])([H])C([H])([H])C([H])([H])C([H])([H])[H])C([H])([H])C4([H])C([H])(C2([H])[H])C32C([H])([H])C([H])([H])C([H])([H])C4([H])C([H])([H])[N+]([H])(C([H])([H])C([H])([H])[H])C12[H]

$$$$
18:1:0
     RDKit          3D

 73 78  0  0  1  0  0  0  0  0999 V2000
    0.4892    1.1959    3.0010 C   0  0  0  0  0  0  0  0  0  0  0  0
    1.4014    0.3412    2.1096 C   0  0  0  0  0  0  0  0  0  0  0  0
    2.1121   -0.7963    2.8599 C   0  0  0  0  0  0  0  0  0  0  0  0
    1.1460   -1.8761    3.3627 C   0  0  0  0  0  0  0  0  0  0  0  0
    1.8452   -2.9578    4.1935 C   0  0  0  0  0  0  0  0  0  0  0  0
    0.8673   -3.9864    4.7781 C   0  0  2  0  0  0  0  0  0  0  0  0
   -0.1629   -3.3831    5.7579 C   0  0  0  0  0  0  0  0  0  0  0  0
    1.6475   -5.0587    5.4054 N   0  0  0  0  0  0  0  0  0  0  0  0
    1.5481   -6.4503    5.3490 C   0  0  0  0  0  0  0  0  0  0  0  0
    0.4311   -7.0504    4.4422 C   0  0  0  0  0  0  0  0  0  0  0  0
    0.8360   -8.2715    3.5018 C   0  0  2  0  0  0  0  0  0  0  0  0
    0.3393   -9.6301    4.0328 C   0  0  1  0  0  0  0  0  0  0  0  0
    0.9784  -10.8476    3.3338 C   0  0  0  0  0  0  0  0  0  0  0  0
    2.2620  -11.3942    3.9936 C   0  0  0  0  0  0  0  0  0  0  0  0
    3.4727  -10.4422    4.0967 C   0  0  0  0  0  0  0  0  0  0  0  0
    3.1673   -8.9317    4.3456 C   0  0  2  0  0  0  0  0  0  0  0  0
    4.3487   -8.0370    4.0558 C   0  0  0  0  0  0  0  0  0  0  0  0
    4.6422   -8.0180    2.6710 C   0  0  0  0  0  0  0  0  0  0  0  0
    5.6410   -7.1168    2.2601 C   0  0  0  0  0  0  0  0  0  0  0  0
    6.2663   -6.2836    3.2187 C   0  0  0  0  0  0  0  0  0  0  0  0
    5.7302   -6.1628    4.5356 C   0  0  0  0  0  0  0  0  0  0  0  0
    6.2017   -5.1813    5.3526 O   0  0  0  0  0  0  0  0  0  0  0  0
    4.6792   -7.0088    4.9771 C   0  0  0  0  0  0  0  0  0  0  0  0
    3.8312   -6.7111    6.0525 O   0  0  0  0  0  0  0  0  0  0  0  0
    2.5549   -7.2063    5.8843 C   0  0  0  0  0  0  0  0  0  0  0  0
    2.6507   -8.6993    5.7623 C   0  0  1  0  0  0  0  0  0  0  0  0
    1.5425   -9.5351    6.3194 N   0  0  1  0  0  0  0  0  0  0  0  0
    1.3349   -9.4316    7.7778 C   0  0  0  0  0  0  0  0  0  0  0  0
    0.7159   -8.0958    8.2499 C   0  0  0  0  0  0  0  0  0  0  0  0
    0.2760   -9.7384    5.5711 C   0  0  0  0  0  0  0  0  0  0  0  0
    3.2771   -8.3685    2.0164 C   0  0  0  0  0  0  0  0  0  0  0  0
    2.3520   -8.2737    3.2515 C   0  0  1  0  0  0  0  0  0  0  0  0
    0.0210    1.9919    2.4206 H   0  0  0  0  0  0  0  0  0  0  0  0
    1.0516    1.6573    3.8161 H   0  0  0  0  0  0  0  0  0  0  0  0
   -0.3221    0.6151    3.4407 H   0  0  0  0  0  0  0  0  0  0  0  0
    0.8246   -0.0651    1.2754 H   0  0  0  0  0  0  0  0  0  0  0  0
    2.1546    0.9871    1.6632 H   0  0  0  0  0  0  0  0  0  0  0  0
    2.8443   -1.2628    2.1981 H   0  0  0  0  0  0  0  0  0  0  0  0
    2.6772   -0.3855    3.7007 H   0  0  0  0  0  0  0  0  0  0  0  0
    0.3897   -1.3981    3.9759 H   0  0  0  0  0  0  0  0  0  0  0  0
    0.6191   -2.3198    2.5180 H   0  0  0  0  0  0  0  0  0  0  0  0
    2.5547   -3.4843    3.5544 H   0  0  0  0  0  0  0  0  0  0  0  0
    2.4209   -2.4990    4.9960 H   0  0  0  0  0  0  0  0  0  0  0  0
    0.2942   -4.3413    3.9288 H   0  0  0  0  0  0  0  0  0  0  0  0
   -0.8240   -2.6922    5.2378 H   0  0  0  0  0  0  0  0  0  0  0  0
    0.3066   -2.8360    6.5725 H   0  0  0  0  0  0  0  0  0  0  0  0
   -0.8121   -4.1502    6.1784 H   0  0  0  0  0  0  0  0  0  0  0  0
   -0.4805   -7.2098    5.0261 H   0  0  0  0  0  0  0  0  0  0  0  0
    0.1219   -6.3158    3.7095 H   0  0  0  0  0  0  0  0  0  0  0  0
    0.3419   -8.1048    2.5407 H   0  0  0  0  0  0  0  0  0  0  0  0
   -0.7056   -9.6621    3.7321 H   0  0  0  0  0  0  0  0  0  0  0  0
    0.2435  -11.6568    3.3472 H   0  0  0  0  0  0  0  0  0  0  0  0
    1.1405  -10.6291    2.2742 H   0  0  0  0  0  0  0  0  0  0  0  0
    2.0155  -11.8019    4.9729 H   0  0  0  0  0  0  0  0  0  0  0  0
    2.5784  -12.2566    3.4139 H   0  0  0  0  0  0  0  0  0  0  0  0
    4.1346  -10.8066    4.8802 H   0  0  0  0  0  0  0  0  0  0  0  0
    4.0443  -10.5745    3.1806 H   0  0  0  0  0  0  0  0  0  0  0  0
    5.8868   -7.0105    1.2058 H   0  0  0  0  0  0  0  0  0  0  0  0
    7.0621   -5.6338    2.9092 H   0  0  0  0  0  0  0  0  0  0  0  0
    6.8935   -4.6716    4.9698 H   0  0  0  0  0  0  0  0  0  0  0  0
    3.4917   -8.9704    6.4021 H   0  0  0  0  0  0  0  0  0  0  0  0
    0.6937  -10.2524    8.0993 H   0  0  0  0  0  0  0  0  0  0  0  0
    2.2740   -9.5981    8.3032 H   0  0  0  0  0  0  0  0  0  0  0  0
    0.4747   -8.1277    9.3101 H   0  0  0  0  0  0  0  0  0  0  0  0
   -0.1977   -7.8418    7.7059 H   0  0  0  0  0  0  0  0  0  0  0  0
    1.4019   -7.2567    8.1332 H   0  0  0  0  0  0  0  0  0  0  0  0
   -0.5120   -9.0814    5.9240 H   0  0  0  0  0  0  0  0  0  0  0  0
   -0.1021  -10.7249    5.8409 H   0  0  0  0  0  0  0  0  0  0  0  0
    3.0083   -7.6366    1.2506 H   0  0  0  0  0  0  0  0  0  0  0  0
    3.2868   -9.3592    1.5590 H   0  0  0  0  0  0  0  0  0  0  0  0
    2.4365   -7.1840    3.2586 H   0  0  0  0  0  0  0  0  0  0  0  0
    2.4731   -4.7329    5.8890 H   0  0  0  0  0  0  0  0  0  0  0  0
    1.9392  -10.4751    6.2457 H   0  0  0  0  0  0  0  0  0  0  0  0
  1  2  1  0
  1 33  1  0
  1 34  1  0
  1 35  1  0
  2  3  1  0
  2 36  1  0
  2 37  1  0
  3  4  1  0
  3 38  1  0
  3 39  1  0
  4  5  1  0
  4 40  1  0
  4 41  1  0
  5  6  1  0
  5 42  1  0
  5 43  1  0
  6  7  1  0
  6  8  1  0
  6 44  1  6
  7 45  1  0
  7 46  1  0
  7 47  1  0
  8  9  1  0
  8 72  1  0
  9 25  2  0
  9 10  1  0
 10 11  1  0
 10 48  1  0
 10 49  1  0
 11 32  1  0
 11 12  1  0
 11 50  1  6
 12 30  1  0
 12 13  1  0
 12 51  1  6
 13 14  1  0
 13 52  1  0
 13 53  1  0
 14 15  1  0
 14 54  1  0
 14 55  1  0
 16 15  1  6
 15 56  1  0
 15 57  1  0
 16 26  1  0
 16 32  1  0
 16 17  1  0
 17 23  2  0
 17 18  1  0
 18 19  2  0
 18 31  1  0
 19 20  1  0
 19 58  1  0
 20 21  2  0
 20 59  1  0
 21 22  1  0
 21 23  1  0
 22 60  1  0
 23 24  1  0
 24 25  1  0
 25 26  1  0
 26 27  1  0
 26 61  1  1
 27 28  1  0
 27 30  1  0
 27 73  1  1
 28 29  1  0
 28 62  1  0
 28 63  1  0
 29 64  1  0
 29 65  1  0
 29 66  1  0
 30 67  1  0
 30 68  1  0
 31 32  1  0
 31 69  1  0
 31 70  1  0
 32 71  1  1
M  CHG  1  27   1
M  END
>  <i_m_ct_stereo_status>  (66) 
1

>  <s_m_source_file>  (66) 
/var/tmp/pbs.5076255.sched01/tmp6yc3ji7b/0haed4tc5.sdf

>  <i_m_source_file_index>  (66) 
27

>  <i_lp_mmshare_version>  (66) 
48012

>  <i_f3d_flags>  (66) 
0

>  <s_epik_input>  (66) 
W0NIM11bQ0gyXVtDSDJdW0NIMl1bQ0gyXVtDQEhdKFtDSDNdKS9OPUMxL1tDSDJdW0NAQEhdKFtDQEBIXTJbQ0gyXTMpW0NAQEhdKFtDSDJdW0NIMl1bQ0gyXTQpW0NIMl1OKFtDSDJdW0NIM10pW0NAQEhdNVtDQEhdMU9jNmMoW09IXSlbY0hdW2NIXWMzYzZbQ0BAXTI0NQ==

>  <s_epik_cmdline>  (66) 
J2VwaWtfcHl0aG9uJywgJy1waHQnLCAnMi4wJywgJy1waCcsICc3LjAnLCAnLXRuJywgJzgnLCAnLW1hJywgJzIwMCcsICctaW1hZScsICc8aW5maWxlLm1hZT4nLCAnLW9tYWUnLCAnPG91dGZpbGUubWFlPic=

>  <r_epik_Ionization_Penalty>  (66) 
2.05492

>  <r_epik_Ionization_Penalty_Charging>  (66) 
2.05419

>  <r_epik_Ionization_Penalty_Neutral>  (66) 
0.000728123

>  <r_epik_State_Penalty>  (66) 
2.18075

>  <r_epik_Charging_Adjusted_Penalty>  (66) 
4.23495

>  <i_epik_Tot_Q>  (66) 
1

>  <i_epik_Tot_abs_Q>  (66) 
1

>  <s_epik_Chemistry_Notes>  (66) 
This compound has an imine and may undergo hydrolysis.

>  <s_lp_Force_Field>  (66) 
OPLS3e

>  <r_lp_Energy>  (66) 
149.831

>  <b_lp_Chiralities_Consistent>  (66) 
1

>  <s_lp_Variant>  (66) 
18:0-2

>  <s_i_glide_gridfile>  (66) 
pfpi4k_grid

>  <i_i_glide_lignum>  (66) 
27

>  <i_i_glide_rotatable_bonds>  (66) 
8

>  <r_i_docking_score>  (66) 
-1.9558

>  <r_i_glide_ligand_efficiency>  (66) 
-0.0611187

>  <r_i_glide_ligand_efficiency_sa>  (66) 
-0.19404

>  <r_i_glide_ligand_efficiency_ln>  (66) 
-0.437956

>  <r_i_glide_gscore>  (66) 
-1.9558

>  <r_i_glide_lipo>  (66) 
-0.225928

>  <r_i_glide_hbond>  (66) 
-0.00429454

>  <r_i_glide_metal>  (66) 
-0

>  <r_i_glide_rewards>  (66) 
-0.4252

>  <r_i_glide_evdw>  (66) 
-21.3926

>  <r_i_glide_ecoul>  (66) 
-4.53041

>  <r_i_glide_erotb>  (66) 
0.520634

>  <r_i_glide_esite>  (66) 
-0.0718155

>  <r_i_glide_emodel>  (66) 
-27.7891

>  <r_i_glide_energy>  (66) 
-25.923

>  <r_i_glide_einternal>  (66) 
3.99067

>  <r_i_glide_intrahb_reward>  (66) 
-0

>  <i_i_glide_confnum>  (66) 
4

>  <i_i_glide_posenum>  (66) 
19

>  <r_i_glide_eff_state_penalty>  (66) 
0

>  <ligand_id>  (66) 
18

>  <original_smiles>  (66) 
CCCCCC(C)N=C1CC2C3CCCC45c6c(ccc(O)c6OC1C4N(CC)C3)CC25

>  <smiles>  (66) 
[H]Oc1c([H])c([H])c2c3c1OC1=C(N([H])C([H])(C([H])([H])[H])C([H])([H])C([H])([H])C([H])([H])C([H])([H])C([H])([H])[H])C([H])([H])C4([H])C([H])(C2([H])[H])C32C([H])([H])C([H])([H])C([H])([H])C4([H])C([H])([H])[N+]([H])(C([H])([H])C([H])([H])[H])C12[H]

$$$$
18:1:1
     RDKit          3D

 73 78  0  0  1  0  0  0  0  0999 V2000
    0.8843    0.7916    2.2000 C   0  0  0  0  0  0  0  0  0  0  0  0
    0.2754    0.0673    3.4062 C   0  0  0  0  0  0  0  0  0  0  0  0
    0.8261   -1.3496    3.5984 C   0  0  0  0  0  0  0  0  0  0  0  0
    2.3051   -1.3683    4.0308 C   0  0  0  0  0  0  0  0  0  0  0  0
    2.8463   -2.7752    4.3003 C   0  0  0  0  0  0  0  0  0  0  0  0
    2.1344   -3.5232    5.4372 C   0  0  2  0  0  0  0  0  0  0  0  0
    2.1555   -2.7704    6.7797 C   0  0  0  0  0  0  0  0  0  0  0  0
    2.7237   -4.8589    5.5280 N   0  0  0  0  0  0  0  0  0  0  0  0
    2.1698   -6.1282    5.3492 C   0  0  0  0  0  0  0  0  0  0  0  0
    0.7076   -6.1967    4.8067 C   0  0  0  0  0  0  0  0  0  0  0  0
    0.4082   -7.2475    3.6496 C   0  0  2  0  0  0  0  0  0  0  0  0
   -0.3086   -8.5169    4.1479 C   0  0  1  0  0  0  0  0  0  0  0  0
   -0.3192   -9.6692    3.1173 C   0  0  0  0  0  0  0  0  0  0  0  0
    0.8527  -10.6682    3.2240 C   0  0  0  0  0  0  0  0  0  0  0  0
    2.2768  -10.1055    3.0200 C   0  0  0  0  0  0  0  0  0  0  0  0
    2.5515   -8.6586    3.5454 C   0  0  2  0  0  0  0  0  0  0  0  0
    3.8138   -8.0566    2.9768 C   0  0  0  0  0  0  0  0  0  0  0  0
    3.6744   -7.8067    1.5922 C   0  0  0  0  0  0  0  0  0  0  0  0
    4.7339   -7.1215    0.9706 C   0  0  0  0  0  0  0  0  0  0  0  0
    5.8455   -6.7110    1.7461 C   0  0  0  0  0  0  0  0  0  0  0  0
    5.7909   -6.7495    3.1707 C   0  0  0  0  0  0  0  0  0  0  0  0
    6.7677   -6.1313    3.8886 O   0  0  0  0  0  0  0  0  0  0  0  0
    4.7072   -7.3734    3.8424 C   0  0  0  0  0  0  0  0  0  0  0  0
    4.3526   -7.1109    5.1732 O   0  0  0  0  0  0  0  0  0  0  0  0
    2.9955   -7.2144    5.3998 C   0  0  0  0  0  0  0  0  0  0  0  0
    2.5798   -8.6169    5.0701 C   0  0  1  0  0  0  0  0  0  0  0  0
    1.4838   -9.2494    5.8648 N   0  0  1  0  0  0  0  0  0  0  0  0
    1.7552   -9.4147    7.3107 C   0  0  0  0  0  0  0  0  0  0  0  0
    1.7882   -8.0970    8.1213 C   0  0  0  0  0  0  0  0  0  0  0  0
    0.0582   -8.9431    5.5867 C   0  0  0  0  0  0  0  0  0  0  0  0
    2.1399   -7.6410    1.4203 C   0  0  0  0  0  0  0  0  0  0  0  0
    1.7045   -7.5803    2.8969 C   0  0  1  0  0  0  0  0  0  0  0  0
    0.4622    1.7913    2.0902 H   0  0  0  0  0  0  0  0  0  0  0  0
    0.6898    0.2422    1.2813 H   0  0  0  0  0  0  0  0  0  0  0  0
    1.9641    0.9066    2.2984 H   0  0  0  0  0  0  0  0  0  0  0  0
    0.4353    0.6491    4.3139 H   0  0  0  0  0  0  0  0  0  0  0  0
   -0.8049    0.0083    3.2750 H   0  0  0  0  0  0  0  0  0  0  0  0
    0.2025   -1.8264    4.3538 H   0  0  0  0  0  0  0  0  0  0  0  0
    0.6983   -1.9361    2.6875 H   0  0  0  0  0  0  0  0  0  0  0  0
    2.9279   -0.9326    3.2511 H   0  0  0  0  0  0  0  0  0  0  0  0
    2.4533   -0.7306    4.9019 H   0  0  0  0  0  0  0  0  0  0  0  0
    2.7727   -3.3703    3.3887 H   0  0  0  0  0  0  0  0  0  0  0  0
    3.9103   -2.7059    4.5258 H   0  0  0  0  0  0  0  0  0  0  0  0
    1.0758   -3.5832    5.2110 H   0  0  0  0  0  0  0  0  0  0  0  0
    1.6109   -1.8308    6.6872 H   0  0  0  0  0  0  0  0  0  0  0  0
    3.1626   -2.5309    7.1133 H   0  0  0  0  0  0  0  0  0  0  0  0
    1.6399   -3.3307    7.5581 H   0  0  0  0  0  0  0  0  0  0  0  0
   -0.0009   -6.2274    5.6391 H   0  0  0  0  0  0  0  0  0  0  0  0
    0.4742   -5.2641    4.3010 H   0  0  0  0  0  0  0  0  0  0  0  0
   -0.2689   -6.7556    2.9472 H   0  0  0  0  0  0  0  0  0  0  0  0
   -1.3509   -8.2193    4.2375 H   0  0  0  0  0  0  0  0  0  0  0  0
   -1.2373  -10.2403    3.2678 H   0  0  0  0  0  0  0  0  0  0  0  0
   -0.4112   -9.2745    2.1004 H   0  0  0  0  0  0  0  0  0  0  0  0
    0.7878  -11.1928    4.1750 H   0  0  0  0  0  0  0  0  0  0  0  0
    0.6808  -11.4471    2.4834 H   0  0  0  0  0  0  0  0  0  0  0  0
    2.9912  -10.7893    3.4738 H   0  0  0  0  0  0  0  0  0  0  0  0
    2.4876  -10.1776    1.9554 H   0  0  0  0  0  0  0  0  0  0  0  0
    4.6734   -6.8492   -0.0820 H   0  0  0  0  0  0  0  0  0  0  0  0
    6.6775   -6.2338    1.2629 H   0  0  0  0  0  0  0  0  0  0  0  0
    7.4654   -5.7767    3.3616 H   0  0  0  0  0  0  0  0  0  0  0  0
    3.4412   -9.2271    5.3391 H   0  0  0  0  0  0  0  0  0  0  0  0
    0.9920  -10.0647    7.7351 H   0  0  0  0  0  0  0  0  0  0  0  0
    2.6891   -9.9548    7.4555 H   0  0  0  0  0  0  0  0  0  0  0  0
    1.8630   -8.2967    9.1890 H   0  0  0  0  0  0  0  0  0  0  0  0
    0.8986   -7.4762    7.9567 H   0  0  0  0  0  0  0  0  0  0  0  0
    2.6628   -7.4877    7.8851 H   0  0  0  0  0  0  0  0  0  0  0  0
   -0.3130   -8.1901    6.2709 H   0  0  0  0  0  0  0  0  0  0  0  0
   -0.5299   -9.8205    5.8566 H   0  0  0  0  0  0  0  0  0  0  0  0
    1.9008   -6.7216    0.8815 H   0  0  0  0  0  0  0  0  0  0  0  0
    1.6929   -8.4863    0.9012 H   0  0  0  0  0  0  0  0  0  0  0  0
    2.1288   -6.5780    3.0063 H   0  0  0  0  0  0  0  0  0  0  0  0
    3.7206   -4.8629    5.6937 H   0  0  0  0  0  0  0  0  0  0  0  0
    1.5328  -10.2094    5.5293 H   0  0  0  0  0  0  0  0  0  0  0  0
  1  2  1  0
  1 33  1  0
  1 34  1  0
  1 35  1  0
  2  3  1  0
  2 36  1  0
  2 37  1  0
  3  4  1  0
  3 38  1  0
  3 39  1  0
  4  5  1  0
  4 40  1  0
  4 41  1  0
  5  6  1  0
  5 42  1  0
  5 43  1  0
  6  7  1  0
  6  8  1  0
  6 44  1  6
  7 45  1  0
  7 46  1  0
  7 47  1  0
  8  9  1  0
  8 72  1  0
  9 25  2  0
  9 10  1  0
 10 11  1  0
 10 48  1  0
 10 49  1  0
 11 32  1  0
 11 12  1  0
 11 50  1  6
 12 30  1  0
 12 13  1  0
 12 51  1  1
 13 14  1  0
 13 52  1  0
 13 53  1  0
 14 15  1  0
 14 54  1  0
 14 55  1  0
 16 15  1  1
 15 56  1  0
 15 57  1  0
 16 26  1  0
 16 32  1  0
 16 17  1  0
 17 23  2  0
 17 18  1  0
 18 19  2  0
 18 31  1  0
 19 20  1  0
 19 58  1  0
 20 21  2  0
 20 59  1  0
 21 22  1  0
 21 23  1  0
 22 60  1  0
 23 24  1  0
 24 25  1  0
 25 26  1  0
 26 27  1  0
 26 61  1  1
 27 28  1  0
 27 30  1  0
 27 73  1  6
 28 29  1  0
 28 62  1  0
 28 63  1  0
 29 64  1  0
 29 65  1  0
 29 66  1  0
 30 67  1  0
 30 68  1  0
 31 32  1  0
 31 69  1  0
 31 70  1  0
 32 71  1  1
M  CHG  1  27   1
M  END
>  <i_m_ct_stereo_status>  (67) 
1

>  <s_m_source_file>  (67) 
/var/tmp/pbs.5076255.sched01/tmp6yc3ji7b/0haed4tc5.sdf

>  <i_m_source_file_index>  (67) 
27

>  <i_lp_mmshare_version>  (67) 
48012

>  <i_f3d_flags>  (67) 
0

>  <s_epik_input>  (67) 
W0NIM11bQ0gyXVtDSDJdW0NIMl1bQ0gyXVtDQEhdKFtDSDNdKS9OPUMxL1tDSDJdW0NAQEhdKFtDQEBIXTJbQ0gyXTMpW0NAQEhdKFtDSDJdW0NIMl1bQ0gyXTQpW0NIMl1OKFtDSDJdW0NIM10pW0NAQEhdNVtDQEhdMU9jNmMoW09IXSlbY0hdW2NIXWMzYzZbQ0BAXTI0NQ==

>  <s_epik_cmdline>  (67) 
J2VwaWtfcHl0aG9uJywgJy1waHQnLCAnMi4wJywgJy1waCcsICc3LjAnLCAnLXRuJywgJzgnLCAnLW1hJywgJzIwMCcsICctaW1hZScsICc8aW5maWxlLm1hZT4nLCAnLW9tYWUnLCAnPG91dGZpbGUubWFlPic=

>  <r_epik_Ionization_Penalty>  (67) 
2.05492

>  <r_epik_Ionization_Penalty_Charging>  (67) 
2.05419

>  <r_epik_Ionization_Penalty_Neutral>  (67) 
0.000728123

>  <r_epik_State_Penalty>  (67) 
2.18075

>  <r_epik_Charging_Adjusted_Penalty>  (67) 
4.23495

>  <i_epik_Tot_Q>  (67) 
1

>  <i_epik_Tot_abs_Q>  (67) 
1

>  <s_epik_Chemistry_Notes>  (67) 
This compound has an imine and may undergo hydrolysis.

>  <s_lp_Force_Field>  (67) 
OPLS3e

>  <r_lp_Energy>  (67) 
149.831

>  <b_lp_Chiralities_Consistent>  (67) 
1

>  <s_lp_Variant>  (67) 
18:0-2

>  <s_i_glide_gridfile>  (67) 
pfpi4k_grid

>  <i_i_glide_lignum>  (67) 
27

>  <i_i_glide_rotatable_bonds>  (67) 
8

>  <r_i_docking_score>  (67) 
-1.90803

>  <r_i_glide_ligand_efficiency>  (67) 
-0.0596259

>  <r_i_glide_ligand_efficiency_sa>  (67) 
-0.1893

>  <r_i_glide_ligand_efficiency_ln>  (67) 
-0.42726

>  <r_i_glide_gscore>  (67) 
-1.90803

>  <r_i_glide_lipo>  (67) 
-0.311461

>  <r_i_glide_hbond>  (67) 
0

>  <r_i_glide_metal>  (67) 
-0

>  <r_i_glide_rewards>  (67) 
-0.4252

>  <r_i_glide_evdw>  (67) 
-21.4265

>  <r_i_glide_ecoul>  (67) 
-3.85605

>  <r_i_glide_erotb>  (67) 
0.520634

>  <r_i_glide_esite>  (67) 
-0.0422708

>  <r_i_glide_emodel>  (67) 
-26.4303

>  <r_i_glide_energy>  (67) 
-25.2825

>  <r_i_glide_einternal>  (67) 
4.9487

>  <r_i_glide_intrahb_reward>  (67) 
-0

>  <i_i_glide_confnum>  (67) 
4

>  <i_i_glide_posenum>  (67) 
1

>  <r_i_glide_eff_state_penalty>  (67) 
0

>  <ligand_id>  (67) 
18

>  <original_smiles>  (67) 
CCCCCC(C)N=C1CC2C3CCCC45c6c(ccc(O)c6OC1C4N(CC)C3)CC25

>  <smiles>  (67) 
[H]Oc1c([H])c([H])c2c3c1OC1=C(N([H])C([H])(C([H])([H])[H])C([H])([H])C([H])([H])C([H])([H])C([H])([H])C([H])([H])[H])C([H])([H])C4([H])C([H])(C2([H])[H])C32C([H])([H])C([H])([H])C([H])([H])C4([H])C([H])([H])[N+]([H])(C([H])([H])C([H])([H])[H])C12[H]

$$$$
18:1:2
     RDKit          3D

 73 78  0  0  1  0  0  0  0  0999 V2000
    3.5564   -0.1105    1.2171 C   0  0  0  0  0  0  0  0  0  0  0  0
    4.1613   -0.2619    2.6159 C   0  0  0  0  0  0  0  0  0  0  0  0
    4.1032   -1.7065    3.1277 C   0  0  0  0  0  0  0  0  0  0  0  0
    4.7813   -1.8703    4.4980 C   0  0  0  0  0  0  0  0  0  0  0  0
    4.8319   -3.3319    4.9823 C   0  0  0  0  0  0  0  0  0  0  0  0
    3.4667   -3.8927    5.4115 C   0  0  2  0  0  0  0  0  0  0  0  0
    2.8507   -3.1448    6.6121 C   0  0  0  0  0  0  0  0  0  0  0  0
    3.5927   -5.3255    5.6817 N   0  0  0  0  0  0  0  0  0  0  0  0
    2.7222   -6.3900    5.4429 C   0  0  0  0  0  0  0  0  0  0  0  0
    1.2971   -6.0448    4.9074 C   0  0  0  0  0  0  0  0  0  0  0  0
    0.7363   -6.9406    3.7127 C   0  0  2  0  0  0  0  0  0  0  0  0
   -0.3051   -7.9840    4.1710 C   0  0  1  0  0  0  0  0  0  0  0  0
   -0.6257   -9.0684    3.1179 C   0  0  0  0  0  0  0  0  0  0  0  0
    0.2411  -10.3436    3.1941 C   0  0  0  0  0  0  0  0  0  0  0  0
    1.7661  -10.1802    3.0172 C   0  0  0  0  0  0  0  0  0  0  0  0
    2.4165   -8.8793    3.5814 C   0  0  2  0  0  0  0  0  0  0  0  0
    3.8005   -8.6298    3.0349 C   0  0  0  0  0  0  0  0  0  0  0  0
    3.7485   -8.3236    1.6552 C   0  0  0  0  0  0  0  0  0  0  0  0
    4.9619   -7.9399    1.0609 C   0  0  0  0  0  0  0  0  0  0  0  0
    6.1362   -7.8672    1.8477 C   0  0  0  0  0  0  0  0  0  0  0  0
    6.0586   -7.9233    3.2706 C   0  0  0  0  0  0  0  0  0  0  0  0
    7.1632   -7.6093    4.0023 O   0  0  0  0  0  0  0  0  0  0  0  0
    4.8379   -8.2416    3.9228 C   0  0  0  0  0  0  0  0  0  0  0  0
    4.5540   -7.9290    5.2604 O   0  0  0  0  0  0  0  0  0  0  0  0
    3.2172   -7.6632    5.4794 C   0  0  0  0  0  0  0  0  0  0  0  0
    2.4389   -8.8890    5.1050 C   0  0  1  0  0  0  0  0  0  0  0  0
    1.2031   -9.2183    5.8768 N   0  0  1  0  0  0  0  0  0  0  0  0
    1.4067   -9.4817    7.3188 C   0  0  0  0  0  0  0  0  0  0  0  0
    1.7148   -8.2305    8.1759 C   0  0  0  0  0  0  0  0  0  0  0  0
   -0.0821   -8.5302    5.5950 C   0  0  0  0  0  0  0  0  0  0  0  0
    2.3205   -7.7395    1.4746 C   0  0  0  0  0  0  0  0  0  0  0  0
    1.8964   -7.6015    2.9532 C   0  0  1  0  0  0  0  0  0  0  0  0
    3.6265    0.9251    0.8868 H   0  0  0  0  0  0  0  0  0  0  0  0
    2.5033   -0.3960    1.2006 H   0  0  0  0  0  0  0  0  0  0  0  0
    4.0802   -0.7297    0.4882 H   0  0  0  0  0  0  0  0  0  0  0  0
    5.1972    0.0770    2.5947 H   0  0  0  0  0  0  0  0  0  0  0  0
    3.6344    0.3970    3.3074 H   0  0  0  0  0  0  0  0  0  0  0  0
    3.0595   -2.0197    3.1782 H   0  0  0  0  0  0  0  0  0  0  0  0
    4.5901   -2.3639    2.4068 H   0  0  0  0  0  0  0  0  0  0  0  0
    5.8029   -1.5021    4.4334 H   0  0  0  0  0  0  0  0  0  0  0  0
    4.3027   -1.2191    5.2283 H   0  0  0  0  0  0  0  0  0  0  0  0
    5.2322   -3.9566    4.1813 H   0  0  0  0  0  0  0  0  0  0  0  0
    5.5353   -3.4172    5.8095 H   0  0  0  0  0  0  0  0  0  0  0  0
    2.8291   -3.7426    4.5477 H   0  0  0  0  0  0  0  0  0  0  0  0
    2.6306   -2.1094    6.3584 H   0  0  0  0  0  0  0  0  0  0  0  0
    3.5164   -3.1329    7.4746 H   0  0  0  0  0  0  0  0  0  0  0  0
    1.9009   -3.5838    6.9156 H   0  0  0  0  0  0  0  0  0  0  0  0
    0.6057   -5.9254    5.7442 H   0  0  0  0  0  0  0  0  0  0  0  0
    1.2915   -5.0476    4.4799 H   0  0  0  0  0  0  0  0  0  0  0  0
    0.2322   -6.2601    3.0220 H   0  0  0  0  0  0  0  0  0  0  0  0
   -1.2251   -7.4123    4.2659 H   0  0  0  0  0  0  0  0  0  0  0  0
   -1.6635   -9.3802    3.2695 H   0  0  0  0  0  0  0  0  0  0  0  0
   -0.5998   -8.6420    2.1105 H   0  0  0  0  0  0  0  0  0  0  0  0
    0.0300  -10.8619    4.1270 H   0  0  0  0  0  0  0  0  0  0  0  0
   -0.1106  -11.0252    2.4218 H   0  0  0  0  0  0  0  0  0  0  0  0
    2.2628  -11.0485    3.4497 H   0  0  0  0  0  0  0  0  0  0  0  0
    1.9623  -10.2588    1.9518 H   0  0  0  0  0  0  0  0  0  0  0  0
    4.9862   -7.6335    0.0194 H   0  0  0  0  0  0  0  0  0  0  0  0
    7.0706   -7.6224    1.3780 H   0  0  0  0  0  0  0  0  0  0  0  0
    7.9309   -7.4353    3.4821 H   0  0  0  0  0  0  0  0  0  0  0  0
    3.0974   -9.7188    5.3610 H   0  0  0  0  0  0  0  0  0  0  0  0
    0.5162   -9.9710    7.7095 H   0  0  0  0  0  0  0  0  0  0  0  0
    2.2004  -10.2145    7.4560 H   0  0  0  0  0  0  0  0  0  0  0  0
    1.7422   -8.4821    9.2347 H   0  0  0  0  0  0  0  0  0  0  0  0
    0.9825   -7.4250    8.0514 H   0  0  0  0  0  0  0  0  0  0  0  0
    2.6971   -7.8117    7.9524 H   0  0  0  0  0  0  0  0  0  0  0  0
   -0.2329   -7.7143    6.2874 H   0  0  0  0  0  0  0  0  0  0  0  0
   -0.8954   -9.2139    5.8381 H   0  0  0  0  0  0  0  0  0  0  0  0
    2.3516   -6.7737    0.9642 H   0  0  0  0  0  0  0  0  0  0  0  0
    1.6795   -8.4108    0.9042 H   0  0  0  0  0  0  0  0  0  0  0  0
    2.5746   -6.7563    3.0907 H   0  0  0  0  0  0  0  0  0  0  0  0
    4.5255   -5.6104    5.9461 H   0  0  0  0  0  0  0  0  0  0  0  0
    1.0013  -10.1500    5.5178 H   0  0  0  0  0  0  0  0  0  0  0  0
  1  2  1  0
  1 33  1  0
  1 34  1  0
  1 35  1  0
  2  3  1  0
  2 36  1  0
  2 37  1  0
  3  4  1  0
  3 38  1  0
  3 39  1  0
  4  5  1  0
  4 40  1  0
  4 41  1  0
  5  6  1  0
  5 42  1  0
  5 43  1  0
  6  7  1  0
  6  8  1  0
  6 44  1  6
  7 45  1  0
  7 46  1  0
  7 47  1  0
  8  9  1  0
  8 72  1  0
  9 25  2  0
  9 10  1  0
 10 11  1  0
 10 48  1  0
 10 49  1  0
 11 32  1  0
 11 12  1  0
 11 50  1  6
 12 30  1  0
 12 13  1  0
 12 51  1  1
 13 14  1  0
 13 52  1  0
 13 53  1  0
 14 15  1  0
 14 54  1  0
 14 55  1  0
 16 15  1  6
 15 56  1  0
 15 57  1  0
 16 26  1  0
 16 32  1  0
 16 17  1  0
 17 23  2  0
 17 18  1  0
 18 19  2  0
 18 31  1  0
 19 20  1  0
 19 58  1  0
 20 21  2  0
 20 59  1  0
 21 22  1  0
 21 23  1  0
 22 60  1  0
 23 24  1  0
 24 25  1  0
 25 26  1  0
 26 27  1  0
 26 61  1  6
 27 28  1  0
 27 30  1  0
 27 73  1  6
 28 29  1  0
 28 62  1  0
 28 63  1  0
 29 64  1  0
 29 65  1  0
 29 66  1  0
 30 67  1  0
 30 68  1  0
 31 32  1  0
 31 69  1  0
 31 70  1  0
 32 71  1  1
M  CHG  1  27   1
M  END
>  <i_m_ct_stereo_status>  (68) 
1

>  <s_m_source_file>  (68) 
/var/tmp/pbs.5076255.sched01/tmp6yc3ji7b/0haed4tc5.sdf

>  <i_m_source_file_index>  (68) 
27

>  <i_lp_mmshare_version>  (68) 
48012

>  <i_f3d_flags>  (68) 
0

>  <s_epik_input>  (68) 
W0NIM11bQ0gyXVtDSDJdW0NIMl1bQ0gyXVtDQEhdKFtDSDNdKS9OPUMxL1tDSDJdW0NAQEhdKFtDQEBIXTJbQ0gyXTMpW0NAQEhdKFtDSDJdW0NIMl1bQ0gyXTQpW0NIMl1OKFtDSDJdW0NIM10pW0NAQEhdNVtDQEhdMU9jNmMoW09IXSlbY0hdW2NIXWMzYzZbQ0BAXTI0NQ==

>  <s_epik_cmdline>  (68) 
J2VwaWtfcHl0aG9uJywgJy1waHQnLCAnMi4wJywgJy1waCcsICc3LjAnLCAnLXRuJywgJzgnLCAnLW1hJywgJzIwMCcsICctaW1hZScsICc8aW5maWxlLm1hZT4nLCAnLW9tYWUnLCAnPG91dGZpbGUubWFlPic=

>  <r_epik_Ionization_Penalty>  (68) 
2.05492

>  <r_epik_Ionization_Penalty_Charging>  (68) 
2.05419

>  <r_epik_Ionization_Penalty_Neutral>  (68) 
0.000728123

>  <r_epik_State_Penalty>  (68) 
2.18075

>  <r_epik_Charging_Adjusted_Penalty>  (68) 
4.23495

>  <i_epik_Tot_Q>  (68) 
1

>  <i_epik_Tot_abs_Q>  (68) 
1

>  <s_epik_Chemistry_Notes>  (68) 
This compound has an imine and may undergo hydrolysis.

>  <s_lp_Force_Field>  (68) 
OPLS3e

>  <r_lp_Energy>  (68) 
149.831

>  <b_lp_Chiralities_Consistent>  (68) 
1

>  <s_lp_Variant>  (68) 
18:0-2

>  <s_i_glide_gridfile>  (68) 
pfpi4k_grid

>  <i_i_glide_lignum>  (68) 
27

>  <i_i_glide_rotatable_bonds>  (68) 
8

>  <r_i_docking_score>  (68) 
-1.80911

>  <r_i_glide_ligand_efficiency>  (68) 
-0.0565347

>  <r_i_glide_ligand_efficiency_sa>  (68) 
-0.179487

>  <r_i_glide_ligand_efficiency_ln>  (68) 
-0.405109

>  <r_i_glide_gscore>  (68) 
-1.80911

>  <r_i_glide_lipo>  (68) 
-0.300781

>  <r_i_glide_hbond>  (68) 
0

>  <r_i_glide_metal>  (68) 
-0

>  <r_i_glide_rewards>  (68) 
-0.4252

>  <r_i_glide_evdw>  (68) 
-21.7743

>  <r_i_glide_ecoul>  (68) 
-3.13658

>  <r_i_glide_erotb>  (68) 
0.520634

>  <r_i_glide_esite>  (68) 
-0.0445633

>  <r_i_glide_emodel>  (68) 
-26.2915

>  <r_i_glide_energy>  (68) 
-24.9109

>  <r_i_glide_einternal>  (68) 
4.64384

>  <r_i_glide_intrahb_reward>  (68) 
-0

>  <i_i_glide_confnum>  (68) 
4

>  <i_i_glide_posenum>  (68) 
20

>  <r_i_glide_eff_state_penalty>  (68) 
0

>  <ligand_id>  (68) 
18

>  <original_smiles>  (68) 
CCCCCC(C)N=C1CC2C3CCCC45c6c(ccc(O)c6OC1C4N(CC)C3)CC25

>  <smiles>  (68) 
[H]Oc1c([H])c([H])c2c3c1OC1=C(N([H])C([H])(C([H])([H])[H])C([H])([H])C([H])([H])C([H])([H])C([H])([H])C([H])([H])[H])C([H])([H])C4([H])C([H])(C2([H])[H])C32C([H])([H])C([H])([H])C([H])([H])C4([H])C([H])([H])[N+]([H])(C([H])([H])C([H])([H])[H])C12[H]

$$$$
19:0:0
     RDKit          3D

 51 56  0  0  1  0  0  0  0  0999 V2000
    3.1352    1.2206    3.7588 C   0  0  0  0  0  0  0  0  0  0  0  0
    4.0337    0.1448    4.0250 O   0  0  0  0  0  0  0  0  0  0  0  0
    3.8399   -1.0313    3.3295 C   0  0  0  0  0  0  0  0  0  0  0  0
    2.7656   -1.2198    2.4327 C   0  0  0  0  0  0  0  0  0  0  0  0
    2.6110   -2.4251    1.7513 C   0  0  0  0  0  0  0  0  0  0  0  0
    3.5490   -3.4764    1.9113 C   0  0  0  0  0  0  0  0  0  0  0  0
    4.5776   -3.3237    2.8488 C   0  0  0  0  0  0  0  0  0  0  0  0
    4.7413   -2.1099    3.5433 C   0  0  0  0  0  0  0  0  0  0  0  0
    5.4898   -4.3868    3.0553 N   0  0  0  0  0  0  0  0  0  0  0  0
    5.3088   -5.6373    2.6159 C   0  0  0  0  0  0  0  0  0  0  0  0
    6.1604   -6.5047    2.7707 O   0  0  0  0  0  0  0  0  0  0  0  0
    3.9698   -5.9743    1.9513 C   0  0  2  0  0  0  0  0  0  0  0  0
    2.9698   -6.3318    3.0760 C   0  0  0  0  0  0  0  0  0  0  0  0
    2.2088   -7.5511    2.5512 C   0  0  1  0  0  0  0  0  0  0  0  0
    3.1764   -8.1394    1.6145 C   0  0  0  0  0  0  0  0  0  0  0  0
    3.0528   -9.4834    1.4776 N   0  0  0  0  0  0  0  0  0  0  0  0
    1.9255   -9.8355    2.3493 C   0  0  1  0  0  0  0  0  0  0  0  0
    1.8194  -11.1024    3.1874 C   0  0  0  0  0  0  0  0  0  0  0  0
    0.8424  -10.6296    4.3011 C   0  0  0  0  0  0  0  0  0  0  0  0
    0.8731   -9.0782    4.3290 C   0  0  0  0  0  0  0  0  0  0  0  0
    2.0520   -8.7824    3.4236 C   0  0  2  0  0  0  0  0  0  0  0  0
    4.0553   -7.2372    1.1753 N   0  0  0  0  0  0  0  0  0  0  0  0
    3.4562   -4.7687    1.1195 C   0  0  1  0  0  0  0  0  0  0  0  0
    2.1548   -4.9957    0.5811 O   0  0  0  0  0  0  0  0  0  0  0  0
    2.0168   -4.2904   -0.6985 C   0  0  0  0  0  0  0  0  0  0  0  0
    3.3476   -3.6315   -1.0492 C   0  0  0  0  0  0  0  0  0  0  0  0
    4.5238   -4.5577   -0.2049 S   0  0  0  0  0  0  0  0  0  0  0  0
    3.3811    2.0745    4.3882 H   0  0  0  0  0  0  0  0  0  0  0  0
    2.1004    0.9428    3.9679 H   0  0  0  0  0  0  0  0  0  0  0  0
    3.2127    1.5359    2.7176 H   0  0  0  0  0  0  0  0  0  0  0  0
    2.0707   -0.4136    2.2143 H   0  0  0  0  0  0  0  0  0  0  0  0
    1.7940   -2.4822    1.0622 H   0  0  0  0  0  0  0  0  0  0  0  0
    5.5708   -1.9692    4.2200 H   0  0  0  0  0  0  0  0  0  0  0  0
    6.3530   -4.1769    3.5247 H   0  0  0  0  0  0  0  0  0  0  0  0
    3.4553   -6.5878    4.0222 H   0  0  0  0  0  0  0  0  0  0  0  0
    2.2623   -5.5362    3.3063 H   0  0  0  0  0  0  0  0  0  0  0  0
    1.2915   -7.2829    2.0110 H   0  0  0  0  0  0  0  0  0  0  0  0
    1.0142   -9.6836    1.7711 H   0  0  0  0  0  0  0  0  0  0  0  0
    1.3934  -11.9315    2.6255 H   0  0  0  0  0  0  0  0  0  0  0  0
    2.7858  -11.4084    3.5881 H   0  0  0  0  0  0  0  0  0  0  0  0
   -0.1729  -10.9626    4.0878 H   0  0  0  0  0  0  0  0  0  0  0  0
    1.1271  -11.0517    5.2638 H   0  0  0  0  0  0  0  0  0  0  0  0
   -0.0436   -8.6512    3.9185 H   0  0  0  0  0  0  0  0  0  0  0  0
    1.0187   -8.6800    5.3348 H   0  0  0  0  0  0  0  0  0  0  0  0
    2.9776   -8.9330    3.9920 H   0  0  0  0  0  0  0  0  0  0  0  0
    4.7781   -7.3954    0.4995 H   0  0  0  0  0  0  0  0  0  0  0  0
    1.6905   -5.0000   -1.4514 H   0  0  0  0  0  0  0  0  0  0  0  0
    1.2374   -3.5279   -0.7414 H   0  0  0  0  0  0  0  0  0  0  0  0
    3.5853   -3.6104   -2.0985 H   0  0  0  0  0  0  0  0  0  0  0  0
    3.3950   -2.6259   -0.6554 H   0  0  0  0  0  0  0  0  0  0  0  0
    3.6041  -10.1270    0.9288 H   0  0  0  0  0  0  0  0  0  0  0  0
  1  2  1  0
  1 28  1  0
  1 29  1  0
  1 30  1  0
  2  3  1  0
  3  8  2  0
  3  4  1  0
  4  5  2  0
  4 31  1  0
  5  6  1  0
  5 32  1  0
  6 23  1  0
  6  7  2  0
  7  8  1  0
  7  9  1  0
  8 33  1  0
  9 10  1  0
  9 34  1  0
 10 11  2  0
 10 12  1  0
 12 22  1  6
 12 13  1  0
 12 23  1  0
 13 14  1  0
 13 35  1  0
 13 36  1  0
 14 21  1  0
 14 15  1  0
 14 37  1  6
 15 16  2  0
 15 22  1  0
 16 17  1  0
 16 51  1  0
 17 21  1  0
 17 18  1  0
 17 38  1  6
 18 19  1  0
 18 39  1  0
 18 40  1  0
 19 20  1  0
 19 41  1  0
 19 42  1  0
 20 21  1  0
 20 43  1  0
 20 44  1  0
 21 45  1  1
 22 46  1  0
 23 27  1  0
 23 24  1  6
 24 25  1  0
 25 26  1  0
 25 47  1  0
 25 48  1  0
 26 27  1  0
 26 49  1  0
 26 50  1  0
M  CHG  1  16   1
M  END
>  <i_m_ct_stereo_status>  (69) 
1

>  <s_m_source_file>  (69) 
/var/tmp/pbs.5076255.sched01/tmp6yc3ji7b/0haed4tc5.sdf

>  <i_m_source_file_index>  (69) 
28

>  <i_lp_mmshare_version>  (69) 
48012

>  <i_f3d_flags>  (69) 
0

>  <s_epik_input>  (69) 
W0NIM11PYyhbY0hdW2NIXTEpW2NIXWMoW05IXUMyPU8pYzFbQ0BdMyhPW0NIMl1bQ0gyXVMzKVtDQF0yNFtDSDJdW0NASF01QyhbTkhdNCk9TltDQEBIXTZbQ0BASF01W0NIMl1bQ0gyXVtDSDJdNg==

>  <s_epik_cmdline>  (69) 
J2VwaWtfcHl0aG9uJywgJy1waHQnLCAnMi4wJywgJy1waCcsICc3LjAnLCAnLXRuJywgJzgnLCAnLW1hJywgJzIwMCcsICctaW1hZScsICc8aW5maWxlLm1hZT4nLCAnLW9tYWUnLCAnPG91dGZpbGUubWFlPic=

>  <r_lp_tautomer_probability>  (69) 
1

>  <r_epik_Ionization_Penalty>  (69) 
0.000360002

>  <r_epik_Ionization_Penalty_Charging>  (69) 
0.000358626

>  <r_epik_Ionization_Penalty_Neutral>  (69) 
1.3761e-06

>  <r_epik_State_Penalty>  (69) 
0.41068

>  <r_epik_Charging_Adjusted_Penalty>  (69) 
0.411038

>  <i_epik_Tot_Q>  (69) 
1

>  <i_epik_Tot_abs_Q>  (69) 
1

>  <s_epik_Chemistry_Notes>  (69) 
This compound has an imine and may undergo hydrolysis.

>  <s_lp_Force_Field>  (69) 
OPLS3e

>  <r_lp_Energy>  (69) 
50.2336

>  <b_lp_Chiralities_Consistent>  (69) 
1

>  <s_lp_Variant>  (69) 
19:0-1

>  <s_i_glide_gridfile>  (69) 
pfpi4k_grid

>  <i_i_glide_lignum>  (69) 
28

>  <i_i_glide_rotatable_bonds>  (69) 
1

>  <r_i_docking_score>  (69) 
-2.95587

>  <r_i_glide_ligand_efficiency>  (69) 
-0.109477

>  <r_i_glide_ligand_efficiency_sa>  (69) 
-0.32843

>  <r_i_glide_ligand_efficiency_ln>  (69) 
-0.688078

>  <r_i_glide_gscore>  (69) 
-2.95587

>  <r_i_glide_lipo>  (69) 
-0.328356

>  <r_i_glide_hbond>  (69) 
-0.186737

>  <r_i_glide_metal>  (69) 
-0

>  <r_i_glide_rewards>  (69) 
-0.780137

>  <r_i_glide_evdw>  (69) 
-17.3404

>  <r_i_glide_ecoul>  (69) 
-4.84952

>  <r_i_glide_erotb>  (69) 
0

>  <r_i_glide_esite>  (69) 
-0.0661927

>  <r_i_glide_emodel>  (69) 
-25.5908

>  <r_i_glide_energy>  (69) 
-22.1899

>  <r_i_glide_einternal>  (69) 
0.0309051

>  <r_i_glide_intrahb_reward>  (69) 
-0

>  <i_i_glide_confnum>  (69) 
5

>  <i_i_glide_posenum>  (69) 
24

>  <r_i_glide_eff_state_penalty>  (69) 
0

>  <ligand_id>  (69) 
19

>  <original_smiles>  (69) 
COc1ccc2c(c1)NC(=O)C1(CC3C(=NC4CCCC43)N1)C21OCCS1

>  <smiles>  (69) 
[H]c1c([H])c2c(c([H])c1OC([H])([H])[H])N([H])C(=O)C1(N([H])C3=[N+]([H])C4([H])C([H])([H])C([H])([H])C([H])([H])C4([H])C3([H])C1([H])[H])C21OC([H])([H])C([H])([H])S1

$$$$
19:0:1
     RDKit          3D

 51 56  0  0  1  0  0  0  0  0999 V2000
    2.8336    1.5576    2.8901 C   0  0  0  0  0  0  0  0  0  0  0  0
    3.0524    0.8645    1.6611 O   0  0  0  0  0  0  0  0  0  0  0  0
    3.2479   -0.5007    1.7090 C   0  0  0  0  0  0  0  0  0  0  0  0
    3.4193   -1.2099    0.4955 C   0  0  0  0  0  0  0  0  0  0  0  0
    3.6028   -2.5955    0.4952 C   0  0  0  0  0  0  0  0  0  0  0  0
    3.6460   -3.2916    1.7208 C   0  0  0  0  0  0  0  0  0  0  0  0
    3.4084   -2.6124    2.9206 C   0  0  0  0  0  0  0  0  0  0  0  0
    3.2334   -1.2235    2.9187 C   0  0  0  0  0  0  0  0  0  0  0  0
    3.4350   -3.3062    4.1474 N   0  0  0  0  0  0  0  0  0  0  0  0
    3.4107   -4.6337    4.2759 C   0  0  0  0  0  0  0  0  0  0  0  0
    3.4790   -5.1851    5.3659 O   0  0  0  0  0  0  0  0  0  0  0  0
    3.2172   -5.4482    3.0077 C   0  0  2  0  0  0  0  0  0  0  0  0
    1.6865   -5.5246    2.7123 C   0  0  0  0  0  0  0  0  0  0  0  0
    1.4409   -6.9653    2.2698 C   0  0  1  0  0  0  0  0  0  0  0  0
    2.5450   -7.6781    2.9263 C   0  0  0  0  0  0  0  0  0  0  0  0
    2.2643   -8.9706    3.2315 N   0  0  0  0  0  0  0  0  0  0  0  0
    0.9003   -9.1672    2.7369 C   0  0  1  0  0  0  0  0  0  0  0  0
   -0.1673  -10.0122    3.4259 C   0  0  0  0  0  0  0  0  0  0  0  0
   -1.4646   -9.3301    2.8802 C   0  0  0  0  0  0  0  0  0  0  0  0
   -1.0814   -7.9186    2.3723 C   0  0  0  0  0  0  0  0  0  0  0  0
    0.3301   -7.7774    2.9043 C   0  0  2  0  0  0  0  0  0  0  0  0
    3.5733   -6.8715    3.2066 N   0  0  0  0  0  0  0  0  0  0  0  0
    3.9656   -4.7822    1.7964 C   0  0  1  0  0  0  0  0  0  0  0  0
    3.6788   -5.4456    0.5939 O   0  0  0  0  0  0  0  0  0  0  0  0
    4.6298   -6.4485    0.3284 C   0  0  0  0  0  0  0  0  0  0  0  0
    5.9763   -5.8688    0.7183 C   0  0  0  0  0  0  0  0  0  0  0  0
    5.6708   -4.7995    2.0487 S   0  0  0  0  0  0  0  0  0  0  0  0
    2.6978    2.6251    2.7066 H   0  0  0  0  0  0  0  0  0  0  0  0
    3.6920    1.4434    3.5549 H   0  0  0  0  0  0  0  0  0  0  0  0
    1.9375    1.1881    3.3933 H   0  0  0  0  0  0  0  0  0  0  0  0
    3.4549   -0.6613   -0.4414 H   0  0  0  0  0  0  0  0  0  0  0  0
    3.7958   -3.0903   -0.4547 H   0  0  0  0  0  0  0  0  0  0  0  0
    3.1509   -0.7341    3.8762 H   0  0  0  0  0  0  0  0  0  0  0  0
    3.5521   -2.7564    4.9824 H   0  0  0  0  0  0  0  0  0  0  0  0
    1.0719   -5.2961    3.5721 H   0  0  0  0  0  0  0  0  0  0  0  0
    1.3722   -4.8582    1.9229 H   0  0  0  0  0  0  0  0  0  0  0  0
    1.4962   -7.1092    1.1810 H   0  0  0  0  0  0  0  0  0  0  0  0
    0.9667   -9.4306    1.6803 H   0  0  0  0  0  0  0  0  0  0  0  0
   -0.0986  -11.0443    3.1394 H   0  0  0  0  0  0  0  0  0  0  0  0
   -0.1005   -9.9351    4.5192 H   0  0  0  0  0  0  0  0  0  0  0  0
   -1.8795   -9.9090    2.0592 H   0  0  0  0  0  0  0  0  0  0  0  0
   -2.2201   -9.2781    3.6627 H   0  0  0  0  0  0  0  0  0  0  0  0
   -1.0798   -7.8783    1.2814 H   0  0  0  0  0  0  0  0  0  0  0  0
   -1.7483   -7.1427    2.7530 H   0  0  0  0  0  0  0  0  0  0  0  0
    0.2733   -7.5271    3.9699 H   0  0  0  0  0  0  0  0  0  0  0  0
    4.4488   -7.1528    3.6024 H   0  0  0  0  0  0  0  0  0  0  0  0
    4.4088   -7.3557    0.8963 H   0  0  0  0  0  0  0  0  0  0  0  0
    4.6008   -6.7878   -0.7003 H   0  0  0  0  0  0  0  0  0  0  0  0
    6.7086   -6.6125    1.0027 H   0  0  0  0  0  0  0  0  0  0  0  0
    6.3854   -5.2759   -0.0991 H   0  0  0  0  0  0  0  0  0  0  0  0
    2.8492   -9.6513    3.6886 H   0  0  0  0  0  0  0  0  0  0  0  0
  1  2  1  0
  1 28  1  0
  1 29  1  0
  1 30  1  0
  2  3  1  0
  3  8  2  0
  3  4  1  0
  4  5  2  0
  4 31  1  0
  5  6  1  0
  5 32  1  0
  6 23  1  0
  6  7  2  0
  7  8  1  0
  7  9  1  0
  8 33  1  0
  9 10  1  0
  9 34  1  0
 10 11  2  0
 10 12  1  0
 12 22  1  1
 12 13  1  0
 12 23  1  0
 13 14  1  0
 13 35  1  0
 13 36  1  0
 14 21  1  0
 14 15  1  0
 14 37  1  6
 15 16  2  0
 15 22  1  0
 16 17  1  0
 16 51  1  0
 17 21  1  0
 17 18  1  0
 17 38  1  6
 18 19  1  0
 18 39  1  0
 18 40  1  0
 19 20  1  0
 19 41  1  0
 19 42  1  0
 20 21  1  0
 20 43  1  0
 20 44  1  0
 21 45  1  1
 22 46  1  0
 23 27  1  0
 23 24  1  6
 24 25  1  0
 25 26  1  0
 25 47  1  0
 25 48  1  0
 26 27  1  0
 26 49  1  0
 26 50  1  0
M  CHG  1  16   1
M  END
>  <i_m_ct_stereo_status>  (70) 
1

>  <s_m_source_file>  (70) 
/var/tmp/pbs.5076255.sched01/tmp6yc3ji7b/0haed4tc5.sdf

>  <i_m_source_file_index>  (70) 
28

>  <i_lp_mmshare_version>  (70) 
48012

>  <i_f3d_flags>  (70) 
0

>  <s_epik_input>  (70) 
W0NIM11PYyhbY0hdW2NIXTEpW2NIXWMoW05IXUMyPU8pYzFbQ0BdMyhPW0NIMl1bQ0gyXVMzKVtDQF0yNFtDSDJdW0NASF01QyhbTkhdNCk9TltDQEBIXTZbQ0BASF01W0NIMl1bQ0gyXVtDSDJdNg==

>  <s_epik_cmdline>  (70) 
J2VwaWtfcHl0aG9uJywgJy1waHQnLCAnMi4wJywgJy1waCcsICc3LjAnLCAnLXRuJywgJzgnLCAnLW1hJywgJzIwMCcsICctaW1hZScsICc8aW5maWxlLm1hZT4nLCAnLW9tYWUnLCAnPG91dGZpbGUubWFlPic=

>  <r_lp_tautomer_probability>  (70) 
1

>  <r_epik_Ionization_Penalty>  (70) 
0.000360002

>  <r_epik_Ionization_Penalty_Charging>  (70) 
0.000358626

>  <r_epik_Ionization_Penalty_Neutral>  (70) 
1.3761e-06

>  <r_epik_State_Penalty>  (70) 
0.41068

>  <r_epik_Charging_Adjusted_Penalty>  (70) 
0.411038

>  <i_epik_Tot_Q>  (70) 
1

>  <i_epik_Tot_abs_Q>  (70) 
1

>  <s_epik_Chemistry_Notes>  (70) 
This compound has an imine and may undergo hydrolysis.

>  <s_lp_Force_Field>  (70) 
OPLS3e

>  <r_lp_Energy>  (70) 
50.2336

>  <b_lp_Chiralities_Consistent>  (70) 
1

>  <s_lp_Variant>  (70) 
19:0-1

>  <s_i_glide_gridfile>  (70) 
pfpi4k_grid

>  <i_i_glide_lignum>  (70) 
28

>  <i_i_glide_rotatable_bonds>  (70) 
1

>  <r_i_docking_score>  (70) 
-2.42505

>  <r_i_glide_ligand_efficiency>  (70) 
-0.0898168

>  <r_i_glide_ligand_efficiency_sa>  (70) 
-0.26945

>  <r_i_glide_ligand_efficiency_ln>  (70) 
-0.564512

>  <r_i_glide_gscore>  (70) 
-2.42505

>  <r_i_glide_lipo>  (70) 
-0.269376

>  <r_i_glide_hbond>  (70) 
0

>  <r_i_glide_metal>  (70) 
-0

>  <r_i_glide_rewards>  (70) 
-0.77394

>  <r_i_glide_evdw>  (70) 
-22.9248

>  <r_i_glide_ecoul>  (70) 
-1.49814

>  <r_i_glide_erotb>  (70) 
0

>  <r_i_glide_esite>  (70) 
-0.0107779

>  <r_i_glide_emodel>  (70) 
-27.277

>  <r_i_glide_energy>  (70) 
-24.4229

>  <r_i_glide_einternal>  (70) 
0.070327

>  <r_i_glide_intrahb_reward>  (70) 
-0

>  <i_i_glide_confnum>  (70) 
3

>  <i_i_glide_posenum>  (70) 
21

>  <r_i_glide_eff_state_penalty>  (70) 
0

>  <ligand_id>  (70) 
19

>  <original_smiles>  (70) 
COc1ccc2c(c1)NC(=O)C1(CC3C(=NC4CCCC43)N1)C21OCCS1

>  <smiles>  (70) 
[H]c1c([H])c2c(c([H])c1OC([H])([H])[H])N([H])C(=O)C1(N([H])C3=[N+]([H])C4([H])C([H])([H])C([H])([H])C([H])([H])C4([H])C3([H])C1([H])[H])C21OC([H])([H])C([H])([H])S1

$$$$
19:0:2
     RDKit          3D

 51 56  0  0  1  0  0  0  0  0999 V2000
    3.1413    1.4093    3.8110 C   0  0  0  0  0  0  0  0  0  0  0  0
    3.0840    0.9123    2.4776 O   0  0  0  0  0  0  0  0  0  0  0  0
    3.3313   -0.4330    2.2803 C   0  0  0  0  0  0  0  0  0  0  0  0
    3.3042   -0.9307    0.9560 C   0  0  0  0  0  0  0  0  0  0  0  0
    3.5484   -2.2880    0.7051 C   0  0  0  0  0  0  0  0  0  0  0  0
    3.8817   -3.1647    1.7576 C   0  0  0  0  0  0  0  0  0  0  0  0
    3.8229   -2.6924    3.0838 C   0  0  0  0  0  0  0  0  0  0  0  0
    3.5729   -1.3236    3.3417 C   0  0  0  0  0  0  0  0  0  0  0  0
    4.0662   -3.5628    4.1547 N   0  0  0  0  0  0  0  0  0  0  0  0
    4.0963   -4.9013    4.0619 C   0  0  0  0  0  0  0  0  0  0  0  0
    4.3662   -5.6139    5.0089 O   0  0  0  0  0  0  0  0  0  0  0  0
    3.7158   -5.5141    2.7087 C   0  0  2  0  0  0  0  0  0  0  0  0
    2.1603   -5.6466    2.6856 C   0  0  0  0  0  0  0  0  0  0  0  0
    1.8949   -7.0285    2.0789 C   0  0  1  0  0  0  0  0  0  0  0  0
    3.1264   -7.7566    2.4198 C   0  0  0  0  0  0  0  0  0  0  0  0
    2.9480   -9.0908    2.5739 N   0  0  0  0  0  0  0  0  0  0  0  0
    1.5264   -9.3040    2.3027 C   0  0  1  0  0  0  0  0  0  0  0  0
    0.6285  -10.3047    3.0107 C   0  0  0  0  0  0  0  0  0  0  0  0
   -0.7614   -9.6388    2.7908 C   0  0  0  0  0  0  0  0  0  0  0  0
   -0.5293   -8.1411    2.4562 C   0  0  0  0  0  0  0  0  0  0  0  0
    0.9463   -7.9885    2.7703 C   0  0  2  0  0  0  0  0  0  0  0  0
    4.1485   -6.9264    2.6199 N   0  0  0  0  0  0  0  0  0  0  0  0
    4.2058   -4.6274    1.5377 C   0  0  1  0  0  0  0  0  0  0  0  0
    3.7718   -5.1109    0.2919 O   0  0  0  0  0  0  0  0  0  0  0  0
    4.7431   -4.8031   -0.7366 C   0  0  0  0  0  0  0  0  0  0  0  0
    5.9635   -4.1353   -0.1044 C   0  0  0  0  0  0  0  0  0  0  0  0
    5.9203   -4.6872    1.5101 S   0  0  0  0  0  0  0  0  0  0  0  0
    2.9260    2.4791    3.8198 H   0  0  0  0  0  0  0  0  0  0  0  0
    4.1400    1.2586    4.2233 H   0  0  0  0  0  0  0  0  0  0  0  0
    2.4050    0.9075    4.4415 H   0  0  0  0  0  0  0  0  0  0  0  0
    3.1439   -0.2486    0.1368 H   0  0  0  0  0  0  0  0  0  0  0  0
    3.5073   -2.5920   -0.3369 H   0  0  0  0  0  0  0  0  0  0  0  0
    3.6205   -0.9922    4.3625 H   0  0  0  0  0  0  0  0  0  0  0  0
    4.2885   -3.1574    5.0411 H   0  0  0  0  0  0  0  0  0  0  0  0
    1.7017   -5.5975    3.6714 H   0  0  0  0  0  0  0  0  0  0  0  0
    1.6570   -4.8912    2.0899 H   0  0  0  0  0  0  0  0  0  0  0  0
    1.7631   -7.0015    0.9886 H   0  0  0  0  0  0  0  0  0  0  0  0
    1.4261   -9.3983    1.2263 H   0  0  0  0  0  0  0  0  0  0  0  0
    0.6807  -11.2873    2.5420 H   0  0  0  0  0  0  0  0  0  0  0  0
    0.8809  -10.4002    4.0687 H   0  0  0  0  0  0  0  0  0  0  0  0
   -1.2945  -10.1139    1.9671 H   0  0  0  0  0  0  0  0  0  0  0  0
   -1.3722   -9.7396    3.6830 H   0  0  0  0  0  0  0  0  0  0  0  0
   -0.7269   -7.9305    1.4036 H   0  0  0  0  0  0  0  0  0  0  0  0
   -1.1455   -7.4782    3.0659 H   0  0  0  0  0  0  0  0  0  0  0  0
    1.0668   -7.8976    3.8561 H   0  0  0  0  0  0  0  0  0  0  0  0
    5.0872   -7.1999    2.8286 H   0  0  0  0  0  0  0  0  0  0  0  0
    5.0214   -5.7403   -1.2289 H   0  0  0  0  0  0  0  0  0  0  0  0
    4.3650   -4.1863   -1.5746 H   0  0  0  0  0  0  0  0  0  0  0  0
    6.9284   -4.3556   -0.5552 H   0  0  0  0  0  0  0  0  0  0  0  0
    5.8552   -3.0673   -0.0732 H   0  0  0  0  0  0  0  0  0  0  0  0
    3.6374   -9.7964    2.7976 H   0  0  0  0  0  0  0  0  0  0  0  0
  1  2  1  0
  1 28  1  0
  1 29  1  0
  1 30  1  0
  2  3  1  0
  3  8  2  0
  3  4  1  0
  4  5  2  0
  4 31  1  0
  5  6  1  0
  5 32  1  0
  6 23  1  0
  6  7  2  0
  7  8  1  0
  7  9  1  0
  8 33  1  0
  9 10  1  0
  9 34  1  0
 10 11  2  0
 10 12  1  0
 12 22  1  6
 12 13  1  0
 12 23  1  0
 13 14  1  0
 13 35  1  0
 13 36  1  0
 14 21  1  0
 14 15  1  0
 14 37  1  6
 15 16  2  0
 15 22  1  0
 16 17  1  0
 16 51  1  0
 17 21  1  0
 17 18  1  0
 17 38  1  6
 18 19  1  0
 18 39  1  0
 18 40  1  0
 19 20  1  0
 19 41  1  0
 19 42  1  0
 20 21  1  0
 20 43  1  0
 20 44  1  0
 21 45  1  1
 22 46  1  0
 23 27  1  0
 23 24  1  6
 24 25  1  0
 25 26  1  0
 25 47  1  0
 25 48  1  0
 26 27  1  0
 26 49  1  0
 26 50  1  0
M  CHG  1  16   1
M  END
>  <i_m_ct_stereo_status>  (71) 
1

>  <s_m_source_file>  (71) 
/var/tmp/pbs.5076255.sched01/tmp6yc3ji7b/0haed4tc5.sdf

>  <i_m_source_file_index>  (71) 
28

>  <i_lp_mmshare_version>  (71) 
48012

>  <i_f3d_flags>  (71) 
0

>  <s_epik_input>  (71) 
W0NIM11PYyhbY0hdW2NIXTEpW2NIXWMoW05IXUMyPU8pYzFbQ0BdMyhPW0NIMl1bQ0gyXVMzKVtDQF0yNFtDSDJdW0NASF01QyhbTkhdNCk9TltDQEBIXTZbQ0BASF01W0NIMl1bQ0gyXVtDSDJdNg==

>  <s_epik_cmdline>  (71) 
J2VwaWtfcHl0aG9uJywgJy1waHQnLCAnMi4wJywgJy1waCcsICc3LjAnLCAnLXRuJywgJzgnLCAnLW1hJywgJzIwMCcsICctaW1hZScsICc8aW5maWxlLm1hZT4nLCAnLW9tYWUnLCAnPG91dGZpbGUubWFlPic=

>  <r_lp_tautomer_probability>  (71) 
1

>  <r_epik_Ionization_Penalty>  (71) 
0.000360002

>  <r_epik_Ionization_Penalty_Charging>  (71) 
0.000358626

>  <r_epik_Ionization_Penalty_Neutral>  (71) 
1.3761e-06

>  <r_epik_State_Penalty>  (71) 
0.41068

>  <r_epik_Charging_Adjusted_Penalty>  (71) 
0.411038

>  <i_epik_Tot_Q>  (71) 
1

>  <i_epik_Tot_abs_Q>  (71) 
1

>  <s_epik_Chemistry_Notes>  (71) 
This compound has an imine and may undergo hydrolysis.

>  <s_lp_Force_Field>  (71) 
OPLS3e

>  <r_lp_Energy>  (71) 
50.2336

>  <b_lp_Chiralities_Consistent>  (71) 
1

>  <s_lp_Variant>  (71) 
19:0-1

>  <s_i_glide_gridfile>  (71) 
pfpi4k_grid

>  <i_i_glide_lignum>  (71) 
28

>  <i_i_glide_rotatable_bonds>  (71) 
1

>  <r_i_docking_score>  (71) 
-2.40066

>  <r_i_glide_ligand_efficiency>  (71) 
-0.0889135

>  <r_i_glide_ligand_efficiency_sa>  (71) 
-0.26674

>  <r_i_glide_ligand_efficiency_ln>  (71) 
-0.558835

>  <r_i_glide_gscore>  (71) 
-2.40066

>  <r_i_glide_lipo>  (71) 
-0.300041

>  <r_i_glide_hbond>  (71) 
0

>  <r_i_glide_metal>  (71) 
-0

>  <r_i_glide_rewards>  (71) 
-0.77394

>  <r_i_glide_evdw>  (71) 
-20.6515

>  <r_i_glide_ecoul>  (71) 
-1.84532

>  <r_i_glide_erotb>  (71) 
0

>  <r_i_glide_esite>  (71) 
-0.01731

>  <r_i_glide_emodel>  (71) 
-25.0492

>  <r_i_glide_energy>  (71) 
-22.4968

>  <r_i_glide_einternal>  (71) 
0.0806864

>  <r_i_glide_intrahb_reward>  (71) 
-0

>  <i_i_glide_confnum>  (71) 
5

>  <i_i_glide_posenum>  (71) 
29

>  <r_i_glide_eff_state_penalty>  (71) 
0

>  <ligand_id>  (71) 
19

>  <original_smiles>  (71) 
COc1ccc2c(c1)NC(=O)C1(CC3C(=NC4CCCC43)N1)C21OCCS1

>  <smiles>  (71) 
[H]c1c([H])c2c(c([H])c1OC([H])([H])[H])N([H])C(=O)C1(N([H])C3=[N+]([H])C4([H])C([H])([H])C([H])([H])C([H])([H])C4([H])C3([H])C1([H])[H])C21OC([H])([H])C([H])([H])S1

$$$$
19:1:0
     RDKit          3D

 51 56  0  0  1  0  0  0  0  0999 V2000
   -2.8274    3.0344    2.8764 C   0  0  0  0  0  0  0  0  0  0  0  0
   -1.4123    3.2008    2.8728 O   0  0  0  0  0  0  0  0  0  0  0  0
   -0.6456    2.0973    3.0888 C   0  0  0  0  0  0  0  0  0  0  0  0
   -1.1183    0.9647    3.8072 C   0  0  0  0  0  0  0  0  0  0  0  0
   -0.3024   -0.1140    4.0569 C   0  0  0  0  0  0  0  0  0  0  0  0
    1.0320   -0.1913    3.5434 C   0  0  0  0  0  0  0  0  0  0  0  0
    1.5150    0.9530    2.8456 C   0  0  0  0  0  0  0  0  0  0  0  0
    0.7095    2.0565    2.6245 C   0  0  0  0  0  0  0  0  0  0  0  0
    2.8567    0.9205    2.3218 N   0  0  0  0  0  0  0  0  0  0  0  0
    3.6031   -0.1561    2.2372 C   0  0  0  0  0  0  0  0  0  0  0  0
    4.7793   -0.0820    1.8181 O   0  0  0  0  0  0  0  0  0  0  0  0
    3.0048   -1.5346    2.6002 C   0  0  2  0  0  0  0  0  0  0  0  0
    4.1354   -2.5268    2.9845 C   0  0  0  0  0  0  0  0  0  0  0  0
    3.7087   -3.8453    2.3560 C   0  0  1  0  0  0  0  0  0  0  0  0
    2.9701   -3.3588    1.1718 C   0  0  0  0  0  0  0  0  0  0  0  0
    3.0274   -4.2056    0.1125 N   0  0  0  0  0  0  0  0  0  0  0  0
    3.8437   -5.3310    0.5898 C   0  0  1  0  0  0  0  0  0  0  0  0
    4.8688   -6.0929   -0.2411 C   0  0  0  0  0  0  0  0  0  0  0  0
    5.7993   -6.6552    0.8751 C   0  0  0  0  0  0  0  0  0  0  0  0
    5.5669   -5.7983    2.1484 C   0  0  0  0  0  0  0  0  0  0  0  0
    4.7386   -4.6491    1.5973 C   0  0  2  0  0  0  0  0  0  0  0  0
    2.4662   -2.1273    1.3392 N   0  0  0  0  0  0  0  0  0  0  0  0
    1.9283   -1.3862    3.7437 C   0  0  1  0  0  0  0  0  0  0  0  0
    2.5286   -1.3896    5.0273 O   0  0  0  0  0  0  0  0  0  0  0  0
    2.4915   -2.6916    5.6586 C   0  0  0  0  0  0  0  0  0  0  0  0
    1.2164   -3.3480    5.2233 C   0  0  0  0  0  0  0  0  0  0  0  0
    0.8274   -2.7278    3.6863 S   0  0  0  0  0  0  0  0  0  0  0  0
   -3.2957    3.9975    2.6927 H   0  0  0  0  0  0  0  0  0  0  0  0
   -3.2073    2.6754    3.8316 H   0  0  0  0  0  0  0  0  0  0  0  0
   -3.1302    2.3516    2.0822 H   0  0  0  0  0  0  0  0  0  0  0  0
   -2.1375    0.9253    4.1775 H   0  0  0  0  0  0  0  0  0  0  0  0
   -0.7236   -0.9527    4.5895 H   0  0  0  0  0  0  0  0  0  0  0  0
    1.0736    2.9335    2.0704 H   0  0  0  0  0  0  0  0  0  0  0  0
    3.2494    1.8156    1.9957 H   0  0  0  0  0  0  0  0  0  0  0  0
    5.1239   -2.2618    2.6167 H   0  0  0  0  0  0  0  0  0  0  0  0
    4.3456   -2.5950    4.0296 H   0  0  0  0  0  0  0  0  0  0  0  0
    3.0538   -4.4776    2.9673 H   0  0  0  0  0  0  0  0  0  0  0  0
    3.1794   -6.0369    1.0866 H   0  0  0  0  0  0  0  0  0  0  0  0
    4.4115   -6.9032   -0.8042 H   0  0  0  0  0  0  0  0  0  0  0  0
    5.4054   -5.4406   -0.9291 H   0  0  0  0  0  0  0  0  0  0  0  0
    5.5671   -7.6986    1.0898 H   0  0  0  0  0  0  0  0  0  0  0  0
    6.8417   -6.6172    0.5613 H   0  0  0  0  0  0  0  0  0  0  0  0
    5.0025   -6.3493    2.9020 H   0  0  0  0  0  0  0  0  0  0  0  0
    6.5018   -5.4557    2.5979 H   0  0  0  0  0  0  0  0  0  0  0  0
    5.4135   -3.9519    1.0875 H   0  0  0  0  0  0  0  0  0  0  0  0
    3.2802   -3.3726    5.3419 H   0  0  0  0  0  0  0  0  0  0  0  0
    2.6431   -2.6757    6.7468 H   0  0  0  0  0  0  0  0  0  0  0  0
    1.3377   -4.3988    5.0192 H   0  0  0  0  0  0  0  0  0  0  0  0
    0.3889   -3.1149    5.8627 H   0  0  0  0  0  0  0  0  0  0  0  0
    2.6501   -4.0991   -0.8170 H   0  0  0  0  0  0  0  0  0  0  0  0
    1.8501   -1.6296    0.6967 H   0  0  0  0  0  0  0  0  0  0  0  0
  1  2  1  0
  1 28  1  0
  1 29  1  0
  1 30  1  0
  2  3  1  0
  3  8  2  0
  3  4  1  0
  4  5  2  0
  4 31  1  0
  5  6  1  0
  5 32  1  0
  6 23  1  0
  6  7  2  0
  7  8  1  0
  7  9  1  0
  8 33  1  0
  9 10  1  0
  9 34  1  0
 10 11  2  0
 10 12  1  0
 12 22  1  0
 12 13  1  1
 12 23  1  0
 13 14  1  0
 13 35  1  0
 13 36  1  0
 14 21  1  0
 14 15  1  0
 14 37  1  1
 15 16  1  0
 15 22  2  0
 16 17  1  0
 16 50  1  0
 17 21  1  0
 17 18  1  0
 17 38  1  1
 18 19  1  0
 18 39  1  0
 18 40  1  0
 19 20  1  0
 19 41  1  0
 19 42  1  0
 20 21  1  0
 20 43  1  0
 20 44  1  0
 21 45  1  6
 22 51  1  0
 23 27  1  0
 23 24  1  1
 24 25  1  0
 25 26  1  0
 25 46  1  0
 25 47  1  0
 26 27  1  0
 26 48  1  0
 26 49  1  0
M  CHG  1  22   1
M  END
>  <i_m_ct_stereo_status>  (72) 
1

>  <s_m_source_file>  (72) 
/var/tmp/pbs.5076255.sched01/tmp6yc3ji7b/0haed4tc5.sdf

>  <i_m_source_file_index>  (72) 
29

>  <i_lp_mmshare_version>  (72) 
48012

>  <i_f3d_flags>  (72) 
0

>  <s_epik_input>  (72) 
W0NIM11PYyhbY0hdW2NIXTEpW2NIXWMoW05IXUMyPU8pYzFbQ0BdMyhPW0NIMl1bQ0gyXVMzKVtDQF0yNFtDSDJdW0NASF01QyhbTkhdNCk9TltDQEBIXTZbQ0BASF01W0NIMl1bQ0gyXVtDSDJdNg==

>  <s_epik_cmdline>  (72) 
J2VwaWtfcHl0aG9uJywgJy1waHQnLCAnMi4wJywgJy1waCcsICc3LjAnLCAnLXRuJywgJzgnLCAnLW1hJywgJzIwMCcsICctaW1hZScsICc8aW5maWxlLm1hZT4nLCAnLW9tYWUnLCAnPG91dGZpbGUubWFlPic=

>  <r_lp_tautomer_probability>  (72) 
1

>  <r_epik_Ionization_Penalty>  (72) 
0.000359503

>  <r_epik_Ionization_Penalty_Charging>  (72) 
0.000358626

>  <r_epik_Ionization_Penalty_Neutral>  (72) 
8.76763e-07

>  <r_epik_State_Penalty>  (72) 
0.41068

>  <r_epik_Charging_Adjusted_Penalty>  (72) 
0.411038

>  <i_epik_Tot_Q>  (72) 
1

>  <i_epik_Tot_abs_Q>  (72) 
1

>  <s_epik_Chemistry_Notes>  (72) 
This compound has an imine and may undergo hydrolysis.

>  <s_lp_Force_Field>  (72) 
OPLS3e

>  <r_lp_Energy>  (72) 
51.1381

>  <b_lp_Chiralities_Consistent>  (72) 
1

>  <s_lp_Variant>  (72) 
19:0-2

>  <s_i_glide_gridfile>  (72) 
pfpi4k_grid

>  <i_i_glide_lignum>  (72) 
29

>  <i_i_glide_rotatable_bonds>  (72) 
1

>  <r_i_docking_score>  (72) 
-3.0331

>  <r_i_glide_ligand_efficiency>  (72) 
-0.112337

>  <r_i_glide_ligand_efficiency_sa>  (72) 
-0.337011

>  <r_i_glide_ligand_efficiency_ln>  (72) 
-0.706055

>  <r_i_glide_gscore>  (72) 
-3.0331

>  <r_i_glide_lipo>  (72) 
-0.191032

>  <r_i_glide_hbond>  (72) 
-0.328758

>  <r_i_glide_metal>  (72) 
-0

>  <r_i_glide_rewards>  (72) 
-0.798524

>  <r_i_glide_evdw>  (72) 
-20.1679

>  <r_i_glide_ecoul>  (72) 
-4.19385

>  <r_i_glide_erotb>  (72) 
0

>  <r_i_glide_esite>  (72) 
-0.0773103

>  <r_i_glide_emodel>  (72) 
-26.9249

>  <r_i_glide_energy>  (72) 
-24.3618

>  <r_i_glide_einternal>  (72) 
0.978468

>  <r_i_glide_intrahb_reward>  (72) 
-0

>  <i_i_glide_confnum>  (72) 
3

>  <i_i_glide_posenum>  (72) 
3

>  <r_i_glide_eff_state_penalty>  (72) 
0

>  <ligand_id>  (72) 
19

>  <original_smiles>  (72) 
COc1ccc2c(c1)NC(=O)C1(CC3C(=NC4CCCC43)N1)C21OCCS1

>  <smiles>  (72) 
[H]c1c([H])c2c(c([H])c1OC([H])([H])[H])N([H])C(=O)C1([N+]([H])=C3N([H])C4([H])C([H])([H])C([H])([H])C([H])([H])C4([H])C3([H])C1([H])[H])C21OC([H])([H])C([H])([H])S1

$$$$
19:1:1
     RDKit          3D

 51 56  0  0  1  0  0  0  0  0999 V2000
    3.6363   -0.3434    0.6696 C   0  0  0  0  0  0  0  0  0  0  0  0
    3.9080   -0.5833    2.0400 O   0  0  0  0  0  0  0  0  0  0  0  0
    3.5347    0.3882    2.9518 C   0  0  0  0  0  0  0  0  0  0  0  0
    4.1119    0.3541    4.2408 C   0  0  0  0  0  0  0  0  0  0  0  0
    3.7767    1.3348    5.1959 C   0  0  0  0  0  0  0  0  0  0  0  0
    2.9033    2.3926    4.8576 C   0  0  0  0  0  0  0  0  0  0  0  0
    2.2494    2.3773    3.6173 C   0  0  0  0  0  0  0  0  0  0  0  0
    2.5772    1.3989    2.6577 C   0  0  0  0  0  0  0  0  0  0  0  0
    1.3171    3.3833    3.2926 N   0  0  0  0  0  0  0  0  0  0  0  0
    0.7658    4.2178    4.1871 C   0  0  0  0  0  0  0  0  0  0  0  0
   -0.0244    5.0987    3.8684 O   0  0  0  0  0  0  0  0  0  0  0  0
    1.1039    3.9883    5.6626 C   0  0  2  0  0  0  0  0  0  0  0  0
    0.1076    2.9344    6.2005 C   0  0  0  0  0  0  0  0  0  0  0  0
   -0.3084    3.4567    7.5797 C   0  0  1  0  0  0  0  0  0  0  0  0
   -0.1265    4.9061    7.4196 C   0  0  0  0  0  0  0  0  0  0  0  0
   -0.9473    5.6488    8.1918 N   0  0  0  0  0  0  0  0  0  0  0  0
   -1.7285    4.6643    8.9446 C   0  0  1  0  0  0  0  0  0  0  0  0
   -3.1963    4.7986    9.3040 C   0  0  0  0  0  0  0  0  0  0  0  0
   -3.5975    3.3050    9.4697 C   0  0  0  0  0  0  0  0  0  0  0  0
   -2.5396    2.4542    8.7194 C   0  0  0  0  0  0  0  0  0  0  0  0
   -1.7771    3.5213    7.9631 C   0  0  2  0  0  0  0  0  0  0  0  0
    0.7653    5.1847    6.4708 N   0  0  0  0  0  0  0  0  0  0  0  0
    2.5632    3.5073    5.8330 C   0  0  1  0  0  0  0  0  0  0  0  0
    2.8753    3.1823    7.1731 O   0  0  0  0  0  0  0  0  0  0  0  0
    4.2822    3.4622    7.4602 C   0  0  0  0  0  0  0  0  0  0  0  0
    4.9273    4.0952    6.2322 C   0  0  0  0  0  0  0  0  0  0  0  0
    3.5972    4.8142    5.3927 S   0  0  0  0  0  0  0  0  0  0  0  0
    3.9533   -1.2029    0.0784 H   0  0  0  0  0  0  0  0  0  0  0  0
    4.1933    0.5344    0.3391 H   0  0  0  0  0  0  0  0  0  0  0  0
    2.5704   -0.1966    0.5021 H   0  0  0  0  0  0  0  0  0  0  0  0
    4.8756   -0.3986    4.4533 H   0  0  0  0  0  0  0  0  0  0  0  0
    4.2899    1.2586    6.1389 H   0  0  0  0  0  0  0  0  0  0  0  0
    2.1191    1.4665    1.6808 H   0  0  0  0  0  0  0  0  0  0  0  0
    1.0649    3.5175    2.3235 H   0  0  0  0  0  0  0  0  0  0  0  0
   -0.7912    2.8120    5.5767 H   0  0  0  0  0  0  0  0  0  0  0  0
    0.5290    1.9297    6.3119 H   0  0  0  0  0  0  0  0  0  0  0  0
    0.3339    3.0857    8.3909 H   0  0  0  0  0  0  0  0  0  0  0  0
   -1.1417    4.3875    9.8217 H   0  0  0  0  0  0  0  0  0  0  0  0
   -3.3074    5.3484   10.2327 H   0  0  0  0  0  0  0  0  0  0  0  0
   -3.7663    5.2972    8.5201 H   0  0  0  0  0  0  0  0  0  0  0  0
   -3.6089    3.0158   10.5210 H   0  0  0  0  0  0  0  0  0  0  0  0
   -4.5973    3.1341    9.0769 H   0  0  0  0  0  0  0  0  0  0  0  0
   -1.8766    1.9329    9.4128 H   0  0  0  0  0  0  0  0  0  0  0  0
   -2.9863    1.7278    8.0406 H   0  0  0  0  0  0  0  0  0  0  0  0
   -2.3583    3.8091    7.0793 H   0  0  0  0  0  0  0  0  0  0  0  0
    4.3286    4.1497    8.3071 H   0  0  0  0  0  0  0  0  0  0  0  0
    4.8603    2.5901    7.7987 H   0  0  0  0  0  0  0  0  0  0  0  0
    5.6882    4.8238    6.4349 H   0  0  0  0  0  0  0  0  0  0  0  0
    5.3262    3.3332    5.5925 H   0  0  0  0  0  0  0  0  0  0  0  0
   -1.0006    6.6550    8.2710 H   0  0  0  0  0  0  0  0  0  0  0  0
    1.0807    6.0983    6.2068 H   0  0  0  0  0  0  0  0  0  0  0  0
  1  2  1  0
  1 28  1  0
  1 29  1  0
  1 30  1  0
  2  3  1  0
  3  8  2  0
  3  4  1  0
  4  5  2  0
  4 31  1  0
  5  6  1  0
  5 32  1  0
  6 23  1  0
  6  7  2  0
  7  8  1  0
  7  9  1  0
  8 33  1  0
  9 10  1  0
  9 34  1  0
 10 11  2  0
 10 12  1  0
 12 22  1  0
 12 13  1  1
 12 23  1  0
 13 14  1  0
 13 35  1  0
 13 36  1  0
 14 21  1  0
 14 15  1  0
 14 37  1  1
 15 16  1  0
 15 22  2  0
 16 17  1  0
 16 50  1  0
 17 21  1  0
 17 18  1  0
 17 38  1  1
 18 19  1  0
 18 39  1  0
 18 40  1  0
 19 20  1  0
 19 41  1  0
 19 42  1  0
 20 21  1  0
 20 43  1  0
 20 44  1  0
 21 45  1  6
 22 51  1  0
 23 27  1  0
 23 24  1  1
 24 25  1  0
 25 26  1  0
 25 46  1  0
 25 47  1  0
 26 27  1  0
 26 48  1  0
 26 49  1  0
M  CHG  1  22   1
M  END
>  <i_m_ct_stereo_status>  (73) 
1

>  <s_m_source_file>  (73) 
/var/tmp/pbs.5076255.sched01/tmp6yc3ji7b/0haed4tc5.sdf

>  <i_m_source_file_index>  (73) 
29

>  <i_lp_mmshare_version>  (73) 
48012

>  <i_f3d_flags>  (73) 
0

>  <s_epik_input>  (73) 
W0NIM11PYyhbY0hdW2NIXTEpW2NIXWMoW05IXUMyPU8pYzFbQ0BdMyhPW0NIMl1bQ0gyXVMzKVtDQF0yNFtDSDJdW0NASF01QyhbTkhdNCk9TltDQEBIXTZbQ0BASF01W0NIMl1bQ0gyXVtDSDJdNg==

>  <s_epik_cmdline>  (73) 
J2VwaWtfcHl0aG9uJywgJy1waHQnLCAnMi4wJywgJy1waCcsICc3LjAnLCAnLXRuJywgJzgnLCAnLW1hJywgJzIwMCcsICctaW1hZScsICc8aW5maWxlLm1hZT4nLCAnLW9tYWUnLCAnPG91dGZpbGUubWFlPic=

>  <r_lp_tautomer_probability>  (73) 
1

>  <r_epik_Ionization_Penalty>  (73) 
0.000359503

>  <r_epik_Ionization_Penalty_Charging>  (73) 
0.000358626

>  <r_epik_Ionization_Penalty_Neutral>  (73) 
8.76763e-07

>  <r_epik_State_Penalty>  (73) 
0.41068

>  <r_epik_Charging_Adjusted_Penalty>  (73) 
0.411038

>  <i_epik_Tot_Q>  (73) 
1

>  <i_epik_Tot_abs_Q>  (73) 
1

>  <s_epik_Chemistry_Notes>  (73) 
This compound has an imine and may undergo hydrolysis.

>  <s_lp_Force_Field>  (73) 
OPLS3e

>  <r_lp_Energy>  (73) 
51.1381

>  <b_lp_Chiralities_Consistent>  (73) 
1

>  <s_lp_Variant>  (73) 
19:0-2

>  <s_i_glide_gridfile>  (73) 
pfpi4k_grid

>  <i_i_glide_lignum>  (73) 
29

>  <i_i_glide_rotatable_bonds>  (73) 
1

>  <r_i_docking_score>  (73) 
-2.65244

>  <r_i_glide_ligand_efficiency>  (73) 
-0.0982386

>  <r_i_glide_ligand_efficiency_sa>  (73) 
-0.294716

>  <r_i_glide_ligand_efficiency_ln>  (73) 
-0.617445

>  <r_i_glide_gscore>  (73) 
-2.65244

>  <r_i_glide_lipo>  (73) 
-0.127309

>  <r_i_glide_hbond>  (73) 
-0.16

>  <r_i_glide_metal>  (73) 
-0

>  <r_i_glide_rewards>  (73) 
-0.77394

>  <r_i_glide_evdw>  (73) 
-19.7203

>  <r_i_glide_ecoul>  (73) 
-3.16241

>  <r_i_glide_erotb>  (73) 
0

>  <r_i_glide_esite>  (73) 
-0.130818

>  <r_i_glide_emodel>  (73) 
-26.1283

>  <r_i_glide_energy>  (73) 
-22.8827

>  <r_i_glide_einternal>  (73) 
0.81011

>  <r_i_glide_intrahb_reward>  (73) 
-0

>  <i_i_glide_confnum>  (73) 
4

>  <i_i_glide_posenum>  (73) 
5

>  <r_i_glide_eff_state_penalty>  (73) 
0

>  <ligand_id>  (73) 
19

>  <original_smiles>  (73) 
COc1ccc2c(c1)NC(=O)C1(CC3C(=NC4CCCC43)N1)C21OCCS1

>  <smiles>  (73) 
[H]c1c([H])c2c(c([H])c1OC([H])([H])[H])N([H])C(=O)C1([N+]([H])=C3N([H])C4([H])C([H])([H])C([H])([H])C([H])([H])C4([H])C3([H])C1([H])[H])C21OC([H])([H])C([H])([H])S1

$$$$
19:1:2
     RDKit          3D

 51 56  0  0  1  0  0  0  0  0999 V2000
    2.8372    1.5606    2.8892 C   0  0  0  0  0  0  0  0  0  0  0  0
    3.0582    0.8669    1.6609 O   0  0  0  0  0  0  0  0  0  0  0  0
    3.2529   -0.4978    1.7100 C   0  0  0  0  0  0  0  0  0  0  0  0
    3.4155   -1.2084    0.4959 C   0  0  0  0  0  0  0  0  0  0  0  0
    3.5970   -2.5931    0.4963 C   0  0  0  0  0  0  0  0  0  0  0  0
    3.6444   -3.2873    1.7219 C   0  0  0  0  0  0  0  0  0  0  0  0
    3.4192   -2.6072    2.9231 C   0  0  0  0  0  0  0  0  0  0  0  0
    3.2461   -1.2183    2.9202 C   0  0  0  0  0  0  0  0  0  0  0  0
    3.4551   -3.2996    4.1502 N   0  0  0  0  0  0  0  0  0  0  0  0
    3.4329   -4.6272    4.2805 C   0  0  0  0  0  0  0  0  0  0  0  0
    3.5072   -5.1776    5.3700 O   0  0  0  0  0  0  0  0  0  0  0  0
    3.2288   -5.4437    3.0163 C   0  0  2  0  0  0  0  0  0  0  0  0
    1.6956   -5.5181    2.7317 C   0  0  0  0  0  0  0  0  0  0  0  0
    1.4506   -6.9562    2.2814 C   0  0  1  0  0  0  0  0  0  0  0  0
    2.5505   -7.6690    2.9421 C   0  0  0  0  0  0  0  0  0  0  0  0
    2.2695   -8.9649    3.2399 N   0  0  0  0  0  0  0  0  0  0  0  0
    0.9080   -9.1638    2.7362 C   0  0  1  0  0  0  0  0  0  0  0  0
   -0.1619  -10.0013    3.4194 C   0  0  0  0  0  0  0  0  0  0  0  0
   -1.4549   -9.3310    2.8678 C   0  0  0  0  0  0  0  0  0  0  0  0
   -1.0700   -7.9163    2.3588 C   0  0  0  0  0  0  0  0  0  0  0  0
    0.3348   -7.7724    2.9036 C   0  0  2  0  0  0  0  0  0  0  0  0
    3.5839   -6.8663    3.2150 N   0  0  0  0  0  0  0  0  0  0  0  0
    3.9705   -4.7770    1.7944 C   0  0  1  0  0  0  0  0  0  0  0  0
    3.6762   -5.4398    0.5922 O   0  0  0  0  0  0  0  0  0  0  0  0
    4.6191   -6.4500    0.3301 C   0  0  0  0  0  0  0  0  0  0  0  0
    5.9742   -5.8941    0.7333 C   0  0  0  0  0  0  0  0  0  0  0  0
    5.6733   -4.7794    2.0248 S   0  0  0  0  0  0  0  0  0  0  0  0
    2.6963    2.6273    2.7046 H   0  0  0  0  0  0  0  0  0  0  0  0
    3.6967    1.4510    3.5533 H   0  0  0  0  0  0  0  0  0  0  0  0
    1.9432    1.1876    3.3934 H   0  0  0  0  0  0  0  0  0  0  0  0
    3.4469   -0.6624   -0.4427 H   0  0  0  0  0  0  0  0  0  0  0  0
    3.7843   -3.0906   -0.4542 H   0  0  0  0  0  0  0  0  0  0  0  0
    3.1723   -0.7270    3.8780 H   0  0  0  0  0  0  0  0  0  0  0  0
    3.5790   -2.7494    4.9840 H   0  0  0  0  0  0  0  0  0  0  0  0
    1.0892   -5.3007    3.5984 H   0  0  0  0  0  0  0  0  0  0  0  0
    1.3704   -4.8458    1.9530 H   0  0  0  0  0  0  0  0  0  0  0  0
    1.5132   -7.0968    1.1940 H   0  0  0  0  0  0  0  0  0  0  0  0
    0.9820   -9.4233    1.6777 H   0  0  0  0  0  0  0  0  0  0  0  0
   -0.0887  -11.0484    3.1266 H   0  0  0  0  0  0  0  0  0  0  0  0
   -0.1018   -9.9359    4.5087 H   0  0  0  0  0  0  0  0  0  0  0  0
   -1.8669   -9.9078    2.0417 H   0  0  0  0  0  0  0  0  0  0  0  0
   -2.2161   -9.2767    3.6443 H   0  0  0  0  0  0  0  0  0  0  0  0
   -1.0566   -7.8765    1.2679 H   0  0  0  0  0  0  0  0  0  0  0  0
   -1.7433   -7.1412    2.7300 H   0  0  0  0  0  0  0  0  0  0  0  0
    0.2686   -7.5265    3.9693 H   0  0  0  0  0  0  0  0  0  0  0  0
    4.3890   -7.3577    0.8946 H   0  0  0  0  0  0  0  0  0  0  0  0
    4.5923   -6.7847   -0.7006 H   0  0  0  0  0  0  0  0  0  0  0  0
    6.6749   -6.6521    1.0579 H   0  0  0  0  0  0  0  0  0  0  0  0
    6.4247   -5.3391   -0.0900 H   0  0  0  0  0  0  0  0  0  0  0  0
    2.8561   -9.6474    3.6904 H   0  0  0  0  0  0  0  0  0  0  0  0
    4.4538   -7.1497    3.6194 H   0  0  0  0  0  0  0  0  0  0  0  0
  1  2  1  0
  1 28  1  0
  1 29  1  0
  1 30  1  0
  2  3  1  0
  3  8  2  0
  3  4  1  0
  4  5  2  0
  4 31  1  0
  5  6  1  0
  5 32  1  0
  6 23  1  0
  6  7  2  0
  7  8  1  0
  7  9  1  0
  8 33  1  0
  9 10  1  0
  9 34  1  0
 10 11  2  0
 10 12  1  0
 12 22  1  0
 12 13  1  6
 12 23  1  0
 13 14  1  0
 13 35  1  0
 13 36  1  0
 14 21  1  0
 14 15  1  0
 14 37  1  6
 15 16  1  0
 15 22  2  0
 16 17  1  0
 16 50  1  0
 17 21  1  0
 17 18  1  0
 17 38  1  6
 18 19  1  0
 18 39  1  0
 18 40  1  0
 19 20  1  0
 19 41  1  0
 19 42  1  0
 20 21  1  0
 20 43  1  0
 20 44  1  0
 21 45  1  1
 22 51  1  0
 23 27  1  0
 23 24  1  6
 24 25  1  0
 25 26  1  0
 25 46  1  0
 25 47  1  0
 26 27  1  0
 26 48  1  0
 26 49  1  0
M  CHG  1  22   1
M  END
>  <i_m_ct_stereo_status>  (74) 
1

>  <s_m_source_file>  (74) 
/var/tmp/pbs.5076255.sched01/tmp6yc3ji7b/0haed4tc5.sdf

>  <i_m_source_file_index>  (74) 
29

>  <i_lp_mmshare_version>  (74) 
48012

>  <i_f3d_flags>  (74) 
0

>  <s_epik_input>  (74) 
W0NIM11PYyhbY0hdW2NIXTEpW2NIXWMoW05IXUMyPU8pYzFbQ0BdMyhPW0NIMl1bQ0gyXVMzKVtDQF0yNFtDSDJdW0NASF01QyhbTkhdNCk9TltDQEBIXTZbQ0BASF01W0NIMl1bQ0gyXVtDSDJdNg==

>  <s_epik_cmdline>  (74) 
J2VwaWtfcHl0aG9uJywgJy1waHQnLCAnMi4wJywgJy1waCcsICc3LjAnLCAnLXRuJywgJzgnLCAnLW1hJywgJzIwMCcsICctaW1hZScsICc8aW5maWxlLm1hZT4nLCAnLW9tYWUnLCAnPG91dGZpbGUubWFlPic=

>  <r_lp_tautomer_probability>  (74) 
1

>  <r_epik_Ionization_Penalty>  (74) 
0.000359503

>  <r_epik_Ionization_Penalty_Charging>  (74) 
0.000358626

>  <r_epik_Ionization_Penalty_Neutral>  (74) 
8.76763e-07

>  <r_epik_State_Penalty>  (74) 
0.41068

>  <r_epik_Charging_Adjusted_Penalty>  (74) 
0.411038

>  <i_epik_Tot_Q>  (74) 
1

>  <i_epik_Tot_abs_Q>  (74) 
1

>  <s_epik_Chemistry_Notes>  (74) 
This compound has an imine and may undergo hydrolysis.

>  <s_lp_Force_Field>  (74) 
OPLS3e

>  <r_lp_Energy>  (74) 
51.1381

>  <b_lp_Chiralities_Consistent>  (74) 
1

>  <s_lp_Variant>  (74) 
19:0-2

>  <s_i_glide_gridfile>  (74) 
pfpi4k_grid

>  <i_i_glide_lignum>  (74) 
29

>  <i_i_glide_rotatable_bonds>  (74) 
1

>  <r_i_docking_score>  (74) 
-2.42334

>  <r_i_glide_ligand_efficiency>  (74) 
-0.0897532

>  <r_i_glide_ligand_efficiency_sa>  (74) 
-0.26926

>  <r_i_glide_ligand_efficiency_ln>  (74) 
-0.564113

>  <r_i_glide_gscore>  (74) 
-2.42334

>  <r_i_glide_lipo>  (74) 
-0.269235

>  <r_i_glide_hbond>  (74) 
0

>  <r_i_glide_metal>  (74) 
-0

>  <r_i_glide_rewards>  (74) 
-0.77394

>  <r_i_glide_evdw>  (74) 
-22.894

>  <r_i_glide_ecoul>  (74) 
-1.49817

>  <r_i_glide_erotb>  (74) 
0

>  <r_i_glide_esite>  (74) 
-0.010736

>  <r_i_glide_emodel>  (74) 
-27.649

>  <r_i_glide_energy>  (74) 
-24.3922

>  <r_i_glide_einternal>  (74) 
0.0723957

>  <r_i_glide_intrahb_reward>  (74) 
-0

>  <i_i_glide_confnum>  (74) 
5

>  <i_i_glide_posenum>  (74) 
15

>  <r_i_glide_eff_state_penalty>  (74) 
0

>  <ligand_id>  (74) 
19

>  <original_smiles>  (74) 
COc1ccc2c(c1)NC(=O)C1(CC3C(=NC4CCCC43)N1)C21OCCS1

>  <smiles>  (74) 
[H]c1c([H])c2c(c([H])c1OC([H])([H])[H])N([H])C(=O)C1([N+]([H])=C3N([H])C4([H])C([H])([H])C([H])([H])C([H])([H])C4([H])C3([H])C1([H])[H])C21OC([H])([H])C([H])([H])S1

$$$$
20:0:0
     RDKit          3D

 63 68  0  0  1  0  0  0  0  0999 V2000
    5.8464   -4.5576   -0.3106 C   0  0  0  0  0  0  0  0  0  0  0  0
    5.1677   -3.5403    0.5748 C   0  0  0  0  0  0  0  0  0  0  0  0
    4.1967   -3.8618    1.2567 O   0  0  0  0  0  0  0  0  0  0  0  0
    5.7489   -2.3161    0.5088 O   0  0  0  0  0  0  0  0  0  0  0  0
    5.2401   -1.1872    1.2254 C   0  0  2  0  0  0  0  0  0  0  0  0
    5.1026   -1.4286    2.7203 C   0  0  0  0  0  0  0  0  0  0  0  0
    3.9744   -1.2271    3.4299 C   0  0  0  0  0  0  0  0  0  0  0  0
    3.9733   -1.3564    4.9305 C   0  0  0  0  0  0  0  0  0  0  0  0
    3.9449    0.0647    5.4845 C   0  0  0  0  0  0  0  0  0  0  0  0
    2.7197    0.9052    5.0229 C   0  0  2  0  0  0  0  0  0  0  0  0
    1.8957    0.2110    3.8838 C   0  0  1  0  0  0  0  0  0  0  0  0
    0.8154    1.1009    3.2290 C   0  0  0  0  0  0  0  0  0  0  0  0
   -0.0946    1.8458    4.2123 C   0  0  2  0  0  0  0  0  0  0  0  0
   -1.0668    2.5513    3.4587 O   0  0  0  0  0  0  0  0  0  0  0  0
   -1.3634    3.7415    3.9635 C   0  0  0  0  0  0  0  0  0  0  0  0
   -2.1822    4.5399    3.5194 O   0  0  0  0  0  0  0  0  0  0  0  0
   -0.5496    3.9618    5.2154 C   0  0  0  0  0  0  0  0  0  0  0  0
    0.5708    2.9221    5.1088 C   0  0  2  0  0  0  0  0  0  0  0  0
    1.9557    3.4553    4.6081 C   0  0  1  0  0  0  0  0  0  0  0  0
    1.9920    4.2787    3.2942 C   0  0  0  0  0  0  0  0  0  0  0  0
    2.1606    5.5774    4.0687 C   0  0  0  0  0  0  0  0  0  0  0  0
    2.4745    4.7349    5.2995 C   0  0  2  0  0  0  0  0  0  0  0  0
    3.9080    4.5113    5.7268 C   0  0  0  0  0  0  0  0  0  0  0  0
    4.0091    2.9943    5.8797 C   0  0  0  0  0  0  0  0  0  0  0  0
    3.0965    2.4034    4.7796 C   0  0  1  0  0  0  0  0  0  0  0  0
    2.6872   -0.6622    2.8287 C   0  0  2  0  0  0  0  0  0  0  0  0
    1.7827   -1.8600    2.4519 C   0  0  0  0  0  0  0  0  0  0  0  0
    3.0521    0.1339    1.5409 C   0  0  0  0  0  0  0  0  0  0  0  0
    3.9515   -0.6584    0.5697 C   0  0  0  0  0  0  0  0  0  0  0  0
    5.8710   -4.2180   -1.3472 H   0  0  0  0  0  0  0  0  0  0  0  0
    5.2884   -5.4887   -0.2651 H   0  0  0  0  0  0  0  0  0  0  0  0
    6.8612   -4.7451    0.0449 H   0  0  0  0  0  0  0  0  0  0  0  0
    5.9839   -0.3924    1.1468 H   0  0  0  0  0  0  0  0  0  0  0  0
    5.9982   -1.7490    3.2268 H   0  0  0  0  0  0  0  0  0  0  0  0
    3.1157   -1.9436    5.2586 H   0  0  0  0  0  0  0  0  0  0  0  0
    4.8662   -1.8798    5.2691 H   0  0  0  0  0  0  0  0  0  0  0  0
    3.9921    0.0384    6.5746 H   0  0  0  0  0  0  0  0  0  0  0  0
    4.8672    0.5470    5.1545 H   0  0  0  0  0  0  0  0  0  0  0  0
    2.0688    0.8810    5.8981 H   0  0  0  0  0  0  0  0  0  0  0  0
    1.3167   -0.5175    4.4515 H   0  0  0  0  0  0  0  0  0  0  0  0
    1.2609    1.8124    2.5348 H   0  0  0  0  0  0  0  0  0  0  0  0
    0.1696    0.4724    2.6171 H   0  0  0  0  0  0  0  0  0  0  0  0
   -0.6331    1.1375    4.8417 H   0  0  0  0  0  0  0  0  0  0  0  0
   -0.2161    4.9910    5.2982 H   0  0  0  0  0  0  0  0  0  0  0  0
   -1.1983    3.7433    6.0612 H   0  0  0  0  0  0  0  0  0  0  0  0
    0.6960    2.5249    6.1146 H   0  0  0  0  0  0  0  0  0  0  0  0
    2.8636    4.0800    2.6668 H   0  0  0  0  0  0  0  0  0  0  0  0
    1.0736    4.2577    2.7189 H   0  0  0  0  0  0  0  0  0  0  0  0
    2.9784    6.2097    3.7236 H   0  0  0  0  0  0  0  0  0  0  0  0
    1.2328    6.1422    4.1585 H   0  0  0  0  0  0  0  0  0  0  0  0
    1.8350    5.0113    6.1391 H   0  0  0  0  0  0  0  0  0  0  0  0
    4.6047    4.8450    4.9526 H   0  0  0  0  0  0  0  0  0  0  0  0
    4.1618    5.0375    6.6469 H   0  0  0  0  0  0  0  0  0  0  0  0
    5.0404    2.6508    5.8161 H   0  0  0  0  0  0  0  0  0  0  0  0
    3.6215    2.7089    6.8590 H   0  0  0  0  0  0  0  0  0  0  0  0
    3.6919    2.4043    3.8652 H   0  0  0  0  0  0  0  0  0  0  0  0
    0.8865   -1.5356    1.9248 H   0  0  0  0  0  0  0  0  0  0  0  0
    1.4713   -2.4311    3.3291 H   0  0  0  0  0  0  0  0  0  0  0  0
    2.2843   -2.5603    1.7936 H   0  0  0  0  0  0  0  0  0  0  0  0
    2.1495    0.4104    0.9938 H   0  0  0  0  0  0  0  0  0  0  0  0
    3.5515    1.0643    1.8132 H   0  0  0  0  0  0  0  0  0  0  0  0
    4.2285   -0.0378   -0.2811 H   0  0  0  0  0  0  0  0  0  0  0  0
    3.3611   -1.4710    0.1457 H   0  0  0  0  0  0  0  0  0  0  0  0
  1  2  1  0
  1 30  1  0
  1 31  1  0
  1 32  1  0
  2  3  2  0
  2  4  1  0
  4  5  1  0
  5 29  1  0
  5  6  1  0
  5 33  1  1
  6  7  2  0
  6 34  1  0
  7 26  1  0
  7  8  1  0
  8  9  1  0
  8 35  1  0
  8 36  1  0
  9 10  1  0
  9 37  1  0
  9 38  1  0
 10 25  1  0
 10 11  1  0
 10 39  1  1
 11 12  1  0
 11 26  1  0
 11 40  1  1
 12 13  1  0
 12 41  1  0
 12 42  1  0
 13 18  1  0
 13 14  1  0
 13 43  1  1
 14 15  1  0
 15 16  2  0
 15 17  1  0
 17 18  1  0
 17 44  1  0
 17 45  1  0
 18 19  1  0
 18 46  1  1
 19 22  1  0
 19 25  1  0
 19 20  1  6
 20 21  1  0
 20 47  1  0
 20 48  1  0
 21 22  1  0
 21 49  1  0
 21 50  1  0
 22 23  1  0
 22 51  1  1
 23 24  1  0
 23 52  1  0
 23 53  1  0
 24 25  1  0
 24 54  1  0
 24 55  1  0
 25 56  1  6
 26 27  1  6
 26 28  1  0
 27 57  1  0
 27 58  1  0
 27 59  1  0
 28 29  1  0
 28 60  1  0
 28 61  1  0
 29 62  1  0
 29 63  1  0
M  END
>  <i_m_ct_stereo_status>  (75) 
1

>  <s_m_source_file>  (75) 
/var/tmp/pbs.5076255.sched01/tmp6yc3ji7b/0haed4tc5.sdf

>  <i_m_source_file_index>  (75) 
30

>  <i_lp_mmshare_version>  (75) 
48012

>  <i_f3d_flags>  (75) 
0

>  <s_epik_input>  (75) 
W0NIM11DKD1PKU9bQ0BIXShbQ0hdPTEpW0NIMl1bQ0gyXVtDQEBdMihbQ0gzXSlDMVtDSDJdW0NIMl1bQ0BIXShbQ0BIXTJbQ0gyXVtDQEBIXShbQ0BIXTNbQ0BAXTQ1NilPQyg9TylbQ0gyXTMpW0NAQEhdNltDSDJdW0NIMl1bQ0BIXTVbQ0gyXVtDSDJdNA==

>  <s_epik_cmdline>  (75) 
J2VwaWtfcHl0aG9uJywgJy1waHQnLCAnMi4wJywgJy1waCcsICc3LjAnLCAnLXRuJywgJzgnLCAnLW1hJywgJzIwMCcsICctaW1hZScsICc8aW5maWxlLm1hZT4nLCAnLW9tYWUnLCAnPG91dGZpbGUubWFlPic=

>  <r_lp_tautomer_probability>  (75) 
1

>  <r_epik_Ionization_Penalty>  (75) 
0

>  <r_epik_Ionization_Penalty_Charging>  (75) 
0

>  <r_epik_Ionization_Penalty_Neutral>  (75) 
0

>  <r_epik_State_Penalty>  (75) 
-0

>  <r_epik_Charging_Adjusted_Penalty>  (75) 
0

>  <i_epik_Tot_Q>  (75) 
0

>  <i_epik_Tot_abs_Q>  (75) 
0

>  <s_epik_Chemistry_Notes>  (75) 
This compound has an ester and may undergo hydrolysis at high or low pH.

>  <s_lp_Force_Field>  (75) 
OPLS3e

>  <r_lp_Energy>  (75) 
53.2883

>  <b_lp_Chiralities_Consistent>  (75) 
1

>  <s_lp_Variant>  (75) 
20:0-1

>  <s_i_glide_gridfile>  (75) 
pfpi4k_grid

>  <i_i_glide_lignum>  (75) 
30

>  <i_i_glide_rotatable_bonds>  (75) 
2

>  <r_i_docking_score>  (75) 
-2.88332

>  <r_i_glide_ligand_efficiency>  (75) 
-0.099425

>  <r_i_glide_ligand_efficiency_sa>  (75) 
-0.305465

>  <r_i_glide_ligand_efficiency_ln>  (75) 
-0.660208

>  <r_i_glide_gscore>  (75) 
-2.88332

>  <r_i_glide_lipo>  (75) 
-0.286917

>  <r_i_glide_hbond>  (75) 
-0.16

>  <r_i_glide_metal>  (75) 
-0

>  <r_i_glide_rewards>  (75) 
-0.745518

>  <r_i_glide_evdw>  (75) 
-26.9733

>  <r_i_glide_ecoul>  (75) 
-2.65523

>  <r_i_glide_erotb>  (75) 
0.123312

>  <r_i_glide_esite>  (75) 
-0.0672503

>  <r_i_glide_emodel>  (75) 
-35.4853

>  <r_i_glide_energy>  (75) 
-29.6285

>  <r_i_glide_einternal>  (75) 
1.47405

>  <r_i_glide_intrahb_reward>  (75) 
-0

>  <i_i_glide_confnum>  (75) 
3

>  <i_i_glide_posenum>  (75) 
15

>  <r_i_glide_eff_state_penalty>  (75) 
0

>  <ligand_id>  (75) 
20

>  <original_smiles>  (75) 
CC(=O)OC1C=C2CCC3C(CC4OC(=O)CC4C45CCC4CCC35)C2(C)CC1

>  <smiles>  (75) 
[H]C1=C2C([H])([H])C([H])([H])C3([H])C([H])(C([H])([H])C4([H])OC(=O)C([H])([H])C4([H])C45C([H])([H])C([H])([H])C4([H])C([H])([H])C([H])([H])C35[H])C2(C([H])([H])[H])C([H])([H])C([H])([H])C1([H])OC(=O)C([H])([H])[H]

$$$$
20:0:1
     RDKit          3D

 63 68  0  0  1  0  0  0  0  0999 V2000
    6.7665   -3.9758    0.0490 C   0  0  0  0  0  0  0  0  0  0  0  0
    5.9118   -3.0326    0.8667 C   0  0  0  0  0  0  0  0  0  0  0  0
    5.1600   -3.4688    1.7346 O   0  0  0  0  0  0  0  0  0  0  0  0
    6.0920   -1.7340    0.5287 O   0  0  0  0  0  0  0  0  0  0  0  0
    5.3990   -0.6710    1.1926 C   0  0  2  0  0  0  0  0  0  0  0  0
    5.6173   -0.6626    2.6960 C   0  0  0  0  0  0  0  0  0  0  0  0
    4.6294   -0.6372    3.6167 C   0  0  0  0  0  0  0  0  0  0  0  0
    4.9485   -0.4999    5.0834 C   0  0  0  0  0  0  0  0  0  0  0  0
    4.6260    0.9415    5.4667 C   0  0  0  0  0  0  0  0  0  0  0  0
    3.1524    1.3567    5.1957 C   0  0  2  0  0  0  0  0  0  0  0  0
    2.3573    0.2935    4.3598 C   0  0  1  0  0  0  0  0  0  0  0  0
    0.9700    0.7611    3.8695 C   0  0  0  0  0  0  0  0  0  0  0  0
    0.0906    1.4149    4.9424 C   0  0  2  0  0  0  0  0  0  0  0  0
   -1.1581    1.7134    4.3473 O   0  0  0  0  0  0  0  0  0  0  0  0
   -1.6842    2.8545    4.7693 C   0  0  0  0  0  0  0  0  0  0  0  0
   -2.7618    3.3318    4.4299 O   0  0  0  0  0  0  0  0  0  0  0  0
   -0.7475    3.4904    5.7723 C   0  0  0  0  0  0  0  0  0  0  0  0
    0.5787    2.7616    5.5374 C   0  0  2  0  0  0  0  0  0  0  0  0
    1.6416    3.5239    4.6777 C   0  0  1  0  0  0  0  0  0  0  0  0
    1.1997    4.0860    3.3028 C   0  0  0  0  0  0  0  0  0  0  0  0
    1.1374    5.5003    3.8611 C   0  0  0  0  0  0  0  0  0  0  0  0
    1.8986    4.9918    5.0794 C   0  0  2  0  0  0  0  0  0  0  0  0
    3.3922    5.2115    5.1927 C   0  0  0  0  0  0  0  0  0  0  0  0
    3.9373    3.8185    5.5011 C   0  0  0  0  0  0  0  0  0  0  0  0
    3.0434    2.8372    4.7054 C   0  0  1  0  0  0  0  0  0  0  0  0
    3.1466   -0.5269    3.2594 C   0  0  2  0  0  0  0  0  0  0  0  0
    2.5548   -1.9602    3.2352 C   0  0  0  0  0  0  0  0  0  0  0  0
    3.0320    0.1030    1.8364 C   0  0  0  0  0  0  0  0  0  0  0  0
    3.9158   -0.6108    0.7910 C   0  0  0  0  0  0  0  0  0  0  0  0
    6.5620   -3.8563   -1.0169 H   0  0  0  0  0  0  0  0  0  0  0  0
    6.5142   -4.9927    0.3371 H   0  0  0  0  0  0  0  0  0  0  0  0
    7.8236   -3.8046    0.2505 H   0  0  0  0  0  0  0  0  0  0  0  0
    5.8532    0.2591    0.8566 H   0  0  0  0  0  0  0  0  0  0  0  0
    6.6455   -0.6339    3.0143 H   0  0  0  0  0  0  0  0  0  0  0  0
    4.3707   -1.2195    5.6645 H   0  0  0  0  0  0  0  0  0  0  0  0
    5.9998   -0.7100    5.2711 H   0  0  0  0  0  0  0  0  0  0  0  0
    4.8807    1.1128    6.5141 H   0  0  0  0  0  0  0  0  0  0  0  0
    5.2994    1.5724    4.8854 H   0  0  0  0  0  0  0  0  0  0  0  0
    2.7101    1.3222    6.1922 H   0  0  0  0  0  0  0  0  0  0  0  0
    2.1247   -0.4470    5.1256 H   0  0  0  0  0  0  0  0  0  0  0  0
    1.0627    1.4299    3.0152 H   0  0  0  0  0  0  0  0  0  0  0  0
    0.4243   -0.1046    3.4972 H   0  0  0  0  0  0  0  0  0  0  0  0
   -0.1045    0.7115    5.7521 H   0  0  0  0  0  0  0  0  0  0  0  0
   -0.7021    4.5708    5.6637 H   0  0  0  0  0  0  0  0  0  0  0  0
   -1.1387    3.2646    6.7615 H   0  0  0  0  0  0  0  0  0  0  0  0
    0.9983    2.5798    6.5272 H   0  0  0  0  0  0  0  0  0  0  0  0
    1.9617    4.0132    2.5248 H   0  0  0  0  0  0  0  0  0  0  0  0
    0.2370    3.7353    2.9340 H   0  0  0  0  0  0  0  0  0  0  0  0
    1.6631    6.2478    3.2664 H   0  0  0  0  0  0  0  0  0  0  0  0
    0.1240    5.8249    4.0953 H   0  0  0  0  0  0  0  0  0  0  0  0
    1.3778    5.2425    6.0042 H   0  0  0  0  0  0  0  0  0  0  0  0
    3.8096    5.5682    4.2472 H   0  0  0  0  0  0  0  0  0  0  0  0
    3.6541    5.9369    5.9626 H   0  0  0  0  0  0  0  0  0  0  0  0
    4.9977    3.7397    5.2637 H   0  0  0  0  0  0  0  0  0  0  0  0
    3.8284    3.6188    6.5673 H   0  0  0  0  0  0  0  0  0  0  0  0
    3.4303    2.8313    3.6849 H   0  0  0  0  0  0  0  0  0  0  0  0
    1.5185   -1.9727    2.8974 H   0  0  0  0  0  0  0  0  0  0  0  0
    2.5925   -2.4266    4.2219 H   0  0  0  0  0  0  0  0  0  0  0  0
    3.1075   -2.6139    2.5690 H   0  0  0  0  0  0  0  0  0  0  0  0
    2.0036    0.0589    1.4763 H   0  0  0  0  0  0  0  0  0  0  0  0
    3.3020    1.1608    1.8778 H   0  0  0  0  0  0  0  0  0  0  0  0
    3.8468   -0.1105   -0.1716 H   0  0  0  0  0  0  0  0  0  0  0  0
    3.5118   -1.6065    0.6144 H   0  0  0  0  0  0  0  0  0  0  0  0
  1  2  1  0
  1 30  1  0
  1 31  1  0
  1 32  1  0
  2  3  2  0
  2  4  1  0
  4  5  1  0
  5 29  1  0
  5  6  1  0
  5 33  1  6
  6  7  2  0
  6 34  1  0
  7 26  1  0
  7  8  1  0
  8  9  1  0
  8 35  1  0
  8 36  1  0
  9 10  1  0
  9 37  1  0
  9 38  1  0
 10 25  1  0
 10 11  1  0
 10 39  1  1
 11 12  1  0
 11 26  1  0
 11 40  1  1
 12 13  1  0
 12 41  1  0
 12 42  1  0
 13 18  1  0
 13 14  1  0
 13 43  1  1
 14 15  1  0
 15 16  2  0
 15 17  1  0
 17 18  1  0
 17 44  1  0
 17 45  1  0
 18 19  1  0
 18 46  1  1
 19 22  1  0
 19 25  1  0
 19 20  1  6
 20 21  1  0
 20 47  1  0
 20 48  1  0
 21 22  1  0
 21 49  1  0
 21 50  1  0
 22 23  1  0
 22 51  1  1
 23 24  1  0
 23 52  1  0
 23 53  1  0
 24 25  1  0
 24 54  1  0
 24 55  1  0
 25 56  1  6
 26 27  1  6
 26 28  1  0
 27 57  1  0
 27 58  1  0
 27 59  1  0
 28 29  1  0
 28 60  1  0
 28 61  1  0
 29 62  1  0
 29 63  1  0
M  END
>  <i_m_ct_stereo_status>  (76) 
1

>  <s_m_source_file>  (76) 
/var/tmp/pbs.5076255.sched01/tmp6yc3ji7b/0haed4tc5.sdf

>  <i_m_source_file_index>  (76) 
30

>  <i_lp_mmshare_version>  (76) 
48012

>  <i_f3d_flags>  (76) 
0

>  <s_epik_input>  (76) 
W0NIM11DKD1PKU9bQ0BIXShbQ0hdPTEpW0NIMl1bQ0gyXVtDQEBdMihbQ0gzXSlDMVtDSDJdW0NIMl1bQ0BIXShbQ0BIXTJbQ0gyXVtDQEBIXShbQ0BIXTNbQ0BAXTQ1NilPQyg9TylbQ0gyXTMpW0NAQEhdNltDSDJdW0NIMl1bQ0BIXTVbQ0gyXVtDSDJdNA==

>  <s_epik_cmdline>  (76) 
J2VwaWtfcHl0aG9uJywgJy1waHQnLCAnMi4wJywgJy1waCcsICc3LjAnLCAnLXRuJywgJzgnLCAnLW1hJywgJzIwMCcsICctaW1hZScsICc8aW5maWxlLm1hZT4nLCAnLW9tYWUnLCAnPG91dGZpbGUubWFlPic=

>  <r_lp_tautomer_probability>  (76) 
1

>  <r_epik_Ionization_Penalty>  (76) 
0

>  <r_epik_Ionization_Penalty_Charging>  (76) 
0

>  <r_epik_Ionization_Penalty_Neutral>  (76) 
0

>  <r_epik_State_Penalty>  (76) 
-0

>  <r_epik_Charging_Adjusted_Penalty>  (76) 
0

>  <i_epik_Tot_Q>  (76) 
0

>  <i_epik_Tot_abs_Q>  (76) 
0

>  <s_epik_Chemistry_Notes>  (76) 
This compound has an ester and may undergo hydrolysis at high or low pH.

>  <s_lp_Force_Field>  (76) 
OPLS3e

>  <r_lp_Energy>  (76) 
53.2883

>  <b_lp_Chiralities_Consistent>  (76) 
1

>  <s_lp_Variant>  (76) 
20:0-1

>  <s_i_glide_gridfile>  (76) 
pfpi4k_grid

>  <i_i_glide_lignum>  (76) 
30

>  <i_i_glide_rotatable_bonds>  (76) 
2

>  <r_i_docking_score>  (76) 
-2.62441

>  <r_i_glide_ligand_efficiency>  (76) 
-0.0904969

>  <r_i_glide_ligand_efficiency_sa>  (76) 
-0.278035

>  <r_i_glide_ligand_efficiency_ln>  (76) 
-0.600923

>  <r_i_glide_gscore>  (76) 
-2.62441

>  <r_i_glide_lipo>  (76) 
-0.481403

>  <r_i_glide_hbond>  (76) 
0

>  <r_i_glide_metal>  (76) 
-0

>  <r_i_glide_rewards>  (76) 
-0.793876

>  <r_i_glide_evdw>  (76) 
-27.3363

>  <r_i_glide_ecoul>  (76) 
-0.609045

>  <r_i_glide_erotb>  (76) 
0.123312

>  <r_i_glide_esite>  (76) 
-0.0142712

>  <r_i_glide_emodel>  (76) 
-33.2274

>  <r_i_glide_energy>  (76) 
-27.9453

>  <r_i_glide_einternal>  (76) 
1.34763

>  <r_i_glide_intrahb_reward>  (76) 
-0

>  <i_i_glide_confnum>  (76) 
3

>  <i_i_glide_posenum>  (76) 
34

>  <r_i_glide_eff_state_penalty>  (76) 
0

>  <ligand_id>  (76) 
20

>  <original_smiles>  (76) 
CC(=O)OC1C=C2CCC3C(CC4OC(=O)CC4C45CCC4CCC35)C2(C)CC1

>  <smiles>  (76) 
[H]C1=C2C([H])([H])C([H])([H])C3([H])C([H])(C([H])([H])C4([H])OC(=O)C([H])([H])C4([H])C45C([H])([H])C([H])([H])C4([H])C([H])([H])C([H])([H])C35[H])C2(C([H])([H])[H])C([H])([H])C([H])([H])C1([H])OC(=O)C([H])([H])[H]

$$$$
20:0:2
     RDKit          3D

 63 68  0  0  1  0  0  0  0  0999 V2000
   -1.8988    3.3907    6.1455 C   0  0  0  0  0  0  0  0  0  0  0  0
   -0.8523    2.5709    5.4225 C   0  0  0  0  0  0  0  0  0  0  0  0
    0.2117    3.0855    5.0882 O   0  0  0  0  0  0  0  0  0  0  0  0
   -1.2299    1.2849    5.2271 O   0  0  0  0  0  0  0  0  0  0  0  0
   -0.3700    0.3235    4.6039 C   0  0  2  0  0  0  0  0  0  0  0  0
    0.9704    0.1837    5.3102 C   0  0  0  0  0  0  0  0  0  0  0  0
    2.1713    0.2731    4.6999 C   0  0  0  0  0  0  0  0  0  0  0  0
    3.4415   -0.0155    5.4569 C   0  0  0  0  0  0  0  0  0  0  0  0
    3.9080   -1.3986    5.0075 C   0  0  0  0  0  0  0  0  0  0  0  0
    4.1602   -1.5188    3.4771 C   0  0  2  0  0  0  0  0  0  0  0  0
    3.6484   -0.2756    2.6715 C   0  0  1  0  0  0  0  0  0  0  0  0
    3.6665   -0.4500    1.1368 C   0  0  0  0  0  0  0  0  0  0  0  0
    4.9707   -1.0052    0.5450 C   0  0  2  0  0  0  0  0  0  0  0  0
    4.8370   -1.0516   -0.8688 O   0  0  0  0  0  0  0  0  0  0  0  0
    5.3915   -2.1201   -1.4230 C   0  0  0  0  0  0  0  0  0  0  0  0
    5.4075   -2.4024   -2.6183 O   0  0  0  0  0  0  0  0  0  0  0  0
    6.0337   -2.9529   -0.3417 C   0  0  0  0  0  0  0  0  0  0  0  0
    5.3600   -2.4519    0.9411 C   0  0  2  0  0  0  0  0  0  0  0  0
    4.1846   -3.3328    1.4827 C   0  0  1  0  0  0  0  0  0  0  0  0
    3.0447   -3.7118    0.4998 C   0  0  0  0  0  0  0  0  0  0  0  0
    3.5903   -5.1266    0.3657 C   0  0  0  0  0  0  0  0  0  0  0  0
    4.4725   -4.8471    1.5744 C   0  0  2  0  0  0  0  0  0  0  0  0
    4.0684   -5.3423    2.9471 C   0  0  0  0  0  0  0  0  0  0  0  0
    4.1651   -4.0956    3.8237 C   0  0  0  0  0  0  0  0  0  0  0  0
    3.7324   -2.9162    2.9207 C   0  0  1  0  0  0  0  0  0  0  0  0
    2.3425    0.4560    3.1903 C   0  0  2  0  0  0  0  0  0  0  0  0
    2.5156    1.9712    2.9189 C   0  0  0  0  0  0  0  0  0  0  0  0
    1.0465   -0.0422    2.4825 C   0  0  0  0  0  0  0  0  0  0  0  0
   -0.2400    0.5608    3.0853 C   0  0  0  0  0  0  0  0  0  0  0  0
   -2.8427    3.3978    5.5995 H   0  0  0  0  0  0  0  0  0  0  0  0
   -1.5256    4.4094    6.2133 H   0  0  0  0  0  0  0  0  0  0  0  0
   -2.0452    3.0116    7.1564 H   0  0  0  0  0  0  0  0  0  0  0  0
   -0.8428   -0.6509    4.7300 H   0  0  0  0  0  0  0  0  0  0  0  0
    0.9263   -0.0313    6.3660 H   0  0  0  0  0  0  0  0  0  0  0  0
    4.1850    0.7544    5.2541 H   0  0  0  0  0  0  0  0  0  0  0  0
    3.2588   -0.0070    6.5301 H   0  0  0  0  0  0  0  0  0  0  0  0
    4.8035   -1.6868    5.5608 H   0  0  0  0  0  0  0  0  0  0  0  0
    3.1284   -2.1016    5.3089 H   0  0  0  0  0  0  0  0  0  0  0  0
    5.2485   -1.4719    3.4102 H   0  0  0  0  0  0  0  0  0  0  0  0
    4.4456    0.4436    2.8592 H   0  0  0  0  0  0  0  0  0  0  0  0
    2.8254   -1.0581    0.8048 H   0  0  0  0  0  0  0  0  0  0  0  0
    3.5095    0.5292    0.6881 H   0  0  0  0  0  0  0  0  0  0  0  0
    5.7972   -0.3327    0.7773 H   0  0  0  0  0  0  0  0  0  0  0  0
    5.9167   -4.0140   -0.5421 H   0  0  0  0  0  0  0  0  0  0  0  0
    7.0961   -2.7175   -0.3317 H   0  0  0  0  0  0  0  0  0  0  0  0
    6.1442   -2.4180    1.6976 H   0  0  0  0  0  0  0  0  0  0  0  0
    2.0629   -3.7194    0.9704 H   0  0  0  0  0  0  0  0  0  0  0  0
    3.0212   -3.1703   -0.4450 H   0  0  0  0  0  0  0  0  0  0  0  0
    2.8553   -5.9186    0.5102 H   0  0  0  0  0  0  0  0  0  0  0  0
    4.1619   -5.2811   -0.5500 H   0  0  0  0  0  0  0  0  0  0  0  0
    5.5181   -5.0611    1.3560 H   0  0  0  0  0  0  0  0  0  0  0  0
    3.0386   -5.7089    2.9482 H   0  0  0  0  0  0  0  0  0  0  0  0
    4.7037   -6.1511    3.3075 H   0  0  0  0  0  0  0  0  0  0  0  0
    3.5648   -4.1934    4.7284 H   0  0  0  0  0  0  0  0  0  0  0  0
    5.2036   -3.9537    4.1282 H   0  0  0  0  0  0  0  0  0  0  0  0
    2.6420   -2.9106    2.9422 H   0  0  0  0  0  0  0  0  0  0  0  0
    2.5514    2.1926    1.8539 H   0  0  0  0  0  0  0  0  0  0  0  0
    3.4270    2.3616    3.3710 H   0  0  0  0  0  0  0  0  0  0  0  0
    1.7047    2.5632    3.3293 H   0  0  0  0  0  0  0  0  0  0  0  0
    1.0649    0.2170    1.4228 H   0  0  0  0  0  0  0  0  0  0  0  0
    0.9942   -1.1310    2.5364 H   0  0  0  0  0  0  0  0  0  0  0  0
   -1.1159    0.1507    2.5856 H   0  0  0  0  0  0  0  0  0  0  0  0
   -0.2677    1.6234    2.8478 H   0  0  0  0  0  0  0  0  0  0  0  0
  1  2  1  0
  1 30  1  0
  1 31  1  0
  1 32  1  0
  2  3  2  0
  2  4  1  0
  4  5  1  0
  5 29  1  0
  5  6  1  0
  5 33  1  6
  6  7  2  0
  6 34  1  0
  7 26  1  0
  7  8  1  0
  8  9  1  0
  8 35  1  0
  8 36  1  0
  9 10  1  0
  9 37  1  0
  9 38  1  0
 10 25  1  0
 10 11  1  0
 10 39  1  1
 11 12  1  0
 11 26  1  0
 11 40  1  6
 12 13  1  0
 12 41  1  0
 12 42  1  0
 13 18  1  0
 13 14  1  0
 13 43  1  6
 14 15  1  0
 15 16  2  0
 15 17  1  0
 17 18  1  0
 17 44  1  0
 17 45  1  0
 18 19  1  0
 18 46  1  1
 19 22  1  0
 19 25  1  0
 19 20  1  6
 20 21  1  0
 20 47  1  0
 20 48  1  0
 21 22  1  0
 21 49  1  0
 21 50  1  0
 22 23  1  0
 22 51  1  6
 23 24  1  0
 23 52  1  0
 23 53  1  0
 24 25  1  0
 24 54  1  0
 24 55  1  0
 25 56  1  6
 26 27  1  1
 26 28  1  0
 27 57  1  0
 27 58  1  0
 27 59  1  0
 28 29  1  0
 28 60  1  0
 28 61  1  0
 29 62  1  0
 29 63  1  0
M  END
>  <i_m_ct_stereo_status>  (77) 
1

>  <s_m_source_file>  (77) 
/var/tmp/pbs.5076255.sched01/tmp6yc3ji7b/0haed4tc5.sdf

>  <i_m_source_file_index>  (77) 
30

>  <i_lp_mmshare_version>  (77) 
48012

>  <i_f3d_flags>  (77) 
0

>  <s_epik_input>  (77) 
W0NIM11DKD1PKU9bQ0BIXShbQ0hdPTEpW0NIMl1bQ0gyXVtDQEBdMihbQ0gzXSlDMVtDSDJdW0NIMl1bQ0BIXShbQ0BIXTJbQ0gyXVtDQEBIXShbQ0BIXTNbQ0BAXTQ1NilPQyg9TylbQ0gyXTMpW0NAQEhdNltDSDJdW0NIMl1bQ0BIXTVbQ0gyXVtDSDJdNA==

>  <s_epik_cmdline>  (77) 
J2VwaWtfcHl0aG9uJywgJy1waHQnLCAnMi4wJywgJy1waCcsICc3LjAnLCAnLXRuJywgJzgnLCAnLW1hJywgJzIwMCcsICctaW1hZScsICc8aW5maWxlLm1hZT4nLCAnLW9tYWUnLCAnPG91dGZpbGUubWFlPic=

>  <r_lp_tautomer_probability>  (77) 
1

>  <r_epik_Ionization_Penalty>  (77) 
0

>  <r_epik_Ionization_Penalty_Charging>  (77) 
0

>  <r_epik_Ionization_Penalty_Neutral>  (77) 
0

>  <r_epik_State_Penalty>  (77) 
-0

>  <r_epik_Charging_Adjusted_Penalty>  (77) 
0

>  <i_epik_Tot_Q>  (77) 
0

>  <i_epik_Tot_abs_Q>  (77) 
0

>  <s_epik_Chemistry_Notes>  (77) 
This compound has an ester and may undergo hydrolysis at high or low pH.

>  <s_lp_Force_Field>  (77) 
OPLS3e

>  <r_lp_Energy>  (77) 
53.2883

>  <b_lp_Chiralities_Consistent>  (77) 
1

>  <s_lp_Variant>  (77) 
20:0-1

>  <s_i_glide_gridfile>  (77) 
pfpi4k_grid

>  <i_i_glide_lignum>  (77) 
30

>  <i_i_glide_rotatable_bonds>  (77) 
2

>  <r_i_docking_score>  (77) 
-2.44222

>  <r_i_glide_ligand_efficiency>  (77) 
-0.0842145

>  <r_i_glide_ligand_efficiency_sa>  (77) 
-0.258734

>  <r_i_glide_ligand_efficiency_ln>  (77) 
-0.559207

>  <r_i_glide_gscore>  (77) 
-2.44222

>  <r_i_glide_lipo>  (77) 
-0.277728

>  <r_i_glide_hbond>  (77) 
0

>  <r_i_glide_metal>  (77) 
-0

>  <r_i_glide_rewards>  (77) 
-0.691806

>  <r_i_glide_evdw>  (77) 
-30.0652

>  <r_i_glide_ecoul>  (77) 
-0.35812

>  <r_i_glide_erotb>  (77) 
0.123312

>  <r_i_glide_esite>  (77) 
-0.0390209

>  <r_i_glide_emodel>  (77) 
-35.2663

>  <r_i_glide_energy>  (77) 
-30.4233

>  <r_i_glide_einternal>  (77) 
1.34549

>  <r_i_glide_intrahb_reward>  (77) 
-0

>  <i_i_glide_confnum>  (77) 
3

>  <i_i_glide_posenum>  (77) 
26

>  <r_i_glide_eff_state_penalty>  (77) 
0

>  <ligand_id>  (77) 
20

>  <original_smiles>  (77) 
CC(=O)OC1C=C2CCC3C(CC4OC(=O)CC4C45CCC4CCC35)C2(C)CC1

>  <smiles>  (77) 
[H]C1=C2C([H])([H])C([H])([H])C3([H])C([H])(C([H])([H])C4([H])OC(=O)C([H])([H])C4([H])C45C([H])([H])C([H])([H])C4([H])C([H])([H])C([H])([H])C35[H])C2(C([H])([H])[H])C([H])([H])C([H])([H])C1([H])OC(=O)C([H])([H])[H]

$$$$
21:0:0
     RDKit          3D

 25 27  0  0  1  0  0  0  0  0999 V2000
    3.0239    0.1202   -4.8423 Cl  0  0  0  0  0  0  0  0  0  0  0  0
    3.4746   -0.9583   -3.5688 C   0  0  0  0  0  0  0  0  0  0  0  0
    2.8625   -2.2157   -3.3914 C   0  0  0  0  0  0  0  0  0  0  0  0
    3.1862   -3.0549   -2.3820 N   0  0  0  0  0  0  0  0  0  0  0  0
    4.1526   -2.6834   -1.5090 C   0  0  0  0  0  0  0  0  0  0  0  0
    4.8333   -1.4451   -1.6144 C   0  0  0  0  0  0  0  0  0  0  0  0
    4.4592   -0.5773   -2.6487 C   0  0  0  0  0  0  0  0  0  0  0  0
    5.8239   -1.0530   -0.7360 O   0  0  0  0  0  0  0  0  0  0  0  0
    5.8719   -1.7491    0.5059 C   0  0  0  0  0  0  0  0  0  0  0  0
    5.7036   -3.2578    0.2898 C   0  0  1  0  0  0  0  0  0  0  0  0
    5.5527   -4.0869    1.5743 C   0  0  0  0  0  0  0  0  0  0  0  0
    4.4346   -5.1129    1.2719 C   0  0  0  0  0  0  0  0  0  0  0  0
    4.0418   -4.8812   -0.1965 C   0  0  0  0  0  0  0  0  0  0  0  0
    4.4826   -3.5242   -0.4345 N   0  0  0  0  0  0  0  0  0  0  0  0
    2.1070   -2.5630   -4.0739 H   0  0  0  0  0  0  0  0  0  0  0  0
    4.9188    0.3951   -2.7249 H   0  0  0  0  0  0  0  0  0  0  0  0
    6.8231   -1.5371    0.9942 H   0  0  0  0  0  0  0  0  0  0  0  0
    5.0866   -1.3543    1.1534 H   0  0  0  0  0  0  0  0  0  0  0  0
    6.5353   -3.6439   -0.3047 H   0  0  0  0  0  0  0  0  0  0  0  0
    6.4908   -4.5748    1.8439 H   0  0  0  0  0  0  0  0  0  0  0  0
    5.2584   -3.4616    2.4222 H   0  0  0  0  0  0  0  0  0  0  0  0
    4.7427   -6.1419    1.4677 H   0  0  0  0  0  0  0  0  0  0  0  0
    3.5768   -4.9016    1.9150 H   0  0  0  0  0  0  0  0  0  0  0  0
    4.5961   -5.5576   -0.8476 H   0  0  0  0  0  0  0  0  0  0  0  0
    2.9779   -5.0262   -0.3755 H   0  0  0  0  0  0  0  0  0  0  0  0
  1  2  1  0
  2  7  2  0
  2  3  1  0
  3  4  2  0
  3 15  1  0
  4  5  1  0
  5 14  1  0
  5  6  2  0
  6  7  1  0
  6  8  1  0
  7 16  1  0
  8  9  1  0
  9 10  1  0
  9 17  1  0
  9 18  1  0
 10 14  1  0
 10 11  1  0
 10 19  1  6
 11 12  1  0
 11 20  1  0
 11 21  1  0
 12 13  1  0
 12 22  1  0
 12 23  1  0
 13 14  1  0
 13 24  1  0
 13 25  1  0
M  END
>  <i_m_ct_stereo_status>  (78) 
1

>  <s_m_source_file>  (78) 
/var/tmp/pbs.5076255.sched01/tmp6yc3ji7b/0haed4tc5.sdf

>  <i_m_source_file_index>  (78) 
31

>  <i_lp_mmshare_version>  (78) 
48012

>  <i_f3d_flags>  (78) 
0

>  <s_epik_input>  (78) 
bjFbY0hdYyhDbClbY0hdYyhjMTIpT1tDSDJdW0NAQEhdM04yW0NIMl1bQ0gyXVtDSDJdMw==

>  <s_epik_cmdline>  (78) 
J2VwaWtfcHl0aG9uJywgJy1waHQnLCAnMi4wJywgJy1waCcsICc3LjAnLCAnLXRuJywgJzgnLCAnLW1hJywgJzIwMCcsICctaW1hZScsICc8aW5maWxlLm1hZT4nLCAnLW9tYWUnLCAnPG91dGZpbGUubWFlPic=

>  <r_lp_tautomer_probability>  (78) 
1

>  <r_epik_Ionization_Penalty>  (78) 
0.000103724

>  <r_epik_Ionization_Penalty_Charging>  (78) 
0

>  <r_epik_Ionization_Penalty_Neutral>  (78) 
0.000103724

>  <r_epik_State_Penalty>  (78) 
-0

>  <r_epik_Charging_Adjusted_Penalty>  (78) 
0

>  <i_epik_Tot_Q>  (78) 
0

>  <i_epik_Tot_abs_Q>  (78) 
0

>  <s_lp_Force_Field>  (78) 
OPLS3e

>  <r_lp_Energy>  (78) 
27.6125

>  <b_lp_Chiralities_Consistent>  (78) 
1

>  <s_lp_Variant>  (78) 
21:0-1

>  <s_i_glide_gridfile>  (78) 
pfpi4k_grid

>  <i_i_glide_lignum>  (78) 
31

>  <i_i_glide_rotatable_bonds>  (78) 
0

>  <r_i_docking_score>  (78) 
-3.88792

>  <r_i_glide_ligand_efficiency>  (78) 
-0.277708

>  <r_i_glide_ligand_efficiency_sa>  (78) 
-0.669317

>  <r_i_glide_ligand_efficiency_ln>  (78) 
-1.06839

>  <r_i_glide_gscore>  (78) 
-3.88792

>  <r_i_glide_lipo>  (78) 
-0.743271

>  <r_i_glide_hbond>  (78) 
-0.0434734

>  <r_i_glide_metal>  (78) 
-0

>  <r_i_glide_rewards>  (78) 
-2.0189

>  <r_i_glide_evdw>  (78) 
-23.0913

>  <r_i_glide_ecoul>  (78) 
0.481953

>  <r_i_glide_erotb>  (78) 
0

>  <r_i_glide_esite>  (78) 
0

>  <r_i_glide_emodel>  (78) 
-27.9897

>  <r_i_glide_energy>  (78) 
-22.6094

>  <r_i_glide_einternal>  (78) 
0

>  <r_i_glide_intrahb_reward>  (78) 
-0

>  <i_i_glide_confnum>  (78) 
2

>  <i_i_glide_posenum>  (78) 
6

>  <r_i_glide_eff_state_penalty>  (78) 
0

>  <ligand_id>  (78) 
21

>  <original_smiles>  (78) 
Clc1cnc2c(c1)OCC1CCCN21

>  <smiles>  (78) 
[H]c1nc2c(c([H])c1Cl)OC([H])([H])C1([H])N2C([H])([H])C([H])([H])C1([H])[H]

$$$$
21:0:1
     RDKit          3D

 25 27  0  0  1  0  0  0  0  0999 V2000
    0.7314   -9.3016    2.8709 Cl  0  0  0  0  0  0  0  0  0  0  0  0
    1.4936   -7.9707    2.0773 C   0  0  0  0  0  0  0  0  0  0  0  0
    0.7394   -7.0480    1.3347 C   0  0  0  0  0  0  0  0  0  0  0  0
    1.2770   -5.9828    0.6948 N   0  0  0  0  0  0  0  0  0  0  0  0
    2.6175   -5.8073    0.7752 C   0  0  0  0  0  0  0  0  0  0  0  0
    3.4663   -6.6851    1.4983 C   0  0  0  0  0  0  0  0  0  0  0  0
    2.8853   -7.7892    2.1492 C   0  0  0  0  0  0  0  0  0  0  0  0
    4.8332   -6.5031    1.5883 O   0  0  0  0  0  0  0  0  0  0  0  0
    5.4100   -5.6504    0.6048 C   0  0  0  0  0  0  0  0  0  0  0  0
    4.5719   -4.3823    0.4133 C   0  0  1  0  0  0  0  0  0  0  0  0
    5.0088   -3.4874   -0.7573 C   0  0  0  0  0  0  0  0  0  0  0  0
    3.7008   -3.0448   -1.4499 C   0  0  0  0  0  0  0  0  0  0  0  0
    2.5594   -3.6439   -0.6100 C   0  0  0  0  0  0  0  0  0  0  0  0
    3.2071   -4.7266    0.0967 N   0  0  0  0  0  0  0  0  0  0  0  0
   -0.3316   -7.1424    1.2760 H   0  0  0  0  0  0  0  0  0  0  0  0
    3.4968   -8.4935    2.6941 H   0  0  0  0  0  0  0  0  0  0  0  0
    6.4212   -5.3982    0.9113 H   0  0  0  0  0  0  0  0  0  0  0  0
    5.4873   -6.2104   -0.3261 H   0  0  0  0  0  0  0  0  0  0  0  0
    4.5610   -3.8046    1.3403 H   0  0  0  0  0  0  0  0  0  0  0  0
    5.5938   -2.6364   -0.4053 H   0  0  0  0  0  0  0  0  0  0  0  0
    5.6308   -4.0363   -1.4692 H   0  0  0  0  0  0  0  0  0  0  0  0
    3.6184   -1.9610   -1.5499 H   0  0  0  0  0  0  0  0  0  0  0  0
    3.6693   -3.4740   -2.4547 H   0  0  0  0  0  0  0  0  0  0  0  0
    2.2021   -2.9077    0.1107 H   0  0  0  0  0  0  0  0  0  0  0  0
    1.7140   -3.9627   -1.2222 H   0  0  0  0  0  0  0  0  0  0  0  0
  1  2  1  0
  2  7  2  0
  2  3  1  0
  3  4  2  0
  3 15  1  0
  4  5  1  0
  5 14  1  0
  5  6  2  0
  6  7  1  0
  6  8  1  0
  7 16  1  0
  8  9  1  0
  9 10  1  0
  9 17  1  0
  9 18  1  0
 10 14  1  0
 10 11  1  0
 10 19  1  1
 11 12  1  0
 11 20  1  0
 11 21  1  0
 12 13  1  0
 12 22  1  0
 12 23  1  0
 13 14  1  0
 13 24  1  0
 13 25  1  0
M  END
>  <i_m_ct_stereo_status>  (79) 
1

>  <s_m_source_file>  (79) 
/var/tmp/pbs.5076255.sched01/tmp6yc3ji7b/0haed4tc5.sdf

>  <i_m_source_file_index>  (79) 
31

>  <i_lp_mmshare_version>  (79) 
48012

>  <i_f3d_flags>  (79) 
0

>  <s_epik_input>  (79) 
bjFbY0hdYyhDbClbY0hdYyhjMTIpT1tDSDJdW0NAQEhdM04yW0NIMl1bQ0gyXVtDSDJdMw==

>  <s_epik_cmdline>  (79) 
J2VwaWtfcHl0aG9uJywgJy1waHQnLCAnMi4wJywgJy1waCcsICc3LjAnLCAnLXRuJywgJzgnLCAnLW1hJywgJzIwMCcsICctaW1hZScsICc8aW5maWxlLm1hZT4nLCAnLW9tYWUnLCAnPG91dGZpbGUubWFlPic=

>  <r_lp_tautomer_probability>  (79) 
1

>  <r_epik_Ionization_Penalty>  (79) 
0.000103724

>  <r_epik_Ionization_Penalty_Charging>  (79) 
0

>  <r_epik_Ionization_Penalty_Neutral>  (79) 
0.000103724

>  <r_epik_State_Penalty>  (79) 
-0

>  <r_epik_Charging_Adjusted_Penalty>  (79) 
0

>  <i_epik_Tot_Q>  (79) 
0

>  <i_epik_Tot_abs_Q>  (79) 
0

>  <s_lp_Force_Field>  (79) 
OPLS3e

>  <r_lp_Energy>  (79) 
27.6125

>  <b_lp_Chiralities_Consistent>  (79) 
1

>  <s_lp_Variant>  (79) 
21:0-1

>  <s_i_glide_gridfile>  (79) 
pfpi4k_grid

>  <i_i_glide_lignum>  (79) 
31

>  <i_i_glide_rotatable_bonds>  (79) 
0

>  <r_i_docking_score>  (79) 
-3.72377

>  <r_i_glide_ligand_efficiency>  (79) 
-0.265984

>  <r_i_glide_ligand_efficiency_sa>  (79) 
-0.641058

>  <r_i_glide_ligand_efficiency_ln>  (79) 
-1.02328

>  <r_i_glide_gscore>  (79) 
-3.72377

>  <r_i_glide_lipo>  (79) 
-0.249917

>  <r_i_glide_hbond>  (79) 
-0.16

>  <r_i_glide_metal>  (79) 
-0

>  <r_i_glide_rewards>  (79) 
-1.97277

>  <r_i_glide_evdw>  (79) 
-17.5343

>  <r_i_glide_ecoul>  (79) 
-2.91427

>  <r_i_glide_erotb>  (79) 
0

>  <r_i_glide_esite>  (79) 
-0.0272223

>  <r_i_glide_emodel>  (79) 
-25.6258

>  <r_i_glide_energy>  (79) 
-20.4486

>  <r_i_glide_einternal>  (79) 
0

>  <r_i_glide_intrahb_reward>  (79) 
-0

>  <i_i_glide_confnum>  (79) 
1

>  <i_i_glide_posenum>  (79) 
3

>  <r_i_glide_eff_state_penalty>  (79) 
0

>  <ligand_id>  (79) 
21

>  <original_smiles>  (79) 
Clc1cnc2c(c1)OCC1CCCN21

>  <smiles>  (79) 
[H]c1nc2c(c([H])c1Cl)OC([H])([H])C1([H])N2C([H])([H])C([H])([H])C1([H])[H]

$$$$
21:0:2
     RDKit          3D

 25 27  0  0  1  0  0  0  0  0999 V2000
    0.2221   -3.6210    7.2422 Cl  0  0  0  0  0  0  0  0  0  0  0  0
    0.3009   -5.1628    6.4699 C   0  0  0  0  0  0  0  0  0  0  0  0
    0.6208   -6.3269    7.1942 C   0  0  0  0  0  0  0  0  0  0  0  0
    0.6894   -7.5508    6.6320 N   0  0  0  0  0  0  0  0  0  0  0  0
    0.4381   -7.6628    5.3069 C   0  0  0  0  0  0  0  0  0  0  0  0
    0.0918   -6.5531    4.4923 C   0  0  0  0  0  0  0  0  0  0  0  0
    0.0487   -5.2849    5.0963 C   0  0  0  0  0  0  0  0  0  0  0  0
   -0.1929   -6.6661    3.1431 O   0  0  0  0  0  0  0  0  0  0  0  0
    0.2732   -7.8612    2.5139 C   0  0  0  0  0  0  0  0  0  0  0  0
   -0.0149   -9.0917    3.3859 C   0  0  1  0  0  0  0  0  0  0  0  0
    0.6115  -10.3994    2.8861 C   0  0  0  0  0  0  0  0  0  0  0  0
    1.1560  -11.1054    4.1520 C   0  0  0  0  0  0  0  0  0  0  0  0
    0.7727  -10.2019    5.3391 C   0  0  0  0  0  0  0  0  0  0  0  0
    0.5672   -8.9207    4.6974 N   0  0  0  0  0  0  0  0  0  0  0  0
    0.8118   -6.2739    8.2521 H   0  0  0  0  0  0  0  0  0  0  0  0
   -0.1861   -4.4068    4.5128 H   0  0  0  0  0  0  0  0  0  0  0  0
   -0.2065   -7.9595    1.5415 H   0  0  0  0  0  0  0  0  0  0  0  0
    1.3447   -7.7611    2.3286 H   0  0  0  0  0  0  0  0  0  0  0  0
   -1.0928   -9.2182    3.5136 H   0  0  0  0  0  0  0  0  0  0  0  0
   -0.1185  -11.0082    2.3501 H   0  0  0  0  0  0  0  0  0  0  0  0
    1.4331  -10.2112    2.1875 H   0  0  0  0  0  0  0  0  0  0  0  0
    0.7844  -12.1270    4.2636 H   0  0  0  0  0  0  0  0  0  0  0  0
    2.2441  -11.1651    4.0803 H   0  0  0  0  0  0  0  0  0  0  0  0
   -0.1644  -10.5351    5.7842 H   0  0  0  0  0  0  0  0  0  0  0  0
    1.5246  -10.1928    6.1311 H   0  0  0  0  0  0  0  0  0  0  0  0
  1  2  1  0
  2  7  2  0
  2  3  1  0
  3  4  2  0
  3 15  1  0
  4  5  1  0
  5 14  1  0
  5  6  2  0
  6  7  1  0
  6  8  1  0
  7 16  1  0
  8  9  1  0
  9 10  1  0
  9 17  1  0
  9 18  1  0
 10 14  1  0
 10 11  1  0
 10 19  1  1
 11 12  1  0
 11 20  1  0
 11 21  1  0
 12 13  1  0
 12 22  1  0
 12 23  1  0
 13 14  1  0
 13 24  1  0
 13 25  1  0
M  END
>  <i_m_ct_stereo_status>  (80) 
1

>  <s_m_source_file>  (80) 
/var/tmp/pbs.5076255.sched01/tmp6yc3ji7b/0haed4tc5.sdf

>  <i_m_source_file_index>  (80) 
31

>  <i_lp_mmshare_version>  (80) 
48012

>  <i_f3d_flags>  (80) 
0

>  <s_epik_input>  (80) 
bjFbY0hdYyhDbClbY0hdYyhjMTIpT1tDSDJdW0NAQEhdM04yW0NIMl1bQ0gyXVtDSDJdMw==

>  <s_epik_cmdline>  (80) 
J2VwaWtfcHl0aG9uJywgJy1waHQnLCAnMi4wJywgJy1waCcsICc3LjAnLCAnLXRuJywgJzgnLCAnLW1hJywgJzIwMCcsICctaW1hZScsICc8aW5maWxlLm1hZT4nLCAnLW9tYWUnLCAnPG91dGZpbGUubWFlPic=

>  <r_lp_tautomer_probability>  (80) 
1

>  <r_epik_Ionization_Penalty>  (80) 
0.000103724

>  <r_epik_Ionization_Penalty_Charging>  (80) 
0

>  <r_epik_Ionization_Penalty_Neutral>  (80) 
0.000103724

>  <r_epik_State_Penalty>  (80) 
-0

>  <r_epik_Charging_Adjusted_Penalty>  (80) 
0

>  <i_epik_Tot_Q>  (80) 
0

>  <i_epik_Tot_abs_Q>  (80) 
0

>  <s_lp_Force_Field>  (80) 
OPLS3e

>  <r_lp_Energy>  (80) 
27.6125

>  <b_lp_Chiralities_Consistent>  (80) 
1

>  <s_lp_Variant>  (80) 
21:0-1

>  <s_i_glide_gridfile>  (80) 
pfpi4k_grid

>  <i_i_glide_lignum>  (80) 
31

>  <i_i_glide_rotatable_bonds>  (80) 
0

>  <r_i_docking_score>  (80) 
-3.6687

>  <r_i_glide_ligand_efficiency>  (80) 
-0.26205

>  <r_i_glide_ligand_efficiency_sa>  (80) 
-0.631578

>  <r_i_glide_ligand_efficiency_ln>  (80) 
-1.00815

>  <r_i_glide_gscore>  (80) 
-3.6687

>  <r_i_glide_lipo>  (80) 
-0.238929

>  <r_i_glide_hbond>  (80) 
-0.135066

>  <r_i_glide_metal>  (80) 
-0

>  <r_i_glide_rewards>  (80) 
-1.97277

>  <r_i_glide_evdw>  (80) 
-16.7231

>  <r_i_glide_ecoul>  (80) 
-2.97756

>  <r_i_glide_erotb>  (80) 
0

>  <r_i_glide_esite>  (80) 
-0.0391435

>  <r_i_glide_emodel>  (80) 
-24.7798

>  <r_i_glide_energy>  (80) 
-19.7007

>  <r_i_glide_einternal>  (80) 
0

>  <r_i_glide_intrahb_reward>  (80) 
-0

>  <i_i_glide_confnum>  (80) 
2

>  <i_i_glide_posenum>  (80) 
2

>  <r_i_glide_eff_state_penalty>  (80) 
0

>  <ligand_id>  (80) 
21

>  <original_smiles>  (80) 
Clc1cnc2c(c1)OCC1CCCN21

>  <smiles>  (80) 
[H]c1nc2c(c([H])c1Cl)OC([H])([H])C1([H])N2C([H])([H])C([H])([H])C1([H])[H]

$$$$
22:0:0
     RDKit          3D

 84 87  0  0  1  0  0  0  0  0999 V2000
    5.7733   -1.3314    5.6826 C   0  0  0  0  0  0  0  0  0  0  0  0
    5.2425   -1.7966    4.4432 O   0  0  0  0  0  0  0  0  0  0  0  0
    4.5103   -0.8682    3.6480 C   0  0  2  0  0  0  0  0  0  0  0  0
    3.4353   -0.0175    4.3931 C   0  0  0  0  0  0  0  0  0  0  0  0
    2.1624   -0.6842    4.9823 C   0  0  1  0  0  0  0  0  0  0  0  0
    1.4957    0.4335    5.5621 O   0  0  0  0  0  0  0  0  0  0  0  0
    1.2398   -1.4850    3.9805 C   0  0  1  0  0  0  0  0  0  0  0  0
   -0.2696   -1.1028    4.3061 C   0  0  0  0  0  0  0  0  0  0  0  0
    1.4274   -1.0146    2.4603 C   0  0  1  0  0  0  0  0  0  0  0  0
    0.7620    0.2206    2.2032 O   0  0  0  0  0  0  0  0  0  0  0  0
    2.8029   -0.9297    1.6768 C   0  0  1  0  0  0  0  0  0  0  0  0
    3.0955    0.4278    1.3224 O   0  0  0  0  0  0  0  0  0  0  0  0
    4.1430   -1.4901    2.2398 C   0  0  2  0  0  0  0  0  0  0  0  0
    4.4841   -3.0435    2.0012 C   0  0  0  0  0  0  0  0  0  0  0  0
    5.6971   -2.7652    1.5375 C   0  0  0  0  0  0  0  0  0  0  0  0
    6.6702   -3.5534    0.9310 O   0  0  0  0  0  0  0  0  0  0  0  0
    7.6912   -2.9997    0.2374 C   0  0  0  0  0  0  0  0  0  0  0  0
    8.8596   -3.9554    0.0626 C   0  0  0  0  0  0  0  0  0  0  0  0
    7.7588   -1.8561   -0.2021 O   0  0  0  0  0  0  0  0  0  0  0  0
    5.3893   -1.3108    1.2466 C   0  0  1  0  0  0  0  0  0  0  0  0
    5.0855   -1.0072   -0.1224 O   0  0  0  0  0  0  0  0  0  0  0  0
    4.6606   -1.8657   -1.0893 C   0  0  0  0  0  0  0  0  0  0  0  0
    4.3398   -1.1389   -2.3910 C   0  0  0  0  0  0  0  0  0  0  0  0
    4.5300   -3.0873   -0.9916 O   0  0  0  0  0  0  0  0  0  0  0  0
    3.6860   -4.3649    2.0195 C   0  0  1  0  0  0  0  0  0  0  0  0
    2.3969   -4.2051    1.1799 C   0  0  0  0  0  0  0  0  0  0  0  0
    4.3921   -5.4976    1.1930 C   0  0  0  0  0  0  0  0  0  0  0  0
    5.4613   -6.3413    1.8685 C   0  0  0  0  0  0  0  0  0  0  0  0
    4.9261   -6.8962    3.1758 C   0  0  0  0  0  0  0  0  0  0  0  0
    4.4999   -5.7720    4.1344 C   0  0  0  0  0  0  0  0  0  0  0  0
    4.0347   -6.4815    5.4230 C   0  0  0  0  0  0  0  0  0  0  0  0
    5.7885   -4.9757    4.5044 C   0  0  0  0  0  0  0  0  0  0  0  0
    3.3426   -4.9011    3.4638 C   0  0  1  0  0  0  0  0  0  0  0  0
    2.6271   -3.9317    4.4807 C   0  0  1  0  0  0  0  0  0  0  0  0
    3.4909   -3.3038    5.3765 O   0  0  0  0  0  0  0  0  0  0  0  0
    1.3019   -3.0892    4.1766 C   0  0  1  0  0  0  0  0  0  0  0  0
    0.2655   -3.6056    5.0451 O   0  0  0  0  0  0  0  0  0  0  0  0
    0.2696   -3.4446    6.3995 C   0  0  0  0  0  0  0  0  0  0  0  0
   -0.8931   -4.1884    7.0458 C   0  0  0  0  0  0  0  0  0  0  0  0
    1.0743   -2.7825    7.0357 O   0  0  0  0  0  0  0  0  0  0  0  0
    6.5063   -2.0538    6.0468 H   0  0  0  0  0  0  0  0  0  0  0  0
    4.9735   -1.2646    6.4281 H   0  0  0  0  0  0  0  0  0  0  0  0
    6.2654   -0.3652    5.5896 H   0  0  0  0  0  0  0  0  0  0  0  0
    5.2786   -0.0996    3.4751 H   0  0  0  0  0  0  0  0  0  0  0  0
    3.9342    0.4325    5.2546 H   0  0  0  0  0  0  0  0  0  0  0  0
    3.1662    0.8502    3.7788 H   0  0  0  0  0  0  0  0  0  0  0  0
    2.4339   -1.2948    5.8340 H   0  0  0  0  0  0  0  0  0  0  0  0
    1.2822    1.0514    4.8765 H   0  0  0  0  0  0  0  0  0  0  0  0
   -0.9640   -1.7143    3.7331 H   0  0  0  0  0  0  0  0  0  0  0  0
   -0.5291   -0.0530    4.0849 H   0  0  0  0  0  0  0  0  0  0  0  0
   -0.5359   -1.2594    5.3552 H   0  0  0  0  0  0  0  0  0  0  0  0
    0.7767   -1.6664    1.8817 H   0  0  0  0  0  0  0  0  0  0  0  0
    0.7178    0.3572    1.2691 H   0  0  0  0  0  0  0  0  0  0  0  0
    2.6170   -1.3813    0.7058 H   0  0  0  0  0  0  0  0  0  0  0  0
    3.1418    0.9171    2.1297 H   0  0  0  0  0  0  0  0  0  0  0  0
    9.3944   -4.0782    1.0047 H   0  0  0  0  0  0  0  0  0  0  0  0
    9.5397   -3.5102   -0.6549 H   0  0  0  0  0  0  0  0  0  0  0  0
    8.5380   -4.9238   -0.3242 H   0  0  0  0  0  0  0  0  0  0  0  0
    6.0940   -0.5704    1.6183 H   0  0  0  0  0  0  0  0  0  0  0  0
    5.2349   -0.6501   -2.7835 H   0  0  0  0  0  0  0  0  0  0  0  0
    3.5543   -0.3787   -2.2708 H   0  0  0  0  0  0  0  0  0  0  0  0
    3.9881   -1.8523   -3.1291 H   0  0  0  0  0  0  0  0  0  0  0  0
    1.7481   -5.0554    1.3253 H   0  0  0  0  0  0  0  0  0  0  0  0
    2.6026   -4.1839    0.1120 H   0  0  0  0  0  0  0  0  0  0  0  0
    1.8252   -3.3317    1.4056 H   0  0  0  0  0  0  0  0  0  0  0  0
    3.6321   -6.2090    0.8826 H   0  0  0  0  0  0  0  0  0  0  0  0
    4.7987   -5.1182    0.2570 H   0  0  0  0  0  0  0  0  0  0  0  0
    5.7284   -7.1688    1.2099 H   0  0  0  0  0  0  0  0  0  0  0  0
    6.3714   -5.7628    2.0147 H   0  0  0  0  0  0  0  0  0  0  0  0
    4.0648   -7.5423    2.9566 H   0  0  0  0  0  0  0  0  0  0  0  0
    5.6780   -7.5386    3.6278 H   0  0  0  0  0  0  0  0  0  0  0  0
    3.8824   -5.7743    6.2359 H   0  0  0  0  0  0  0  0  0  0  0  0
    4.7847   -7.1958    5.7595 H   0  0  0  0  0  0  0  0  0  0  0  0
    3.0994   -7.0257    5.2525 H   0  0  0  0  0  0  0  0  0  0  0  0
    5.6747   -4.3814    5.4061 H   0  0  0  0  0  0  0  0  0  0  0  0
    6.0860   -4.3064    3.6980 H   0  0  0  0  0  0  0  0  0  0  0  0
    6.6293   -5.6514    4.6732 H   0  0  0  0  0  0  0  0  0  0  0  0
    2.5693   -5.6495    3.2589 H   0  0  0  0  0  0  0  0  0  0  0  0
    2.2444   -4.7175    5.1137 H   0  0  0  0  0  0  0  0  0  0  0  0
    4.0692   -2.7154    4.8876 H   0  0  0  0  0  0  0  0  0  0  0  0
    0.9444   -3.5028    3.2356 H   0  0  0  0  0  0  0  0  0  0  0  0
   -0.8050   -5.2872    6.9539 H   0  0  0  0  0  0  0  0  0  0  0  0
   -1.8510   -3.8689    6.6248 H   0  0  0  0  0  0  0  0  0  0  0  0
   -0.8873   -3.9500    8.1001 H   0  0  0  0  0  0  0  0  0  0  0  0
  1  2  1  0
  1 41  1  0
  1 42  1  0
  1 43  1  0
  2  3  1  0
  3 13  1  0
  3  4  1  0
  3 44  1  6
  4  5  1  0
  4 45  1  0
  4 46  1  0
  5  6  1  0
  5  7  1  0
  5 47  1  1
  6 48  1  0
  7 36  1  0
  7  8  1  1
  7  9  1  0
  8 49  1  0
  8 50  1  0
  8 51  1  0
  9 10  1  0
  9 11  1  0
  9 52  1  6
 10 53  1  0
 11 12  1  0
 11 13  1  0
 11 54  1  6
 12 55  1  0
 13 20  1  0
 13 14  1  1
 14 15  2  0
 14 25  1  0
 15 16  1  0
 15 20  1  0
 16 17  1  0
 17 18  1  0
 17 19  2  0
 18 56  1  0
 18 57  1  0
 18 58  1  0
 20 21  1  0
 20 59  1  1
 21 22  1  0
 22 23  1  0
 22 24  2  0
 23 60  1  0
 23 61  1  0
 23 62  1  0
 25 33  1  0
 25 26  1  6
 25 27  1  0
 26 63  1  0
 26 64  1  0
 26 65  1  0
 27 28  1  0
 27 66  1  0
 27 67  1  0
 28 29  1  0
 28 68  1  0
 28 69  1  0
 29 30  1  0
 29 70  1  0
 29 71  1  0
 30 31  1  0
 30 32  1  0
 30 33  1  0
 31 72  1  0
 31 73  1  0
 31 74  1  0
 32 75  1  0
 32 76  1  0
 32 77  1  0
 33 34  1  0
 33 78  1  6
 34 35  1  0
 34 36  1  0
 34 79  1  1
 35 80  1  0
 36 37  1  0
 36 81  1  6
 37 38  1  0
 38 39  1  0
 38 40  2  0
 39 82  1  0
 39 83  1  0
 39 84  1  0
M  END
>  <i_m_ct_stereo_status>  (81) 
1

>  <s_m_source_file>  (81) 
/var/tmp/pbs.5076255.sched01/tmp6yc3ji7b/0haed4tc5.sdf

>  <i_m_source_file_index>  (81) 
32

>  <i_lp_mmshare_version>  (81) 
48012

>  <i_f3d_flags>  (81) 
0

>  <s_epik_input>  (81) 
W0NIM11PW0NAQEhdMVtDSDJdW0NAQEhdKFtPSF0pW0NAQF0oW0NIM10pKFtDQEBIXShbT0hdKVtDQEhdMltPSF0pW0NASF0oT0MoPU8pW0NIM10pW0NASF0oW09IXSlbQ0BIXShDKFtDSDNdKShbQ0gzXSlbQ0gyXVtDSDJdW0NIMl0zKVtDQEBdMyhbQ0gzXSlDKFtDQF0xMjQpPUMoT0MoPU8pW0NIM10pW0NASF00T0MoPU8pW0NIM10=

>  <s_epik_cmdline>  (81) 
J2VwaWtfcHl0aG9uJywgJy1waHQnLCAnMi4wJywgJy1waCcsICc3LjAnLCAnLXRuJywgJzgnLCAnLW1hJywgJzIwMCcsICctaW1hZScsICc8aW5maWxlLm1hZT4nLCAnLW9tYWUnLCAnPG91dGZpbGUubWFlPic=

>  <r_lp_tautomer_probability>  (81) 
1

>  <r_epik_Ionization_Penalty>  (81) 
5.03786e-07

>  <r_epik_Ionization_Penalty_Charging>  (81) 
0

>  <r_epik_Ionization_Penalty_Neutral>  (81) 
5.03786e-07

>  <r_epik_State_Penalty>  (81) 
-0

>  <r_epik_Charging_Adjusted_Penalty>  (81) 
0

>  <i_epik_Tot_Q>  (81) 
0

>  <i_epik_Tot_abs_Q>  (81) 
0

>  <s_epik_Chemistry_Notes>  (81) 
This compound has an ester and may undergo hydrolysis at high or low pH.

>  <s_lp_Force_Field>  (81) 
OPLS3e

>  <r_lp_Energy>  (81) 
108.28

>  <b_lp_Chiralities_Consistent>  (81) 
1

>  <s_lp_Variant>  (81) 
22:0-1

>  <s_i_glide_gridfile>  (81) 
pfpi4k_grid

>  <i_i_glide_lignum>  (81) 
32

>  <i_i_glide_rotatable_bonds>  (81) 
11

>  <r_i_docking_score>  (81) 
-3.3429

>  <r_i_glide_ligand_efficiency>  (81) 
-0.0835725

>  <r_i_glide_ligand_efficiency_sa>  (81) 
-0.285814

>  <r_i_glide_ligand_efficiency_ln>  (81) 
-0.712942

>  <r_i_glide_gscore>  (81) 
-3.3429

>  <r_i_glide_lipo>  (81) 
-0.39704

>  <r_i_glide_hbond>  (81) 
-0.132106

>  <r_i_glide_metal>  (81) 
-0

>  <r_i_glide_rewards>  (81) 
-0.748535

>  <r_i_glide_evdw>  (81) 
-29.8855

>  <r_i_glide_ecoul>  (81) 
-4.23086

>  <r_i_glide_erotb>  (81) 
0.104831

>  <r_i_glide_esite>  (81) 
-0.0411439

>  <r_i_glide_emodel>  (81) 
-40.0668

>  <r_i_glide_energy>  (81) 
-34.1164

>  <r_i_glide_einternal>  (81) 
9.5454

>  <r_i_glide_intrahb_reward>  (81) 
-0.5

>  <i_i_glide_confnum>  (81) 
6

>  <i_i_glide_posenum>  (81) 
15

>  <r_i_glide_eff_state_penalty>  (81) 
0

>  <ligand_id>  (81) 
22

>  <original_smiles>  (81) 
COC1CC(O)C2(C)C(O)C(O)C13C(=C(OC(C)=O)C3OC(C)=O)C1(C)CCCC(C)(C)C1C(O)C2OC(C)=O

>  <smiles>  (81) 
[H]OC1([H])C([H])(OC(=O)C([H])([H])[H])C2(C([H])([H])[H])C([H])(O[H])C([H])([H])C([H])(OC([H])([H])[H])C3(C(=C(OC(=O)C([H])([H])[H])C3([H])OC(=O)C([H])([H])[H])C3(C([H])([H])[H])C([H])([H])C([H])([H])C([H])([H])C(C([H])([H])[H])(C([H])([H])[H])C13[H])C([H])(O[H])C2([H])O[H]

$$$$
22:0:1
     RDKit          3D

 84 87  0  0  1  0  0  0  0  0999 V2000
    0.2697    1.7598    8.9493 C   0  0  0  0  0  0  0  0  0  0  0  0
    0.7442    1.4878    7.6409 O   0  0  0  0  0  0  0  0  0  0  0  0
    1.5137    2.5026    6.9946 C   0  0  2  0  0  0  0  0  0  0  0  0
    0.8683    3.9164    6.8771 C   0  0  0  0  0  0  0  0  0  0  0  0
   -0.2674    4.1952    5.8917 C   0  0  1  0  0  0  0  0  0  0  0  0
   -0.5229    5.5581    6.1531 O   0  0  0  0  0  0  0  0  0  0  0  0
   -0.0241    3.8576    4.3518 C   0  0  1  0  0  0  0  0  0  0  0  0
   -0.6226    5.0296    3.5121 C   0  0  0  0  0  0  0  0  0  0  0  0
    1.5148    3.8327    3.9566 C   0  0  1  0  0  0  0  0  0  0  0  0
    2.0469    5.1494    3.8013 O   0  0  0  0  0  0  0  0  0  0  0  0
    2.6522    2.9762    4.6809 C   0  0  1  0  0  0  0  0  0  0  0  0
    3.5460    3.8851    5.3208 O   0  0  0  0  0  0  0  0  0  0  0  0
    2.3345    1.9237    5.7880 C   0  0  2  0  0  0  0  0  0  0  0  0
    1.9896    0.4433    5.3736 C   0  0  0  0  0  0  0  0  0  0  0  0
    2.8296   -0.0662    6.2815 C   0  0  0  0  0  0  0  0  0  0  0  0
    3.3850   -1.3198    6.3804 O   0  0  0  0  0  0  0  0  0  0  0  0
    4.3476   -1.5497    7.3264 C   0  0  0  0  0  0  0  0  0  0  0  0
    4.5782   -3.0233    7.6241 C   0  0  0  0  0  0  0  0  0  0  0  0
    4.9848   -0.7067    7.9527 O   0  0  0  0  0  0  0  0  0  0  0  0
    3.6134    1.2114    6.4075 C   0  0  1  0  0  0  0  0  0  0  0  0
    4.9100    1.1907    5.7887 O   0  0  0  0  0  0  0  0  0  0  0  0
    5.3160    0.5137    4.6770 C   0  0  0  0  0  0  0  0  0  0  0  0
    6.8403    0.4768    4.5658 C   0  0  0  0  0  0  0  0  0  0  0  0
    4.6196   -0.0512    3.8467 O   0  0  0  0  0  0  0  0  0  0  0  0
    1.2423   -0.2121    4.1799 C   0  0  1  0  0  0  0  0  0  0  0  0
    1.6072    0.4294    2.8109 C   0  0  0  0  0  0  0  0  0  0  0  0
    1.7066   -1.6920    3.9119 C   0  0  0  0  0  0  0  0  0  0  0  0
    1.1356   -2.8087    4.7777 C   0  0  0  0  0  0  0  0  0  0  0  0
   -0.3660   -2.6713    4.7420 C   0  0  0  0  0  0  0  0  0  0  0  0
   -0.8631   -1.3553    5.3246 C   0  0  0  0  0  0  0  0  0  0  0  0
   -2.4000   -1.3835    5.3242 C   0  0  0  0  0  0  0  0  0  0  0  0
   -0.4423   -1.3194    6.7970 C   0  0  0  0  0  0  0  0  0  0  0  0
   -0.3079   -0.1987    4.3950 C   0  0  1  0  0  0  0  0  0  0  0  0
   -0.9987    1.1765    4.6749 C   0  0  1  0  0  0  0  0  0  0  0  0
   -1.3017    1.4114    6.0266 O   0  0  0  0  0  0  0  0  0  0  0  0
   -0.7630    2.5091    3.8447 C   0  0  1  0  0  0  0  0  0  0  0  0
   -1.9940    2.7457    3.1415 O   0  0  0  0  0  0  0  0  0  0  0  0
   -3.0899    3.0712    3.7936 C   0  0  0  0  0  0  0  0  0  0  0  0
   -4.2744    3.3625    2.8683 C   0  0  0  0  0  0  0  0  0  0  0  0
   -3.1654    3.1929    5.0170 O   0  0  0  0  0  0  0  0  0  0  0  0
   -0.1710    0.8576    9.3690 H   0  0  0  0  0  0  0  0  0  0  0  0
   -0.5110    2.5168    8.9248 H   0  0  0  0  0  0  0  0  0  0  0  0
    1.0732    2.0820    9.6114 H   0  0  0  0  0  0  0  0  0  0  0  0
    2.2328    2.7381    7.7726 H   0  0  0  0  0  0  0  0  0  0  0  0
    0.4490    4.1653    7.8640 H   0  0  0  0  0  0  0  0  0  0  0  0
    1.6651    4.6517    6.7133 H   0  0  0  0  0  0  0  0  0  0  0  0
   -1.1548    3.7170    6.3139 H   0  0  0  0  0  0  0  0  0  0  0  0
    0.2538    6.0739    5.9003 H   0  0  0  0  0  0  0  0  0  0  0  0
   -0.5182    4.7597    2.4910 H   0  0  0  0  0  0  0  0  0  0  0  0
   -0.1492    5.9816    3.7104 H   0  0  0  0  0  0  0  0  0  0  0  0
   -1.6318    5.2486    3.8167 H   0  0  0  0  0  0  0  0  0  0  0  0
    1.5219    3.5283    2.9135 H   0  0  0  0  0  0  0  0  0  0  0  0
    1.9799    5.5892    4.6283 H   0  0  0  0  0  0  0  0  0  0  0  0
    3.2842    2.5310    3.9011 H   0  0  0  0  0  0  0  0  0  0  0  0
    3.7511    4.5298    4.6578 H   0  0  0  0  0  0  0  0  0  0  0  0
    3.7285   -3.4527    8.1538 H   0  0  0  0  0  0  0  0  0  0  0  0
    5.4486   -3.1330    8.2733 H   0  0  0  0  0  0  0  0  0  0  0  0
    4.7647   -3.5773    6.7087 H   0  0  0  0  0  0  0  0  0  0  0  0
    3.7846    1.5435    7.4301 H   0  0  0  0  0  0  0  0  0  0  0  0
    7.1996    0.0126    5.4866 H   0  0  0  0  0  0  0  0  0  0  0  0
    7.3570    1.4390    4.4711 H   0  0  0  0  0  0  0  0  0  0  0  0
    7.0703   -0.1388    3.6862 H   0  0  0  0  0  0  0  0  0  0  0  0
    0.9274    0.1218    2.0151 H   0  0  0  0  0  0  0  0  0  0  0  0
    2.5849    0.1099    2.4545 H   0  0  0  0  0  0  0  0  0  0  0  0
    1.6192    1.4982    2.8070 H   0  0  0  0  0  0  0  0  0  0  0  0
    1.4451   -1.9466    2.8809 H   0  0  0  0  0  0  0  0  0  0  0  0
    2.7899   -1.7766    3.9346 H   0  0  0  0  0  0  0  0  0  0  0  0
    1.3946   -3.7633    4.3228 H   0  0  0  0  0  0  0  0  0  0  0  0
    1.5484   -2.8130    5.7660 H   0  0  0  0  0  0  0  0  0  0  0  0
   -0.6098   -2.6672    3.6866 H   0  0  0  0  0  0  0  0  0  0  0  0
   -0.7979   -3.5151    5.2933 H   0  0  0  0  0  0  0  0  0  0  0  0
   -2.8600   -0.5359    5.8508 H   0  0  0  0  0  0  0  0  0  0  0  0
   -2.7726   -2.2978    5.7685 H   0  0  0  0  0  0  0  0  0  0  0  0
   -2.7361   -1.2534    4.3079 H   0  0  0  0  0  0  0  0  0  0  0  0
   -0.9527   -0.5234    7.3545 H   0  0  0  0  0  0  0  0  0  0  0  0
    0.6315   -1.1691    6.9048 H   0  0  0  0  0  0  0  0  0  0  0  0
   -0.6629   -2.2878    7.2720 H   0  0  0  0  0  0  0  0  0  0  0  0
   -0.6912   -0.4345    3.3987 H   0  0  0  0  0  0  0  0  0  0  0  0
   -1.9738    0.8378    4.3246 H   0  0  0  0  0  0  0  0  0  0  0  0
   -1.9059    2.1408    6.0371 H   0  0  0  0  0  0  0  0  0  0  0  0
   -0.2544    2.1856    2.9516 H   0  0  0  0  0  0  0  0  0  0  0  0
   -4.5711    2.4992    2.2756 H   0  0  0  0  0  0  0  0  0  0  0  0
   -4.0542    4.2103    2.2254 H   0  0  0  0  0  0  0  0  0  0  0  0
   -5.1219    3.7360    3.4606 H   0  0  0  0  0  0  0  0  0  0  0  0
  1  2  1  0
  1 41  1  0
  1 42  1  0
  1 43  1  0
  2  3  1  0
  3 13  1  0
  3  4  1  0
  3 44  1  1
  4  5  1  0
  4 45  1  0
  4 46  1  0
  5  6  1  0
  5  7  1  0
  5 47  1  1
  6 48  1  0
  7 36  1  0
  7  8  1  6
  7  9  1  0
  8 49  1  0
  8 50  1  0
  8 51  1  0
  9 10  1  0
  9 11  1  0
  9 52  1  6
 10 53  1  0
 11 12  1  0
 11 13  1  0
 11 54  1  6
 12 55  1  0
 13 20  1  0
 13 14  1  6
 14 15  2  0
 14 25  1  0
 15 16  1  0
 15 20  1  0
 16 17  1  0
 17 18  1  0
 17 19  2  0
 18 56  1  0
 18 57  1  0
 18 58  1  0
 20 21  1  0
 20 59  1  1
 21 22  1  0
 22 23  1  0
 22 24  2  0
 23 60  1  0
 23 61  1  0
 23 62  1  0
 25 33  1  0
 25 26  1  6
 25 27  1  0
 26 63  1  0
 26 64  1  0
 26 65  1  0
 27 28  1  0
 27 66  1  0
 27 67  1  0
 28 29  1  0
 28 68  1  0
 28 69  1  0
 29 30  1  0
 29 70  1  0
 29 71  1  0
 30 31  1  0
 30 32  1  0
 30 33  1  0
 31 72  1  0
 31 73  1  0
 31 74  1  0
 32 75  1  0
 32 76  1  0
 32 77  1  0
 33 34  1  0
 33 78  1  6
 34 35  1  0
 34 36  1  0
 34 79  1  6
 35 80  1  0
 36 37  1  0
 36 81  1  6
 37 38  1  0
 38 39  1  0
 38 40  2  0
 39 82  1  0
 39 83  1  0
 39 84  1  0
M  END
>  <i_m_ct_stereo_status>  (82) 
1

>  <s_m_source_file>  (82) 
/var/tmp/pbs.5076255.sched01/tmp6yc3ji7b/0haed4tc5.sdf

>  <i_m_source_file_index>  (82) 
32

>  <i_lp_mmshare_version>  (82) 
48012

>  <i_f3d_flags>  (82) 
0

>  <s_epik_input>  (82) 
W0NIM11PW0NAQEhdMVtDSDJdW0NAQEhdKFtPSF0pW0NAQF0oW0NIM10pKFtDQEBIXShbT0hdKVtDQEhdMltPSF0pW0NASF0oT0MoPU8pW0NIM10pW0NASF0oW09IXSlbQ0BIXShDKFtDSDNdKShbQ0gzXSlbQ0gyXVtDSDJdW0NIMl0zKVtDQEBdMyhbQ0gzXSlDKFtDQF0xMjQpPUMoT0MoPU8pW0NIM10pW0NASF00T0MoPU8pW0NIM10=

>  <s_epik_cmdline>  (82) 
J2VwaWtfcHl0aG9uJywgJy1waHQnLCAnMi4wJywgJy1waCcsICc3LjAnLCAnLXRuJywgJzgnLCAnLW1hJywgJzIwMCcsICctaW1hZScsICc8aW5maWxlLm1hZT4nLCAnLW9tYWUnLCAnPG91dGZpbGUubWFlPic=

>  <r_lp_tautomer_probability>  (82) 
1

>  <r_epik_Ionization_Penalty>  (82) 
5.03786e-07

>  <r_epik_Ionization_Penalty_Charging>  (82) 
0

>  <r_epik_Ionization_Penalty_Neutral>  (82) 
5.03786e-07

>  <r_epik_State_Penalty>  (82) 
-0

>  <r_epik_Charging_Adjusted_Penalty>  (82) 
0

>  <i_epik_Tot_Q>  (82) 
0

>  <i_epik_Tot_abs_Q>  (82) 
0

>  <s_epik_Chemistry_Notes>  (82) 
This compound has an ester and may undergo hydrolysis at high or low pH.

>  <s_lp_Force_Field>  (82) 
OPLS3e

>  <r_lp_Energy>  (82) 
108.28

>  <b_lp_Chiralities_Consistent>  (82) 
1

>  <s_lp_Variant>  (82) 
22:0-1

>  <s_i_glide_gridfile>  (82) 
pfpi4k_grid

>  <i_i_glide_lignum>  (82) 
32

>  <i_i_glide_rotatable_bonds>  (82) 
11

>  <r_i_docking_score>  (82) 
-2.08622

>  <r_i_glide_ligand_efficiency>  (82) 
-0.0521556

>  <r_i_glide_ligand_efficiency_sa>  (82) 
-0.17837

>  <r_i_glide_ligand_efficiency_ln>  (82) 
-0.44493

>  <r_i_glide_gscore>  (82) 
-2.08622

>  <r_i_glide_lipo>  (82) 
-0.27214

>  <r_i_glide_hbond>  (82) 
0

>  <r_i_glide_metal>  (82) 
-0

>  <r_i_glide_rewards>  (82) 
-0.640906

>  <r_i_glide_evdw>  (82) 
-14.3517

>  <r_i_glide_ecoul>  (82) 
-3.45741

>  <r_i_glide_erotb>  (82) 
0.104831

>  <r_i_glide_esite>  (82) 
-0.0418092

>  <r_i_glide_emodel>  (82) 
-17.7693

>  <r_i_glide_energy>  (82) 
-17.8092

>  <r_i_glide_einternal>  (82) 
12.1821

>  <r_i_glide_intrahb_reward>  (82) 
-0.5

>  <i_i_glide_confnum>  (82) 
6

>  <i_i_glide_posenum>  (82) 
32

>  <r_i_glide_eff_state_penalty>  (82) 
0

>  <ligand_id>  (82) 
22

>  <original_smiles>  (82) 
COC1CC(O)C2(C)C(O)C(O)C13C(=C(OC(C)=O)C3OC(C)=O)C1(C)CCCC(C)(C)C1C(O)C2OC(C)=O

>  <smiles>  (82) 
[H]OC1([H])C([H])(OC(=O)C([H])([H])[H])C2(C([H])([H])[H])C([H])(O[H])C([H])([H])C([H])(OC([H])([H])[H])C3(C(=C(OC(=O)C([H])([H])[H])C3([H])OC(=O)C([H])([H])[H])C3(C([H])([H])[H])C([H])([H])C([H])([H])C([H])([H])C(C([H])([H])[H])(C([H])([H])[H])C13[H])C([H])(O[H])C2([H])O[H]

$$$$
23:0:0
     RDKit          3D

 39 42  0  0  1  0  0  0  0  0999 V2000
   -0.0418   -1.9225    6.2347 C   0  0  0  0  0  0  0  0  0  0  0  0
    0.9893   -0.8775    6.6962 C   0  0  0  0  0  0  0  0  0  0  0  0
    1.6341   -1.1409    7.7112 O   0  0  0  0  0  0  0  0  0  0  0  0
    1.1589    0.2624    5.9819 N   0  0  0  0  0  0  0  0  0  0  0  0
    0.3379    0.5357    4.8688 C   0  0  0  0  0  0  0  0  0  0  0  0
    0.6320    1.5004    3.9893 C   0  0  0  0  0  0  0  0  0  0  0  0
   -0.4574    2.3256    3.5417 C   0  0  0  0  0  0  0  0  0  0  0  0
   -1.5275    1.9241    2.7253 C   0  0  0  0  0  0  0  0  0  0  0  0
   -2.5612    2.8573    2.5044 C   0  0  0  0  0  0  0  0  0  0  0  0
   -2.4370    4.1424    3.0601 C   0  0  0  0  0  0  0  0  0  0  0  0
   -1.4141    4.5301    3.8497 N   0  0  0  0  0  0  0  0  0  0  0  0
   -0.4255    3.6369    4.0622 C   0  0  0  0  0  0  0  0  0  0  0  0
    0.6268    4.0860    4.8455 O   0  0  0  0  0  0  0  0  0  0  0  0
    1.7832    3.2799    5.0525 C   0  0  1  0  0  0  0  0  0  0  0  0
    2.9344    4.3067    5.0625 C   0  0  0  0  0  0  0  0  0  0  0  0
    1.7340    2.6045    6.3117 O   0  0  0  0  0  0  0  0  0  0  0  0
    2.1934    1.2453    6.3867 C   0  0  2  0  0  0  0  0  0  0  0  0
    3.5031    1.0675    5.5856 C   0  0  1  0  0  0  0  0  0  0  0  0
    4.1625   -0.3086    5.8142 C   0  0  0  0  0  0  0  0  0  0  0  0
    3.1996    1.3567    4.1113 C   0  0  0  0  0  0  0  0  0  0  0  0
    1.9391    2.2379    3.9254 C   0  0  1  0  0  0  0  0  0  0  0  0
    0.0494   -2.1255    5.1665 H   0  0  0  0  0  0  0  0  0  0  0  0
   -1.0547   -1.5826    6.4447 H   0  0  0  0  0  0  0  0  0  0  0  0
    0.1162   -2.8655    6.7602 H   0  0  0  0  0  0  0  0  0  0  0  0
   -0.6842    0.2169    4.9945 H   0  0  0  0  0  0  0  0  0  0  0  0
   -1.5795    0.9299    2.3103 H   0  0  0  0  0  0  0  0  0  0  0  0
   -3.4017    2.6011    1.8778 H   0  0  0  0  0  0  0  0  0  0  0  0
   -3.2017    4.8834    2.8759 H   0  0  0  0  0  0  0  0  0  0  0  0
    2.7742    5.0290    5.8623 H   0  0  0  0  0  0  0  0  0  0  0  0
    2.9313    4.8485    4.1154 H   0  0  0  0  0  0  0  0  0  0  0  0
    3.9107    3.8429    5.1851 H   0  0  0  0  0  0  0  0  0  0  0  0
    2.4003    1.1189    7.4493 H   0  0  0  0  0  0  0  0  0  0  0  0
    4.1957    1.8115    5.9753 H   0  0  0  0  0  0  0  0  0  0  0  0
    3.5695   -1.1314    5.4121 H   0  0  0  0  0  0  0  0  0  0  0  0
    4.3282   -0.5060    6.8747 H   0  0  0  0  0  0  0  0  0  0  0  0
    5.1349   -0.3497    5.3226 H   0  0  0  0  0  0  0  0  0  0  0  0
    4.0699    1.8507    3.6830 H   0  0  0  0  0  0  0  0  0  0  0  0
    3.0843    0.4318    3.5443 H   0  0  0  0  0  0  0  0  0  0  0  0
    2.0163    2.7411    2.9592 H   0  0  0  0  0  0  0  0  0  0  0  0
  1  2  1  0
  1 22  1  0
  1 23  1  0
  1 24  1  0
  2  3  2  0
  2  4  1  0
  4 17  1  0
  4  5  1  0
  5  6  2  0
  5 25  1  0
  6 21  1  0
  6  7  1  0
  7 12  1  0
  7  8  2  0
  8  9  1  0
  8 26  1  0
  9 10  2  0
  9 27  1  0
 10 11  1  0
 10 28  1  0
 11 12  2  0
 12 13  1  0
 13 14  1  0
 14 21  1  0
 14 15  1  1
 14 16  1  0
 15 29  1  0
 15 30  1  0
 15 31  1  0
 16 17  1  0
 17 18  1  0
 17 32  1  1
 18 19  1  0
 18 20  1  0
 18 33  1  1
 19 34  1  0
 19 35  1  0
 19 36  1  0
 20 21  1  0
 20 37  1  0
 20 38  1  0
 21 39  1  6
M  END
>  <i_m_ct_stereo_status>  (83) 
1

>  <s_m_source_file>  (83) 
/var/tmp/pbs.5076255.sched01/tmp6yc3ji7b/0haed4tc5.sdf

>  <i_m_source_file_index>  (83) 
33

>  <i_lp_mmshare_version>  (83) 
48012

>  <i_f3d_flags>  (83) 
0

>  <s_epik_input>  (83) 
W0NIM11bQ0BASF0oW0NIMl0xKVtDQEBIXShPMilOKEMoPU8pW0NIM10pW0NIXT1DKFtDQEhdMVtDQF0yM1tDSDNdKWM0YyhPMyluW2NIXVtjSF1bY0hdNA==

>  <s_epik_cmdline>  (83) 
J2VwaWtfcHl0aG9uJywgJy1waHQnLCAnMi4wJywgJy1waCcsICc3LjAnLCAnLXRuJywgJzgnLCAnLW1hJywgJzIwMCcsICctaW1hZScsICc8aW5maWxlLm1hZT4nLCAnLW9tYWUnLCAnPG91dGZpbGUubWFlPic=

>  <r_lp_tautomer_probability>  (83) 
1

>  <r_epik_Ionization_Penalty>  (83) 
5.3715e-06

>  <r_epik_Ionization_Penalty_Charging>  (83) 
0

>  <r_epik_Ionization_Penalty_Neutral>  (83) 
5.3715e-06

>  <r_epik_State_Penalty>  (83) 
-0

>  <r_epik_Charging_Adjusted_Penalty>  (83) 
0

>  <i_epik_Tot_Q>  (83) 
0

>  <i_epik_Tot_abs_Q>  (83) 
0

>  <s_epik_Chemistry_Notes>  (83) 
This compound contains an acetal/aminal-like group ( X-CH(R)-Y where X, Y are N, S, or O) that may be acid/base labile, releasing an aldehyde.

>  <s_lp_Force_Field>  (83) 
OPLS3e

>  <r_lp_Energy>  (83) 
82.5316

>  <b_lp_Chiralities_Consistent>  (83) 
1

>  <s_lp_Variant>  (83) 
23:0-1

>  <s_i_glide_gridfile>  (83) 
pfpi4k_grid

>  <i_i_glide_lignum>  (83) 
33

>  <i_i_glide_rotatable_bonds>  (83) 
1

>  <r_i_docking_score>  (83) 
-2.69032

>  <r_i_glide_ligand_efficiency>  (83) 
-0.12811

>  <r_i_glide_ligand_efficiency_sa>  (83) 
-0.353447

>  <r_i_glide_ligand_efficiency_ln>  (83) 
-0.665176

>  <r_i_glide_gscore>  (83) 
-2.69032

>  <r_i_glide_lipo>  (83) 
-0.000965155

>  <r_i_glide_hbond>  (83) 
-0.136717

>  <r_i_glide_metal>  (83) 
-0

>  <r_i_glide_rewards>  (83) 
-1.45687

>  <r_i_glide_evdw>  (83) 
-14.3625

>  <r_i_glide_ecoul>  (83) 
-2.44467

>  <r_i_glide_erotb>  (83) 
0

>  <r_i_glide_esite>  (83) 
-0.0109401

>  <r_i_glide_emodel>  (83) 
-20.0501

>  <r_i_glide_energy>  (83) 
-16.8072

>  <r_i_glide_einternal>  (83) 
0.000132566

>  <r_i_glide_intrahb_reward>  (83) 
-0

>  <i_i_glide_confnum>  (83) 
2

>  <i_i_glide_posenum>  (83) 
25

>  <r_i_glide_eff_state_penalty>  (83) 
0

>  <ligand_id>  (83) 
23

>  <original_smiles>  (83) 
CC(=O)N1C=C2c3cccnc3OC3(C)OC1C(C)CC23

>  <smiles>  (83) 
[H]C1=C2c3c(nc([H])c([H])c3[H])OC3(C([H])([H])[H])OC([H])(N1C(=O)C([H])([H])[H])C([H])(C([H])([H])[H])C([H])([H])C23[H]

$$$$
23:0:1
     RDKit          3D

 39 42  0  0  1  0  0  0  0  0999 V2000
    2.5776    4.1441    6.7826 C   0  0  0  0  0  0  0  0  0  0  0  0
    1.4159    3.2589    7.2561 C   0  0  0  0  0  0  0  0  0  0  0  0
    1.0646    3.3746    8.4316 O   0  0  0  0  0  0  0  0  0  0  0  0
    0.8113    2.4058    6.3816 N   0  0  0  0  0  0  0  0  0  0  0  0
    1.2904    2.2845    5.0680 C   0  0  0  0  0  0  0  0  0  0  0  0
    0.5878    1.6802    4.1017 C   0  0  0  0  0  0  0  0  0  0  0  0
    1.3087    0.8036    3.2185 C   0  0  0  0  0  0  0  0  0  0  0  0
    2.2677    1.1779    2.2631 C   0  0  0  0  0  0  0  0  0  0  0  0
    2.9374    0.1484    1.5750 C   0  0  0  0  0  0  0  0  0  0  0  0
    2.6109   -1.1908    1.8764 C   0  0  0  0  0  0  0  0  0  0  0  0
    1.6827   -1.5468    2.7930 N   0  0  0  0  0  0  0  0  0  0  0  0
    1.0367   -0.5592    3.4428 C   0  0  0  0  0  0  0  0  0  0  0  0
    0.0862   -0.9833    4.3619 O   0  0  0  0  0  0  0  0  0  0  0  0
   -0.7585   -0.0429    5.0258 C   0  0  1  0  0  0  0  0  0  0  0  0
   -2.1039   -0.7834    5.1196 C   0  0  0  0  0  0  0  0  0  0  0  0
   -0.2977    0.2373    6.3501 O   0  0  0  0  0  0  0  0  0  0  0  0
   -0.3476    1.5932    6.8234 C   0  0  2  0  0  0  0  0  0  0  0  0
   -1.6936    2.2479    6.4378 C   0  0  1  0  0  0  0  0  0  0  0  0
   -1.9068    3.6143    7.1206 C   0  0  0  0  0  0  0  0  0  0  0  0
   -1.7750    2.3109    4.9050 C   0  0  0  0  0  0  0  0  0  0  0  0
   -0.8564    1.2709    4.2222 C   0  0  1  0  0  0  0  0  0  0  0  0
    2.3430    4.6402    5.8402 H   0  0  0  0  0  0  0  0  0  0  0  0
    3.4875    3.5547    6.6547 H   0  0  0  0  0  0  0  0  0  0  0  0
    2.7846    4.9242    7.5184 H   0  0  0  0  0  0  0  0  0  0  0  0
    2.3704    2.3443    4.9888 H   0  0  0  0  0  0  0  0  0  0  0  0
    2.4981    2.2167    2.0801 H   0  0  0  0  0  0  0  0  0  0  0  0
    3.6845    0.3749    0.8287 H   0  0  0  0  0  0  0  0  0  0  0  0
    3.1013   -2.0034    1.3616 H   0  0  0  0  0  0  0  0  0  0  0  0
   -1.9815   -1.7153    5.6727 H   0  0  0  0  0  0  0  0  0  0  0  0
   -2.4333   -1.0311    4.1103 H   0  0  0  0  0  0  0  0  0  0  0  0
   -2.8794   -0.1891    5.5931 H   0  0  0  0  0  0  0  0  0  0  0  0
   -0.2975    1.4790    7.9078 H   0  0  0  0  0  0  0  0  0  0  0  0
   -2.4705    1.5878    6.8240 H   0  0  0  0  0  0  0  0  0  0  0  0
   -1.2073    4.3694    6.7638 H   0  0  0  0  0  0  0  0  0  0  0  0
   -1.7977    3.5475    8.2040 H   0  0  0  0  0  0  0  0  0  0  0  0
   -2.9114    3.9830    6.9198 H   0  0  0  0  0  0  0  0  0  0  0  0
   -2.8070    2.1475    4.6027 H   0  0  0  0  0  0  0  0  0  0  0  0
   -1.5225    3.3089    4.5456 H   0  0  0  0  0  0  0  0  0  0  0  0
   -1.2509    1.0715    3.2265 H   0  0  0  0  0  0  0  0  0  0  0  0
  1  2  1  0
  1 22  1  0
  1 23  1  0
  1 24  1  0
  2  3  2  0
  2  4  1  0
  4 17  1  0
  4  5  1  0
  5  6  2  0
  5 25  1  0
  6 21  1  0
  6  7  1  0
  7 12  1  0
  7  8  2  0
  8  9  1  0
  8 26  1  0
  9 10  2  0
  9 27  1  0
 10 11  1  0
 10 28  1  0
 11 12  2  0
 12 13  1  0
 13 14  1  0
 14 21  1  0
 14 15  1  1
 14 16  1  0
 15 29  1  0
 15 30  1  0
 15 31  1  0
 16 17  1  0
 17 18  1  0
 17 32  1  1
 18 19  1  0
 18 20  1  0
 18 33  1  1
 19 34  1  0
 19 35  1  0
 19 36  1  0
 20 21  1  0
 20 37  1  0
 20 38  1  0
 21 39  1  6
M  END
>  <i_m_ct_stereo_status>  (84) 
1

>  <s_m_source_file>  (84) 
/var/tmp/pbs.5076255.sched01/tmp6yc3ji7b/0haed4tc5.sdf

>  <i_m_source_file_index>  (84) 
33

>  <i_lp_mmshare_version>  (84) 
48012

>  <i_f3d_flags>  (84) 
0

>  <s_epik_input>  (84) 
W0NIM11bQ0BASF0oW0NIMl0xKVtDQEBIXShPMilOKEMoPU8pW0NIM10pW0NIXT1DKFtDQEhdMVtDQF0yM1tDSDNdKWM0YyhPMyluW2NIXVtjSF1bY0hdNA==

>  <s_epik_cmdline>  (84) 
J2VwaWtfcHl0aG9uJywgJy1waHQnLCAnMi4wJywgJy1waCcsICc3LjAnLCAnLXRuJywgJzgnLCAnLW1hJywgJzIwMCcsICctaW1hZScsICc8aW5maWxlLm1hZT4nLCAnLW9tYWUnLCAnPG91dGZpbGUubWFlPic=

>  <r_lp_tautomer_probability>  (84) 
1

>  <r_epik_Ionization_Penalty>  (84) 
5.3715e-06

>  <r_epik_Ionization_Penalty_Charging>  (84) 
0

>  <r_epik_Ionization_Penalty_Neutral>  (84) 
5.3715e-06

>  <r_epik_State_Penalty>  (84) 
-0

>  <r_epik_Charging_Adjusted_Penalty>  (84) 
0

>  <i_epik_Tot_Q>  (84) 
0

>  <i_epik_Tot_abs_Q>  (84) 
0

>  <s_epik_Chemistry_Notes>  (84) 
This compound contains an acetal/aminal-like group ( X-CH(R)-Y where X, Y are N, S, or O) that may be acid/base labile, releasing an aldehyde.

>  <s_lp_Force_Field>  (84) 
OPLS3e

>  <r_lp_Energy>  (84) 
82.5316

>  <b_lp_Chiralities_Consistent>  (84) 
1

>  <s_lp_Variant>  (84) 
23:0-1

>  <s_i_glide_gridfile>  (84) 
pfpi4k_grid

>  <i_i_glide_lignum>  (84) 
33

>  <i_i_glide_rotatable_bonds>  (84) 
1

>  <r_i_docking_score>  (84) 
-2.39515

>  <r_i_glide_ligand_efficiency>  (84) 
-0.114055

>  <r_i_glide_ligand_efficiency_sa>  (84) 
-0.314669

>  <r_i_glide_ligand_efficiency_ln>  (84) 
-0.592197

>  <r_i_glide_gscore>  (84) 
-2.39515

>  <r_i_glide_lipo>  (84) 
-0.0744073

>  <r_i_glide_hbond>  (84) 
0

>  <r_i_glide_metal>  (84) 
-0

>  <r_i_glide_rewards>  (84) 
-1.45687

>  <r_i_glide_evdw>  (84) 
-19.3694

>  <r_i_glide_ecoul>  (84) 
0.927372

>  <r_i_glide_erotb>  (84) 
0

>  <r_i_glide_esite>  (84) 
-0.034514

>  <r_i_glide_emodel>  (84) 
-21.3441

>  <r_i_glide_energy>  (84) 
-18.442

>  <r_i_glide_einternal>  (84) 
0.000528615

>  <r_i_glide_intrahb_reward>  (84) 
-0

>  <i_i_glide_confnum>  (84) 
2

>  <i_i_glide_posenum>  (84) 
6

>  <r_i_glide_eff_state_penalty>  (84) 
0

>  <ligand_id>  (84) 
23

>  <original_smiles>  (84) 
CC(=O)N1C=C2c3cccnc3OC3(C)OC1C(C)CC23

>  <smiles>  (84) 
[H]C1=C2c3c(nc([H])c([H])c3[H])OC3(C([H])([H])[H])OC([H])(N1C(=O)C([H])([H])[H])C([H])(C([H])([H])[H])C([H])([H])C23[H]

$$$$
23:0:2
     RDKit          3D

 39 42  0  0  1  0  0  0  0  0999 V2000
    1.0909    3.0769    8.9410 C   0  0  0  0  0  0  0  0  0  0  0  0
    1.4243    3.1051    7.4462 C   0  0  0  0  0  0  0  0  0  0  0  0
    2.3176    3.8806    7.0897 O   0  0  0  0  0  0  0  0  0  0  0  0
    0.7858    2.2906    6.5550 N   0  0  0  0  0  0  0  0  0  0  0  0
    1.2734    2.2337    5.2366 C   0  0  0  0  0  0  0  0  0  0  0  0
    0.5901    1.6484    4.2364 C   0  0  0  0  0  0  0  0  0  0  0  0
    1.3130    0.7979    3.3190 C   0  0  0  0  0  0  0  0  0  0  0  0
    2.2870    1.1936    2.3868 C   0  0  0  0  0  0  0  0  0  0  0  0
    2.9497    0.1736    1.6786 C   0  0  0  0  0  0  0  0  0  0  0  0
    2.5999   -1.1702    1.9289 C   0  0  0  0  0  0  0  0  0  0  0  0
    1.6518   -1.5467    2.8210 N   0  0  0  0  0  0  0  0  0  0  0  0
    1.0214   -0.5615    3.4936 C   0  0  0  0  0  0  0  0  0  0  0  0
    0.0366   -1.0054    4.3668 O   0  0  0  0  0  0  0  0  0  0  0  0
   -0.7870   -0.0819    5.0712 C   0  0  1  0  0  0  0  0  0  0  0  0
   -2.1426   -0.8092    5.1348 C   0  0  0  0  0  0  0  0  0  0  0  0
   -0.3368    0.1463    6.4083 O   0  0  0  0  0  0  0  0  0  0  0  0
   -0.4173    1.4795    6.9282 C   0  0  2  0  0  0  0  0  0  0  0  0
   -1.7401    2.1679    6.5264 C   0  0  1  0  0  0  0  0  0  0  0  0
   -1.9472    3.5185    7.2449 C   0  0  0  0  0  0  0  0  0  0  0  0
   -1.7756    2.2839    4.9990 C   0  0  0  0  0  0  0  0  0  0  0  0
   -0.8598    1.2481    4.3162 C   0  0  1  0  0  0  0  0  0  0  0  0
    1.1154    2.0741    9.3618 H   0  0  0  0  0  0  0  0  0  0  0  0
    0.1274    3.5295    9.1374 H   0  0  0  0  0  0  0  0  0  0  0  0
    1.8174    3.6638    9.5005 H   0  0  0  0  0  0  0  0  0  0  0  0
    2.3663    2.3193    5.1815 H   0  0  0  0  0  0  0  0  0  0  0  0
    2.5337    2.2367    2.2306 H   0  0  0  0  0  0  0  0  0  0  0  0
    3.7090    0.4095    0.9384 H   0  0  0  0  0  0  0  0  0  0  0  0
    3.0853   -1.9767    1.3992 H   0  0  0  0  0  0  0  0  0  0  0  0
   -2.0378   -1.7575    5.6638 H   0  0  0  0  0  0  0  0  0  0  0  0
   -2.4634   -1.0224    4.1150 H   0  0  0  0  0  0  0  0  0  0  0  0
   -2.9180   -0.2206    5.6181 H   0  0  0  0  0  0  0  0  0  0  0  0
   -0.4471    1.2961    7.9952 H   0  0  0  0  0  0  0  0  0  0  0  0
   -2.5358    1.5104    6.8798 H   0  0  0  0  0  0  0  0  0  0  0  0
   -1.2092    4.2657    6.9512 H   0  0  0  0  0  0  0  0  0  0  0  0
   -1.9190    3.4104    8.3287 H   0  0  0  0  0  0  0  0  0  0  0  0
   -2.9275    3.9238    7.0153 H   0  0  0  0  0  0  0  0  0  0  0  0
   -2.7979    2.1475    4.6694 H   0  0  0  0  0  0  0  0  0  0  0  0
   -1.4949    3.2914    4.6887 H   0  0  0  0  0  0  0  0  0  0  0  0
   -1.2319    1.0935    3.3013 H   0  0  0  0  0  0  0  0  0  0  0  0
  1  2  1  0
  1 22  1  0
  1 23  1  0
  1 24  1  0
  2  3  2  0
  2  4  1  0
  4 17  1  0
  4  5  1  0
  5  6  2  0
  5 25  1  0
  6 21  1  0
  6  7  1  0
  7 12  1  0
  7  8  2  0
  8  9  1  0
  8 26  1  0
  9 10  2  0
  9 27  1  0
 10 11  1  0
 10 28  1  0
 11 12  2  0
 12 13  1  0
 13 14  1  0
 14 21  1  0
 14 15  1  1
 14 16  1  0
 15 29  1  0
 15 30  1  0
 15 31  1  0
 16 17  1  0
 17 18  1  0
 17 32  1  1
 18 19  1  0
 18 20  1  0
 18 33  1  1
 19 34  1  0
 19 35  1  0
 19 36  1  0
 20 21  1  0
 20 37  1  0
 20 38  1  0
 21 39  1  6
M  END
>  <i_m_ct_stereo_status>  (85) 
1

>  <s_m_source_file>  (85) 
/var/tmp/pbs.5076255.sched01/tmp6yc3ji7b/0haed4tc5.sdf

>  <i_m_source_file_index>  (85) 
33

>  <i_lp_mmshare_version>  (85) 
48012

>  <i_f3d_flags>  (85) 
0

>  <s_epik_input>  (85) 
W0NIM11bQ0BASF0oW0NIMl0xKVtDQEBIXShPMilOKEMoPU8pW0NIM10pW0NIXT1DKFtDQEhdMVtDQF0yM1tDSDNdKWM0YyhPMyluW2NIXVtjSF1bY0hdNA==

>  <s_epik_cmdline>  (85) 
J2VwaWtfcHl0aG9uJywgJy1waHQnLCAnMi4wJywgJy1waCcsICc3LjAnLCAnLXRuJywgJzgnLCAnLW1hJywgJzIwMCcsICctaW1hZScsICc8aW5maWxlLm1hZT4nLCAnLW9tYWUnLCAnPG91dGZpbGUubWFlPic=

>  <r_lp_tautomer_probability>  (85) 
1

>  <r_epik_Ionization_Penalty>  (85) 
5.3715e-06

>  <r_epik_Ionization_Penalty_Charging>  (85) 
0

>  <r_epik_Ionization_Penalty_Neutral>  (85) 
5.3715e-06

>  <r_epik_State_Penalty>  (85) 
-0

>  <r_epik_Charging_Adjusted_Penalty>  (85) 
0

>  <i_epik_Tot_Q>  (85) 
0

>  <i_epik_Tot_abs_Q>  (85) 
0

>  <s_epik_Chemistry_Notes>  (85) 
This compound contains an acetal/aminal-like group ( X-CH(R)-Y where X, Y are N, S, or O) that may be acid/base labile, releasing an aldehyde.

>  <s_lp_Force_Field>  (85) 
OPLS3e

>  <r_lp_Energy>  (85) 
82.5316

>  <b_lp_Chiralities_Consistent>  (85) 
1

>  <s_lp_Variant>  (85) 
23:0-1

>  <s_i_glide_gridfile>  (85) 
pfpi4k_grid

>  <i_i_glide_lignum>  (85) 
33

>  <i_i_glide_rotatable_bonds>  (85) 
1

>  <r_i_docking_score>  (85) 
-2.38052

>  <r_i_glide_ligand_efficiency>  (85) 
-0.113358

>  <r_i_glide_ligand_efficiency_sa>  (85) 
-0.312747

>  <r_i_glide_ligand_efficiency_ln>  (85) 
-0.588579

>  <r_i_glide_gscore>  (85) 
-2.38052

>  <r_i_glide_lipo>  (85) 
-0.0969894

>  <r_i_glide_hbond>  (85) 
0

>  <r_i_glide_metal>  (85) 
-0

>  <r_i_glide_rewards>  (85) 
-1.45687

>  <r_i_glide_evdw>  (85) 
-19.391

>  <r_i_glide_ecoul>  (85) 
1.22397

>  <r_i_glide_erotb>  (85) 
0

>  <r_i_glide_esite>  (85) 
-0.0407061

>  <r_i_glide_emodel>  (85) 
-19.4635

>  <r_i_glide_energy>  (85) 
-18.1671

>  <r_i_glide_einternal>  (85) 
2.95676

>  <r_i_glide_intrahb_reward>  (85) 
-0

>  <i_i_glide_confnum>  (85) 
1

>  <i_i_glide_posenum>  (85) 
8

>  <r_i_glide_eff_state_penalty>  (85) 
0

>  <ligand_id>  (85) 
23

>  <original_smiles>  (85) 
CC(=O)N1C=C2c3cccnc3OC3(C)OC1C(C)CC23

>  <smiles>  (85) 
[H]C1=C2c3c(nc([H])c([H])c3[H])OC3(C([H])([H])[H])OC([H])(N1C(=O)C([H])([H])[H])C([H])(C([H])([H])[H])C([H])([H])C23[H]

$$$$
25:0:0
     RDKit          3D

 64 69  0  0  1  0  0  0  0  0999 V2000
    3.3493   -2.1964    1.4197 C   0  0  0  0  0  0  0  0  0  0  0  0
    2.5156   -1.0113    1.2801 N   0  0  0  0  0  0  0  0  0  0  0  0
    1.9023   -0.3534    2.3451 C   0  0  0  0  0  0  0  0  0  0  0  0
    1.1144    0.6840    2.1178 N   0  0  0  0  0  0  0  0  0  0  0  0
    0.7073    1.0848    3.3365 N   0  0  0  0  0  0  0  0  0  0  0  0
   -0.1261    2.2118    3.4609 C   0  0  0  0  0  0  0  0  0  0  0  0
   -1.4072    2.2197    2.8823 C   0  0  0  0  0  0  0  0  0  0  0  0
   -2.1953    3.3765    3.0175 C   0  0  0  0  0  0  0  0  0  0  0  0
   -1.7850    4.4824    3.6836 N   0  0  0  0  0  0  0  0  0  0  0  0
   -0.5516    4.4643    4.2263 C   0  0  0  0  0  0  0  0  0  0  0  0
    0.3122    3.3559    4.1608 C   0  0  0  0  0  0  0  0  0  0  0  0
    1.2004    0.2473    4.3224 C   0  0  0  0  0  0  0  0  0  0  0  0
    1.9964   -0.6853    3.7254 C   0  0  0  0  0  0  0  0  0  0  0  0
    2.7106   -1.7693    4.4868 C   0  0  0  0  0  0  0  0  0  0  0  0
    1.9888   -2.0625    5.8308 C   0  0  1  0  0  0  0  0  0  0  0  0
    0.5946   -2.7597    5.5973 C   0  0  0  0  0  0  0  0  0  0  0  0
    0.6128   -4.2104    5.1305 C   0  0  0  0  0  0  0  0  0  0  0  0
    1.0114   -4.5303    3.8149 C   0  0  0  0  0  0  0  0  0  0  0  0
    1.0634   -5.8644    3.3877 C   0  0  0  0  0  0  0  0  0  0  0  0
    0.6369   -6.8877    4.2479 C   0  0  0  0  0  0  0  0  0  0  0  0
    0.6300   -8.2519    3.7683 C   0  0  0  0  0  0  0  0  0  0  0  0
    0.6593   -9.4097    3.3877 C   0  0  0  0  0  0  0  0  0  0  0  0
    0.7409  -10.7922    3.0190 C   0  0  0  0  0  0  0  0  0  0  0  0
    0.7494  -11.8612    4.0863 C   0  0  0  0  0  0  0  0  0  0  0  0
    2.0026  -11.5783    3.2898 C   0  0  0  0  0  0  0  0  0  0  0  0
    0.1908   -6.5807    5.5492 C   0  0  0  0  0  0  0  0  0  0  0  0
    0.1857   -5.2437    5.9954 C   0  0  0  0  0  0  0  0  0  0  0  0
    2.9288   -2.9553    6.6887 C   0  0  0  0  0  0  0  0  0  0  0  0
    2.4791   -3.0625    8.0374 O   0  0  0  0  0  0  0  0  0  0  0  0
    2.4523   -1.8089    8.7144 C   0  0  0  0  0  0  0  0  0  0  0  0
    1.4085   -0.9007    8.0436 C   0  0  1  0  0  0  0  0  0  0  0  0
    1.3074    0.3334    8.7306 O   0  0  0  0  0  0  0  0  0  0  0  0
    1.8083   -0.6866    6.5672 C   0  0  2  0  0  0  0  0  0  0  0  0
    0.9112    0.3158    5.7878 C   0  0  0  0  0  0  0  0  0  0  0  0
    2.0287   -0.8803    0.3889 H   0  0  0  0  0  0  0  0  0  0  0  0
    3.8504   -2.3975    0.4783 H   0  0  0  0  0  0  0  0  0  0  0  0
    2.7484   -3.0720    1.6519 H   0  0  0  0  0  0  0  0  0  0  0  0
    4.1223   -2.0597    2.1725 H   0  0  0  0  0  0  0  0  0  0  0  0
   -1.7731    1.3638    2.3316 H   0  0  0  0  0  0  0  0  0  0  0  0
   -3.1860    3.4176    2.5882 H   0  0  0  0  0  0  0  0  0  0  0  0
   -0.2497    5.3636    4.7446 H   0  0  0  0  0  0  0  0  0  0  0  0
    1.2939    3.3942    4.6024 H   0  0  0  0  0  0  0  0  0  0  0  0
    3.7258   -1.4271    4.6771 H   0  0  0  0  0  0  0  0  0  0  0  0
    2.8417   -2.6861    3.9290 H   0  0  0  0  0  0  0  0  0  0  0  0
    0.0229   -2.7478    6.5247 H   0  0  0  0  0  0  0  0  0  0  0  0
   -0.0110   -2.1909    4.8907 H   0  0  0  0  0  0  0  0  0  0  0  0
    1.2695   -3.7596    3.1071 H   0  0  0  0  0  0  0  0  0  0  0  0
    1.4123   -6.0920    2.3919 H   0  0  0  0  0  0  0  0  0  0  0  0
    0.1965  -10.9767    2.0926 H   0  0  0  0  0  0  0  0  0  0  0  0
    0.7220  -11.5447    5.1315 H   0  0  0  0  0  0  0  0  0  0  0  0
    0.2148  -12.7835    3.8749 H   0  0  0  0  0  0  0  0  0  0  0  0
    2.3086  -12.3082    2.5417 H   0  0  0  0  0  0  0  0  0  0  0  0
    2.8243  -11.0711    3.7973 H   0  0  0  0  0  0  0  0  0  0  0  0
   -0.1518   -7.3674    6.2053 H   0  0  0  0  0  0  0  0  0  0  0  0
   -0.1678   -5.0144    6.9923 H   0  0  0  0  0  0  0  0  0  0  0  0
    2.9967   -3.9580    6.2669 H   0  0  0  0  0  0  0  0  0  0  0  0
    3.9489   -2.5617    6.6825 H   0  0  0  0  0  0  0  0  0  0  0  0
    2.1971   -1.9826    9.7586 H   0  0  0  0  0  0  0  0  0  0  0  0
    3.4463   -1.3545    8.6994 H   0  0  0  0  0  0  0  0  0  0  0  0
    0.4326   -1.3753    8.1182 H   0  0  0  0  0  0  0  0  0  0  0  0
    2.1493    0.7571    8.7334 H   0  0  0  0  0  0  0  0  0  0  0  0
    2.8013   -0.2257    6.5772 H   0  0  0  0  0  0  0  0  0  0  0  0
   -0.1400    0.0796    5.9503 H   0  0  0  0  0  0  0  0  0  0  0  0
    1.0709    1.3265    6.1580 H   0  0  0  0  0  0  0  0  0  0  0  0
  1 36  1  0
  1 37  1  0
  1 38  1  0
  1  2  1  0
  2  3  1  0
  2 35  1  0
  3 13  1  0
  3  4  2  0
  4  5  1  0
  5 12  1  0
  5  6  1  0
  6 11  1  0
  6  7  2  0
  7  8  1  0
  7 39  1  0
  8  9  2  0
  8 40  1  0
  9 10  1  0
 10 11  2  0
 10 41  1  0
 11 42  1  0
 12 34  1  0
 12 13  2  0
 13 14  1  0
 14 15  1  0
 14 43  1  0
 14 44  1  0
 15 33  1  0
 15 16  1  6
 15 28  1  0
 16 17  1  0
 16 45  1  0
 16 46  1  0
 17 27  1  0
 17 18  2  0
 18 19  1  0
 18 47  1  0
 19 20  2  0
 19 48  1  0
 20 21  1  0
 20 26  1  0
 21 22  3  0
 22 23  1  0
 23 25  1  0
 23 24  1  0
 23 49  1  0
 24 25  1  0
 24 50  1  0
 24 51  1  0
 25 52  1  0
 25 53  1  0
 26 27  2  0
 26 54  1  0
 27 55  1  0
 28 29  1  0
 28 56  1  0
 28 57  1  0
 29 30  1  0
 30 31  1  0
 30 58  1  0
 30 59  1  0
 31 32  1  0
 31 33  1  0
 31 60  1  6
 32 61  1  0
 33 34  1  0
 33 62  1  1
 34 63  1  0
 34 64  1  0
M  END
>  <i_m_ct_stereo_status>  (86) 
1

>  <s_m_source_file>  (86) 
/var/tmp/pbs.5076255.sched01/tmp6yc3ji7b/0haed4tc5.sdf

>  <i_m_source_file_index>  (86) 
35

>  <i_lp_mmshare_version>  (86) 
48012

>  <i_f3d_flags>  (86) 
0

>  <s_epik_input>  (86) 
W2NIXTFbY0hdbltjSF1bY0hdYzEtbjJbbkhdL2MoPU5cW0NIM10pYyhbQ0gyXTMpYzJbQ0gyXVtDQEBIXShbQ0BIXShbT0hdKVtDSDJdT1tDSDJdNClbQ0BAXTM0W0NIMl1jNVtjSF1bY0hdYyhbY0hdW2NIXTUpQyNDW0NIXTZbQ0gyXVtDSDJdNg==

>  <s_epik_cmdline>  (86) 
J2VwaWtfcHl0aG9uJywgJy1waHQnLCAnMi4wJywgJy1waCcsICc3LjAnLCAnLXRuJywgJzgnLCAnLW1hJywgJzIwMCcsICctaW1hZScsICc8aW5maWxlLm1hZT4nLCAnLW9tYWUnLCAnPG91dGZpbGUubWFlPic=

>  <r_lp_tautomer_probability>  (86) 
1

>  <r_epik_Ionization_Penalty>  (86) 
0.00299723

>  <r_epik_Ionization_Penalty_Charging>  (86) 
0

>  <r_epik_Ionization_Penalty_Neutral>  (86) 
0.00299723

>  <r_epik_State_Penalty>  (86) 
0.00195993

>  <r_epik_Charging_Adjusted_Penalty>  (86) 
0.00195993

>  <i_epik_Tot_Q>  (86) 
0

>  <i_epik_Tot_abs_Q>  (86) 
0

>  <s_lp_Force_Field>  (86) 
OPLS3e

>  <r_lp_Energy>  (86) 
45.2497

>  <b_lp_Chiralities_Consistent>  (86) 
1

>  <s_lp_Variant>  (86) 
25:0-1

>  <s_i_glide_gridfile>  (86) 
pfpi4k_grid

>  <i_i_glide_lignum>  (86) 
35

>  <i_i_glide_rotatable_bonds>  (86) 
7

>  <r_i_docking_score>  (86) 
-2.48073

>  <r_i_glide_ligand_efficiency>  (86) 
-0.0729625

>  <r_i_glide_ligand_efficiency_sa>  (86) 
-0.23637

>  <r_i_glide_ligand_efficiency_ln>  (86) 
-0.548062

>  <r_i_glide_gscore>  (86) 
-2.48073

>  <r_i_glide_lipo>  (86) 
-0.156271

>  <r_i_glide_hbond>  (86) 
-0.32

>  <r_i_glide_metal>  (86) 
-0

>  <r_i_glide_rewards>  (86) 
-0.309795

>  <r_i_glide_evdw>  (86) 
-27.5298

>  <r_i_glide_ecoul>  (86) 
-4.72636

>  <r_i_glide_erotb>  (86) 
0.485949

>  <r_i_glide_esite>  (86) 
-0.0951651

>  <r_i_glide_emodel>  (86) 
-33.4821

>  <r_i_glide_energy>  (86) 
-32.2561

>  <r_i_glide_einternal>  (86) 
5.61623

>  <r_i_glide_intrahb_reward>  (86) 
-0

>  <i_i_glide_confnum>  (86) 
4

>  <i_i_glide_posenum>  (86) 
25

>  <r_i_glide_eff_state_penalty>  (86) 
0

>  <ligand_id>  (86) 
25

>  <original_smiles>  (86) 
CN=c1[nH]n(-c2ccncc2)c2c1CC1(Cc3ccc(C#CC4CC4)cc3)COCC(O)C1C2

>  <smiles>  (86) 
[H]OC1([H])C([H])([H])OC([H])([H])C2(C([H])([H])c3c([H])c([H])c(C#CC4([H])C([H])([H])C4([H])[H])c([H])c3[H])C([H])([H])c3c(N([H])C([H])([H])[H])nn(-c4c([H])c([H])nc([H])c4[H])c3C([H])([H])C12[H]

$$$$
25:0:1
     RDKit          3D

 64 69  0  0  1  0  0  0  0  0999 V2000
    2.6129   -2.6442    1.6562 C   0  0  0  0  0  0  0  0  0  0  0  0
    2.0026   -1.3248    1.6686 N   0  0  0  0  0  0  0  0  0  0  0  0
    1.4793   -0.7143    2.8063 C   0  0  0  0  0  0  0  0  0  0  0  0
    0.6691    0.3235    2.6797 N   0  0  0  0  0  0  0  0  0  0  0  0
    0.3532    0.6872    3.9419 N   0  0  0  0  0  0  0  0  0  0  0  0
   -0.4934    1.7977    4.1570 C   0  0  0  0  0  0  0  0  0  0  0  0
   -0.4599    2.9036    3.2884 C   0  0  0  0  0  0  0  0  0  0  0  0
   -1.3210    3.9858    3.5300 C   0  0  0  0  0  0  0  0  0  0  0  0
   -2.1791    4.0272    4.5686 N   0  0  0  0  0  0  0  0  0  0  0  0
   -2.2150    2.9619    5.3966 C   0  0  0  0  0  0  0  0  0  0  0  0
   -1.4086    1.8261    5.2320 C   0  0  0  0  0  0  0  0  0  0  0  0
    0.9816   -0.1462    4.8569 C   0  0  0  0  0  0  0  0  0  0  0  0
    1.7324   -1.0501    4.1636 C   0  0  0  0  0  0  0  0  0  0  0  0
    2.5868   -2.0943    4.8455 C   0  0  0  0  0  0  0  0  0  0  0  0
    2.0403   -2.4032    6.2630 C   0  0  1  0  0  0  0  0  0  0  0  0
    0.6538   -3.1510    6.1885 C   0  0  0  0  0  0  0  0  0  0  0  0
    0.6573   -4.5676    5.6266 C   0  0  0  0  0  0  0  0  0  0  0  0
    0.8319   -4.7845    4.2442 C   0  0  0  0  0  0  0  0  0  0  0  0
    0.8724   -6.0843    3.7190 C   0  0  0  0  0  0  0  0  0  0  0  0
    0.6520   -7.1811    4.5670 C   0  0  0  0  0  0  0  0  0  0  0  0
    0.6337   -8.5112    4.0031 C   0  0  0  0  0  0  0  0  0  0  0  0
    0.6576   -9.6425    3.5472 C   0  0  0  0  0  0  0  0  0  0  0  0
    0.7282  -10.9958    3.0826 C   0  0  0  0  0  0  0  0  0  0  0  0
    0.7178  -12.1360    4.0762 C   0  0  0  0  0  0  0  0  0  0  0  0
    1.9807  -11.8117    3.3074 C   0  0  0  0  0  0  0  0  0  0  0  0
    0.4272   -6.9789    5.9446 C   0  0  0  0  0  0  0  0  0  0  0  0
    0.4367   -5.6741    6.4762 C   0  0  0  0  0  0  0  0  0  0  0  0
    3.1004   -3.2613    7.0006 C   0  0  0  0  0  0  0  0  0  0  0  0
    2.8106   -3.3910    8.3908 O   0  0  0  0  0  0  0  0  0  0  0  0
    2.8149   -2.1410    9.0706 C   0  0  0  0  0  0  0  0  0  0  0  0
    1.6714   -1.2726    8.5268 C   0  0  1  0  0  0  0  0  0  0  0  0
    1.6417   -0.0468    9.2294 O   0  0  0  0  0  0  0  0  0  0  0  0
    1.9072   -1.0361    7.0202 C   0  0  2  0  0  0  0  0  0  0  0  0
    0.8917   -0.0777    6.3530 C   0  0  0  0  0  0  0  0  0  0  0  0
    1.6040   -1.0264    0.7756 H   0  0  0  0  0  0  0  0  0  0  0  0
    3.0672   -2.8262    0.6833 H   0  0  0  0  0  0  0  0  0  0  0  0
    1.8577   -3.4150    1.7938 H   0  0  0  0  0  0  0  0  0  0  0  0
    3.4090   -2.7443    2.3895 H   0  0  0  0  0  0  0  0  0  0  0  0
    0.2280    2.9370    2.4530 H   0  0  0  0  0  0  0  0  0  0  0  0
   -1.3256    4.8498    2.8739 H   0  0  0  0  0  0  0  0  0  0  0  0
   -2.9198    3.0068    6.2113 H   0  0  0  0  0  0  0  0  0  0  0  0
   -1.5192    1.0030    5.9134 H   0  0  0  0  0  0  0  0  0  0  0  0
    3.6048   -1.7079    4.9119 H   0  0  0  0  0  0  0  0  0  0  0  0
    2.6722   -3.0251    4.3056 H   0  0  0  0  0  0  0  0  0  0  0  0
    0.2195   -3.2162    7.1857 H   0  0  0  0  0  0  0  0  0  0  0  0
   -0.0658   -2.5741    5.6059 H   0  0  0  0  0  0  0  0  0  0  0  0
    0.9251   -3.9498    3.5735 H   0  0  0  0  0  0  0  0  0  0  0  0
    1.0526   -6.2357    2.6673 H   0  0  0  0  0  0  0  0  0  0  0  0
    0.1949  -11.1106    2.1368 H   0  0  0  0  0  0  0  0  0  0  0  0
    0.6853  -11.8876    5.1399 H   0  0  0  0  0  0  0  0  0  0  0  0
    0.1912  -13.0456    3.8037 H   0  0  0  0  0  0  0  0  0  0  0  0
    2.2860  -12.4838    2.5070 H   0  0  0  0  0  0  0  0  0  0  0  0
    2.8029  -11.3491    3.8556 H   0  0  0  0  0  0  0  0  0  0  0  0
    0.2439   -7.8192    6.5947 H   0  0  0  0  0  0  0  0  0  0  0  0
    0.2544   -5.5206    7.5295 H   0  0  0  0  0  0  0  0  0  0  0  0
    3.1511   -4.2572    6.5616 H   0  0  0  0  0  0  0  0  0  0  0  0
    4.0979   -2.8292    6.8785 H   0  0  0  0  0  0  0  0  0  0  0  0
    2.6884   -2.3227   10.1361 H   0  0  0  0  0  0  0  0  0  0  0  0
    3.7793   -1.6418    8.9417 H   0  0  0  0  0  0  0  0  0  0  0  0
    0.7205   -1.7765    8.7091 H   0  0  0  0  0  0  0  0  0  0  0  0
    1.5091   -0.2301   10.1472 H   0  0  0  0  0  0  0  0  0  0  0  0
    2.8766   -0.5351    6.9271 H   0  0  0  0  0  0  0  0  0  0  0  0
   -0.1025   -0.3903    6.6619 H   0  0  0  0  0  0  0  0  0  0  0  0
    1.0490    0.9457    6.7008 H   0  0  0  0  0  0  0  0  0  0  0  0
  1 36  1  0
  1 37  1  0
  1 38  1  0
  1  2  1  0
  2  3  1  0
  2 35  1  0
  3 13  1  0
  3  4  2  0
  4  5  1  0
  5 12  1  0
  5  6  1  0
  6 11  1  0
  6  7  2  0
  7  8  1  0
  7 39  1  0
  8  9  2  0
  8 40  1  0
  9 10  1  0
 10 11  2  0
 10 41  1  0
 11 42  1  0
 12 34  1  0
 12 13  2  0
 13 14  1  0
 14 15  1  0
 14 43  1  0
 14 44  1  0
 15 33  1  0
 15 16  1  6
 15 28  1  0
 16 17  1  0
 16 45  1  0
 16 46  1  0
 17 27  1  0
 17 18  2  0
 18 19  1  0
 18 47  1  0
 19 20  2  0
 19 48  1  0
 20 21  1  0
 20 26  1  0
 21 22  3  0
 22 23  1  0
 23 25  1  0
 23 24  1  0
 23 49  1  0
 24 25  1  0
 24 50  1  0
 24 51  1  0
 25 52  1  0
 25 53  1  0
 26 27  2  0
 26 54  1  0
 27 55  1  0
 28 29  1  0
 28 56  1  0
 28 57  1  0
 29 30  1  0
 30 31  1  0
 30 58  1  0
 30 59  1  0
 31 32  1  0
 31 33  1  0
 31 60  1  6
 32 61  1  0
 33 34  1  0
 33 62  1  1
 34 63  1  0
 34 64  1  0
M  END
>  <i_m_ct_stereo_status>  (87) 
1

>  <s_m_source_file>  (87) 
/var/tmp/pbs.5076255.sched01/tmp6yc3ji7b/0haed4tc5.sdf

>  <i_m_source_file_index>  (87) 
35

>  <i_lp_mmshare_version>  (87) 
48012

>  <i_f3d_flags>  (87) 
0

>  <s_epik_input>  (87) 
W2NIXTFbY0hdbltjSF1bY0hdYzEtbjJbbkhdL2MoPU5cW0NIM10pYyhbQ0gyXTMpYzJbQ0gyXVtDQEBIXShbQ0BIXShbT0hdKVtDSDJdT1tDSDJdNClbQ0BAXTM0W0NIMl1jNVtjSF1bY0hdYyhbY0hdW2NIXTUpQyNDW0NIXTZbQ0gyXVtDSDJdNg==

>  <s_epik_cmdline>  (87) 
J2VwaWtfcHl0aG9uJywgJy1waHQnLCAnMi4wJywgJy1waCcsICc3LjAnLCAnLXRuJywgJzgnLCAnLW1hJywgJzIwMCcsICctaW1hZScsICc8aW5maWxlLm1hZT4nLCAnLW9tYWUnLCAnPG91dGZpbGUubWFlPic=

>  <r_lp_tautomer_probability>  (87) 
1

>  <r_epik_Ionization_Penalty>  (87) 
0.00299723

>  <r_epik_Ionization_Penalty_Charging>  (87) 
0

>  <r_epik_Ionization_Penalty_Neutral>  (87) 
0.00299723

>  <r_epik_State_Penalty>  (87) 
0.00195993

>  <r_epik_Charging_Adjusted_Penalty>  (87) 
0.00195993

>  <i_epik_Tot_Q>  (87) 
0

>  <i_epik_Tot_abs_Q>  (87) 
0

>  <s_lp_Force_Field>  (87) 
OPLS3e

>  <r_lp_Energy>  (87) 
45.2497

>  <b_lp_Chiralities_Consistent>  (87) 
1

>  <s_lp_Variant>  (87) 
25:0-1

>  <s_i_glide_gridfile>  (87) 
pfpi4k_grid

>  <i_i_glide_lignum>  (87) 
35

>  <i_i_glide_rotatable_bonds>  (87) 
7

>  <r_i_docking_score>  (87) 
-1.83549

>  <r_i_glide_ligand_efficiency>  (87) 
-0.0539849

>  <r_i_glide_ligand_efficiency_sa>  (87) 
-0.17489

>  <r_i_glide_ligand_efficiency_ln>  (87) 
-0.405511

>  <r_i_glide_gscore>  (87) 
-1.83549

>  <r_i_glide_lipo>  (87) 
-0.106356

>  <r_i_glide_hbond>  (87) 
-0.167458

>  <r_i_glide_metal>  (87) 
-0

>  <r_i_glide_rewards>  (87) 
-0.309795

>  <r_i_glide_evdw>  (87) 
-24.2348

>  <r_i_glide_ecoul>  (87) 
-2.85631

>  <r_i_glide_erotb>  (87) 
0.485949

>  <r_i_glide_esite>  (87) 
-0.0976387

>  <r_i_glide_emodel>  (87) 
-28.316

>  <r_i_glide_energy>  (87) 
-27.0912

>  <r_i_glide_einternal>  (87) 
3.80926

>  <r_i_glide_intrahb_reward>  (87) 
-0

>  <i_i_glide_confnum>  (87) 
4

>  <i_i_glide_posenum>  (87) 
1

>  <r_i_glide_eff_state_penalty>  (87) 
0

>  <ligand_id>  (87) 
25

>  <original_smiles>  (87) 
CN=c1[nH]n(-c2ccncc2)c2c1CC1(Cc3ccc(C#CC4CC4)cc3)COCC(O)C1C2

>  <smiles>  (87) 
[H]OC1([H])C([H])([H])OC([H])([H])C2(C([H])([H])c3c([H])c([H])c(C#CC4([H])C([H])([H])C4([H])[H])c([H])c3[H])C([H])([H])c3c(N([H])C([H])([H])[H])nn(-c4c([H])c([H])nc([H])c4[H])c3C([H])([H])C12[H]

$$$$
25:0:2
     RDKit          3D

 64 69  0  0  1  0  0  0  0  0999 V2000
    2.7378   -0.0579    1.2258 C   0  0  0  0  0  0  0  0  0  0  0  0
    2.8856   -0.4152    2.6339 N   0  0  0  0  0  0  0  0  0  0  0  0
    2.5925    0.5331    3.6210 C   0  0  0  0  0  0  0  0  0  0  0  0
    2.0064    1.6928    3.3842 N   0  0  0  0  0  0  0  0  0  0  0  0
    1.9083    2.2894    4.6023 N   0  0  0  0  0  0  0  0  0  0  0  0
    1.3440    3.5894    4.7103 C   0  0  0  0  0  0  0  0  0  0  0  0
    1.4610    4.5096    3.6478 C   0  0  0  0  0  0  0  0  0  0  0  0
    0.8711    5.7786    3.7768 C   0  0  0  0  0  0  0  0  0  0  0  0
    0.2035    6.1741    4.8827 N   0  0  0  0  0  0  0  0  0  0  0  0
    0.1047    5.2973    5.9034 C   0  0  0  0  0  0  0  0  0  0  0  0
    0.6360    3.9995    5.8630 C   0  0  0  0  0  0  0  0  0  0  0  0
    2.4430    1.4783    5.5896 C   0  0  0  0  0  0  0  0  0  0  0  0
    2.8927    0.3350    4.9985 C   0  0  0  0  0  0  0  0  0  0  0  0
    3.5418   -0.7941    5.7519 C   0  0  0  0  0  0  0  0  0  0  0  0
    3.1286   -0.7602    7.2554 C   0  0  1  0  0  0  0  0  0  0  0  0
    1.6288   -1.1746    7.4496 C   0  0  0  0  0  0  0  0  0  0  0  0
    1.2086   -2.4925    6.8215 C   0  0  0  0  0  0  0  0  0  0  0  0
    1.1358   -3.6547    7.6174 C   0  0  0  0  0  0  0  0  0  0  0  0
    0.7507   -4.8805    7.0458 C   0  0  0  0  0  0  0  0  0  0  0  0
    0.4367   -4.9532    5.6780 C   0  0  0  0  0  0  0  0  0  0  0  0
    0.0511   -6.2242    5.1031 C   0  0  0  0  0  0  0  0  0  0  0  0
   -0.2989   -7.2766    4.5966 C   0  0  0  0  0  0  0  0  0  0  0  0
   -0.7277   -8.4809    3.9426 C   0  0  0  0  0  0  0  0  0  0  0  0
   -0.5419   -8.6557    2.4511 C   0  0  0  0  0  0  0  0  0  0  0  0
   -1.9276   -8.4662    3.0227 C   0  0  0  0  0  0  0  0  0  0  0  0
    0.5024   -3.7939    4.8772 C   0  0  0  0  0  0  0  0  0  0  0  0
    0.8673   -2.5633    5.4520 C   0  0  0  0  0  0  0  0  0  0  0  0
    4.0523   -1.7161    8.0541 C   0  0  0  0  0  0  0  0  0  0  0  0
    3.8922   -1.5784    9.4663 O   0  0  0  0  0  0  0  0  0  0  0  0
    4.2321   -0.2813    9.9424 C   0  0  0  0  0  0  0  0  0  0  0  0
    3.2506    0.7329    9.3381 C   0  0  1  0  0  0  0  0  0  0  0  0
    3.5619    2.0159    9.8433 O   0  0  0  0  0  0  0  0  0  0  0  0
    3.3771    0.6931    7.7957 C   0  0  2  0  0  0  0  0  0  0  0  0
    2.5296    1.7563    7.0644 C   0  0  0  0  0  0  0  0  0  0  0  0
    3.4402   -1.2244    2.8774 H   0  0  0  0  0  0  0  0  0  0  0  0
    2.7555   -0.9570    0.6100 H   0  0  0  0  0  0  0  0  0  0  0  0
    3.5623    0.5803    0.9065 H   0  0  0  0  0  0  0  0  0  0  0  0
    1.8011    0.4582    1.0056 H   0  0  0  0  0  0  0  0  0  0  0  0
    1.9674    4.2427    2.7288 H   0  0  0  0  0  0  0  0  0  0  0  0
    0.9344    6.4925    2.9663 H   0  0  0  0  0  0  0  0  0  0  0  0
   -0.4358    5.6265    6.7781 H   0  0  0  0  0  0  0  0  0  0  0  0
    0.4626    3.3523    6.7047 H   0  0  0  0  0  0  0  0  0  0  0  0
    4.6218   -0.6725    5.6837 H   0  0  0  0  0  0  0  0  0  0  0  0
    3.3449   -1.7578    5.2954 H   0  0  0  0  0  0  0  0  0  0  0  0
    1.3767   -1.2099    8.5110 H   0  0  0  0  0  0  0  0  0  0  0  0
    0.9658   -0.4225    7.0268 H   0  0  0  0  0  0  0  0  0  0  0  0
    1.3782   -3.6092    8.6680 H   0  0  0  0  0  0  0  0  0  0  0  0
    0.6999   -5.7670    7.6569 H   0  0  0  0  0  0  0  0  0  0  0  0
   -0.5807   -9.3510    4.5850 H   0  0  0  0  0  0  0  0  0  0  0  0
   -0.0973   -7.8306    1.8930 H   0  0  0  0  0  0  0  0  0  0  0  0
   -0.2799   -9.6481    2.0894 H   0  0  0  0  0  0  0  0  0  0  0  0
   -2.5837   -9.3333    3.0471 H   0  0  0  0  0  0  0  0  0  0  0  0
   -2.4266   -7.5103    2.8602 H   0  0  0  0  0  0  0  0  0  0  0  0
    0.2730   -3.8350    3.8240 H   0  0  0  0  0  0  0  0  0  0  0  0
    0.9062   -1.6794    4.8311 H   0  0  0  0  0  0  0  0  0  0  0  0
    3.8351   -2.7503    7.7917 H   0  0  0  0  0  0  0  0  0  0  0  0
    5.1015   -1.5463    7.8004 H   0  0  0  0  0  0  0  0  0  0  0  0
    4.1867   -0.2745   11.0322 H   0  0  0  0  0  0  0  0  0  0  0  0
    5.2622   -0.0356    9.6696 H   0  0  0  0  0  0  0  0  0  0  0  0
    2.2368    0.4907    9.6633 H   0  0  0  0  0  0  0  0  0  0  0  0
    3.3753    2.0318   10.7719 H   0  0  0  0  0  0  0  0  0  0  0  0
    4.4179    0.9407    7.5642 H   0  0  0  0  0  0  0  0  0  0  0  0
    1.5363    1.7213    7.5034 H   0  0  0  0  0  0  0  0  0  0  0  0
    2.9367    2.7500    7.2430 H   0  0  0  0  0  0  0  0  0  0  0  0
  1 36  1  0
  1 37  1  0
  1 38  1  0
  1  2  1  0
  2  3  1  0
  2 35  1  0
  3 13  1  0
  3  4  2  0
  4  5  1  0
  5 12  1  0
  5  6  1  0
  6 11  1  0
  6  7  2  0
  7  8  1  0
  7 39  1  0
  8  9  2  0
  8 40  1  0
  9 10  1  0
 10 11  2  0
 10 41  1  0
 11 42  1  0
 12 34  1  0
 12 13  2  0
 13 14  1  0
 14 15  1  0
 14 43  1  0
 14 44  1  0
 15 33  1  0
 15 16  1  6
 15 28  1  0
 16 17  1  0
 16 45  1  0
 16 46  1  0
 17 27  1  0
 17 18  2  0
 18 19  1  0
 18 47  1  0
 19 20  2  0
 19 48  1  0
 20 21  1  0
 20 26  1  0
 21 22  3  0
 22 23  1  0
 23 25  1  0
 23 24  1  0
 23 49  1  0
 24 25  1  0
 24 50  1  0
 24 51  1  0
 25 52  1  0
 25 53  1  0
 26 27  2  0
 26 54  1  0
 27 55  1  0
 28 29  1  0
 28 56  1  0
 28 57  1  0
 29 30  1  0
 30 31  1  0
 30 58  1  0
 30 59  1  0
 31 32  1  0
 31 33  1  0
 31 60  1  6
 32 61  1  0
 33 34  1  0
 33 62  1  1
 34 63  1  0
 34 64  1  0
M  END
>  <i_m_ct_stereo_status>  (88) 
1

>  <s_m_source_file>  (88) 
/var/tmp/pbs.5076255.sched01/tmp6yc3ji7b/0haed4tc5.sdf

>  <i_m_source_file_index>  (88) 
35

>  <i_lp_mmshare_version>  (88) 
48012

>  <i_f3d_flags>  (88) 
0

>  <s_epik_input>  (88) 
W2NIXTFbY0hdbltjSF1bY0hdYzEtbjJbbkhdL2MoPU5cW0NIM10pYyhbQ0gyXTMpYzJbQ0gyXVtDQEBIXShbQ0BIXShbT0hdKVtDSDJdT1tDSDJdNClbQ0BAXTM0W0NIMl1jNVtjSF1bY0hdYyhbY0hdW2NIXTUpQyNDW0NIXTZbQ0gyXVtDSDJdNg==

>  <s_epik_cmdline>  (88) 
J2VwaWtfcHl0aG9uJywgJy1waHQnLCAnMi4wJywgJy1waCcsICc3LjAnLCAnLXRuJywgJzgnLCAnLW1hJywgJzIwMCcsICctaW1hZScsICc8aW5maWxlLm1hZT4nLCAnLW9tYWUnLCAnPG91dGZpbGUubWFlPic=

>  <r_lp_tautomer_probability>  (88) 
1

>  <r_epik_Ionization_Penalty>  (88) 
0.00299723

>  <r_epik_Ionization_Penalty_Charging>  (88) 
0

>  <r_epik_Ionization_Penalty_Neutral>  (88) 
0.00299723

>  <r_epik_State_Penalty>  (88) 
0.00195993

>  <r_epik_Charging_Adjusted_Penalty>  (88) 
0.00195993

>  <i_epik_Tot_Q>  (88) 
0

>  <i_epik_Tot_abs_Q>  (88) 
0

>  <s_lp_Force_Field>  (88) 
OPLS3e

>  <r_lp_Energy>  (88) 
45.2497

>  <b_lp_Chiralities_Consistent>  (88) 
1

>  <s_lp_Variant>  (88) 
25:0-1

>  <s_i_glide_gridfile>  (88) 
pfpi4k_grid

>  <i_i_glide_lignum>  (88) 
35

>  <i_i_glide_rotatable_bonds>  (88) 
7

>  <r_i_docking_score>  (88) 
-1.20577

>  <r_i_glide_ligand_efficiency>  (88) 
-0.0354639

>  <r_i_glide_ligand_efficiency_sa>  (88) 
-0.114889

>  <r_i_glide_ligand_efficiency_ln>  (88) 
-0.266389

>  <r_i_glide_gscore>  (88) 
-1.20577

>  <r_i_glide_lipo>  (88) 
0

>  <r_i_glide_hbond>  (88) 
0

>  <r_i_glide_metal>  (88) 
-0

>  <r_i_glide_rewards>  (88) 
-0.309795

>  <r_i_glide_evdw>  (88) 
-23.1652

>  <r_i_glide_ecoul>  (88) 
-1.40387

>  <r_i_glide_erotb>  (88) 
0.485949

>  <r_i_glide_esite>  (88) 
-0.0130851

>  <r_i_glide_emodel>  (88) 
-26.427

>  <r_i_glide_energy>  (88) 
-24.5691

>  <r_i_glide_einternal>  (88) 
0.68796

>  <r_i_glide_intrahb_reward>  (88) 
-0

>  <i_i_glide_confnum>  (88) 
2

>  <i_i_glide_posenum>  (88) 
11

>  <r_i_glide_eff_state_penalty>  (88) 
0

>  <ligand_id>  (88) 
25

>  <original_smiles>  (88) 
CN=c1[nH]n(-c2ccncc2)c2c1CC1(Cc3ccc(C#CC4CC4)cc3)COCC(O)C1C2

>  <smiles>  (88) 
[H]OC1([H])C([H])([H])OC([H])([H])C2(C([H])([H])c3c([H])c([H])c(C#CC4([H])C([H])([H])C4([H])[H])c([H])c3[H])C([H])([H])c3c(N([H])C([H])([H])[H])nn(-c4c([H])c([H])nc([H])c4[H])c3C([H])([H])C12[H]

$$$$
26:0:0
     RDKit          3D

 66 72  0  0  1  0  0  0  0  0999 V2000
    0.1224   -8.3394   10.1626 C   0  0  0  0  0  0  0  0  0  0  0  0
   -0.1444   -7.7989    8.8697 O   0  0  0  0  0  0  0  0  0  0  0  0
    0.7418   -8.0988    7.7740 C   0  0  2  0  0  0  0  0  0  0  0  0
    0.4560   -9.5835    7.4240 C   0  0  0  0  0  0  0  0  0  0  0  0
    0.6927  -10.0474    5.9754 C   0  0  0  0  0  0  0  0  0  0  0  0
    2.1327  -10.0985    5.6392 N   0  0  1  0  0  0  0  0  0  0  0  0
    2.4964  -11.3751    4.9617 C   0  0  0  0  0  0  0  0  0  0  0  0
    2.6055   -8.9142    4.8610 C   0  0  0  0  0  0  0  0  0  0  0  0
    2.7413   -7.5267    5.6130 C   0  0  1  0  0  0  0  0  0  0  0  0
    3.2812   -7.8225    7.0518 C   0  0  0  0  0  0  0  0  0  0  0  0
    2.2212   -7.8508    8.1840 C   0  0  0  0  0  0  0  0  0  0  0  0
    3.7404   -6.6167    4.7765 C   0  0  2  0  0  0  0  0  0  0  0  0
    4.1359   -5.3115    5.5086 C   0  0  0  0  0  0  0  0  0  0  0  0
    3.0072   -4.5794    6.2185 C   0  0  0  0  0  0  0  0  0  0  0  0
    3.0682   -3.3206    6.8457 C   0  0  0  0  0  0  0  0  0  0  0  0
    1.9518   -2.8533    7.5836 C   0  0  0  0  0  0  0  0  0  0  0  0
    0.8016   -3.6646    7.7510 C   0  0  0  0  0  0  0  0  0  0  0  0
   -0.2405   -3.2274    8.5155 O   0  0  0  0  0  0  0  0  0  0  0  0
    0.7382   -4.9373    7.1470 C   0  0  0  0  0  0  0  0  0  0  0  0
    1.8105   -5.3066    6.3609 C   0  0  0  0  0  0  0  0  0  0  0  0
    1.4620   -6.6344    5.7147 C   0  0  1  0  0  0  0  0  0  0  0  0
    0.8949   -6.3615    4.2946 C   0  0  0  0  0  0  0  0  0  0  0  0
    1.8857   -5.6000    3.4056 C   0  0  0  0  0  0  0  0  0  0  0  0
    3.2337   -6.2182    3.4179 N   0  0  2  0  0  0  0  0  0  0  0  0
    3.4514   -7.1932    2.3223 C   0  0  0  0  0  0  0  0  0  0  0  0
    3.9519   -6.5126    1.0623 C   0  0  0  0  0  0  0  0  0  0  0  0
    4.6113   -7.3454   -0.0141 C   0  0  0  0  0  0  0  0  0  0  0  0
    5.4387   -6.3994    0.8088 C   0  0  0  0  0  0  0  0  0  0  0  0
    0.2990   -7.1107    6.6495 C   0  0  2  0  0  0  0  0  0  0  0  0
   -0.2267   -5.8957    7.2317 O   0  0  0  0  0  0  0  0  0  0  0  0
   -0.7129   -8.1167   10.8278 H   0  0  0  0  0  0  0  0  0  0  0  0
    1.0033   -7.8816   10.6107 H   0  0  0  0  0  0  0  0  0  0  0  0
    0.2389   -9.4222   10.1522 H   0  0  0  0  0  0  0  0  0  0  0  0
    1.0005  -10.2378    8.1072 H   0  0  0  0  0  0  0  0  0  0  0  0
   -0.5955   -9.7848    7.6231 H   0  0  0  0  0  0  0  0  0  0  0  0
    0.2667  -11.0485    5.9008 H   0  0  0  0  0  0  0  0  0  0  0  0
    0.1305   -9.4663    5.2473 H   0  0  0  0  0  0  0  0  0  0  0  0
    2.0007  -11.4769    3.9944 H   0  0  0  0  0  0  0  0  0  0  0  0
    2.2227  -12.2410    5.5654 H   0  0  0  0  0  0  0  0  0  0  0  0
    3.5743  -11.4486    4.7974 H   0  0  0  0  0  0  0  0  0  0  0  0
    3.6104   -9.1834    4.5347 H   0  0  0  0  0  0  0  0  0  0  0  0
    2.0320   -8.8602    3.9412 H   0  0  0  0  0  0  0  0  0  0  0  0
    3.8481   -8.7540    7.0616 H   0  0  0  0  0  0  0  0  0  0  0  0
    4.0275   -7.0925    7.3613 H   0  0  0  0  0  0  0  0  0  0  0  0
    2.2517   -6.8766    8.6687 H   0  0  0  0  0  0  0  0  0  0  0  0
    2.5405   -8.5522    8.9550 H   0  0  0  0  0  0  0  0  0  0  0  0
    4.6800   -7.1531    4.6207 H   0  0  0  0  0  0  0  0  0  0  0  0
    4.8997   -5.5270    6.2510 H   0  0  0  0  0  0  0  0  0  0  0  0
    4.6223   -4.6172    4.8233 H   0  0  0  0  0  0  0  0  0  0  0  0
    3.9666   -2.7212    6.7816 H   0  0  0  0  0  0  0  0  0  0  0  0
    2.0010   -1.8855    8.0555 H   0  0  0  0  0  0  0  0  0  0  0  0
   -0.8108   -3.9453    8.7431 H   0  0  0  0  0  0  0  0  0  0  0  0
    0.6006   -7.2893    3.8026 H   0  0  0  0  0  0  0  0  0  0  0  0
   -0.0229   -5.7800    4.3633 H   0  0  0  0  0  0  0  0  0  0  0  0
    1.5065   -5.5230    2.3857 H   0  0  0  0  0  0  0  0  0  0  0  0
    1.9616   -4.5655    3.7457 H   0  0  0  0  0  0  0  0  0  0  0  0
    4.1912   -7.9407    2.6062 H   0  0  0  0  0  0  0  0  0  0  0  0
    2.5309   -7.7217    2.0825 H   0  0  0  0  0  0  0  0  0  0  0  0
    3.3211   -5.7029    0.6866 H   0  0  0  0  0  0  0  0  0  0  0  0
    4.7205   -8.4157    0.1588 H   0  0  0  0  0  0  0  0  0  0  0  0
    4.4665   -7.0578   -1.0506 H   0  0  0  0  0  0  0  0  0  0  0  0
    5.7953   -5.5004    0.3127 H   0  0  0  0  0  0  0  0  0  0  0  0
    6.1078   -6.8320    1.5464 H   0  0  0  0  0  0  0  0  0  0  0  0
   -0.5153   -7.5451    6.0656 H   0  0  0  0  0  0  0  0  0  0  0  0
    3.8515   -5.4633    3.1517 H   0  0  0  0  0  0  0  0  0  0  0  0
    2.6293  -10.1371    6.5220 H   0  0  0  0  0  0  0  0  0  0  0  0
  1  2  1  0
  1 31  1  0
  1 32  1  0
  1 33  1  0
  3  2  1  1
  3 11  1  0
  3 29  1  0
  3  4  1  0
  4  5  1  0
  4 34  1  0
  4 35  1  0
  5  6  1  0
  5 36  1  0
  5 37  1  0
  6  7  1  0
  6  8  1  0
  6 66  1  1
  7 38  1  0
  7 39  1  0
  7 40  1  0
  9  8  1  6
  8 41  1  0
  8 42  1  0
  9 21  1  0
  9 10  1  0
  9 12  1  0
 10 11  1  0
 10 43  1  0
 10 44  1  0
 11 45  1  0
 11 46  1  0
 12 24  1  0
 12 13  1  0
 12 47  1  6
 13 14  1  0
 13 48  1  0
 13 49  1  0
 14 20  2  0
 14 15  1  0
 15 16  2  0
 15 50  1  0
 16 17  1  0
 16 51  1  0
 17 18  1  0
 17 19  2  0
 18 52  1  0
 19 30  1  0
 19 20  1  0
 20 21  1  0
 21 22  1  6
 21 29  1  0
 22 23  1  0
 22 53  1  0
 22 54  1  0
 23 24  1  0
 23 55  1  0
 23 56  1  0
 24 25  1  0
 24 65  1  6
 25 26  1  0
 25 57  1  0
 25 58  1  0
 26 28  1  0
 26 27  1  0
 26 59  1  0
 27 28  1  0
 27 60  1  0
 27 61  1  0
 28 62  1  0
 28 63  1  0
 29 30  1  0
 29 64  1  6
M  CHG  2   6   1  24   1
M  END
>  <i_m_ct_stereo_status>  (89) 
1

>  <s_m_source_file>  (89) 
/var/tmp/pbs.5076255.sched01/tmp6yc3ji7b/0haed4tc5.sdf

>  <i_m_source_file_index>  (89) 
36

>  <i_lp_mmshare_version>  (89) 
48012

>  <i_f3d_flags>  (89) 
0

>  <s_epik_input>  (89) 
W0NIM11OKFtDSDJdMSlbQ0gyXVtDSDJdW0NAQF0oT1tDSDNdKShbQ0gyXVtDSDJdMilbQ0BIXTNPYzRjKFtPSF0pW2NIXVtjSF1jKGM0W0NAQF0zNVtDQF0xMjYpW0NIMl1bQ0BASF02TihbQ0gyXVtDSDJdNSlbQ0gyXVtDSF03W0NIMl1bQ0gyXTc=

>  <s_epik_cmdline>  (89) 
J2VwaWtfcHl0aG9uJywgJy1waHQnLCAnMi4wJywgJy1waCcsICc3LjAnLCAnLXRuJywgJzgnLCAnLW1hJywgJzIwMCcsICctaW1hZScsICc8aW5maWxlLm1hZT4nLCAnLW9tYWUnLCAnPG91dGZpbGUubWFlPic=

>  <r_lp_tautomer_probability>  (89) 
1

>  <r_epik_Ionization_Penalty>  (89) 
0.145658

>  <r_epik_Ionization_Penalty_Charging>  (89) 
0.123958

>  <r_epik_Ionization_Penalty_Neutral>  (89) 
0.0217002

>  <r_epik_State_Penalty>  (89) 
0.11794

>  <r_epik_Charging_Adjusted_Penalty>  (89) 
0.241898

>  <i_epik_Tot_Q>  (89) 
2

>  <i_epik_Tot_abs_Q>  (89) 
2

>  <s_lp_Force_Field>  (89) 
OPLS3e

>  <r_lp_Energy>  (89) 
110.568

>  <b_lp_Chiralities_Consistent>  (89) 
1

>  <s_lp_Variant>  (89) 
26:0-1

>  <s_i_glide_gridfile>  (89) 
pfpi4k_grid

>  <i_i_glide_lignum>  (89) 
36

>  <i_i_glide_rotatable_bonds>  (89) 
4

>  <r_i_docking_score>  (89) 
-2.95086

>  <r_i_glide_ligand_efficiency>  (89) 
-0.0983619

>  <r_i_glide_ligand_efficiency_sa>  (89) 
-0.305633

>  <r_i_glide_ligand_efficiency_ln>  (89) 
-0.670467

>  <r_i_glide_gscore>  (89) 
-2.95086

>  <r_i_glide_lipo>  (89) 
-0.251015

>  <r_i_glide_hbond>  (89) 
-0.260619

>  <r_i_glide_metal>  (89) 
-0

>  <r_i_glide_rewards>  (89) 
-0.596148

>  <r_i_glide_evdw>  (89) 
-14.3711

>  <r_i_glide_ecoul>  (89) 
-8.58926

>  <r_i_glide_erotb>  (89) 
0.231715

>  <r_i_glide_esite>  (89) 
-0.0678439

>  <r_i_glide_emodel>  (89) 
-29.7518

>  <r_i_glide_energy>  (89) 
-22.9604

>  <r_i_glide_einternal>  (89) 
0.796902

>  <r_i_glide_intrahb_reward>  (89) 
-0

>  <i_i_glide_confnum>  (89) 
2

>  <i_i_glide_posenum>  (89) 
2

>  <r_i_glide_eff_state_penalty>  (89) 
0

>  <ligand_id>  (89) 
26

>  <original_smiles>  (89) 
COC12CCN(C)CC3(CC1)C1Cc4ccc(O)c5c4C3(CCN1CC1CC1)C2O5

>  <smiles>  (89) 
[H]Oc1c([H])c([H])c2c3c1OC1([H])C4(OC([H])([H])[H])C([H])([H])C([H])([H])C5(C31C([H])([H])C([H])([H])[N+]([H])(C([H])([H])C1([H])C([H])([H])C1([H])[H])C5([H])C2([H])[H])C([H])([H])[N+]([H])(C([H])([H])[H])C([H])([H])C4([H])[H]

$$$$
26:0:1
     RDKit          3D

 66 72  0  0  1  0  0  0  0  0999 V2000
    0.1569   -2.8178    9.7955 C   0  0  0  0  0  0  0  0  0  0  0  0
   -0.1801   -2.6109    8.4256 O   0  0  0  0  0  0  0  0  0  0  0  0
    0.8527   -2.6600    7.4246 C   0  0  2  0  0  0  0  0  0  0  0  0
    1.2950   -4.1490    7.3672 C   0  0  0  0  0  0  0  0  0  0  0  0
    1.8533   -4.6851    6.0396 C   0  0  0  0  0  0  0  0  0  0  0  0
    3.1915   -4.1289    5.7353 N   0  0  1  0  0  0  0  0  0  0  0  0
    4.1448   -5.1993    5.3274 C   0  0  0  0  0  0  0  0  0  0  0  0
    3.1595   -3.0161    4.7416 C   0  0  0  0  0  0  0  0  0  0  0  0
    2.5912   -1.6146    5.2057 C   0  0  1  0  0  0  0  0  0  0  0  0
    3.0609   -1.3844    6.6832 C   0  0  0  0  0  0  0  0  0  0  0  0
    2.0168   -1.6976    7.7917 C   0  0  0  0  0  0  0  0  0  0  0  0
    3.1547   -0.5042    4.2129 C   0  0  2  0  0  0  0  0  0  0  0  0
    2.8556    0.9403    4.6813 C   0  0  0  0  0  0  0  0  0  0  0  0
    1.4561    1.1851    5.2263 C   0  0  0  0  0  0  0  0  0  0  0  0
    0.8870    2.4174    5.5940 C   0  0  0  0  0  0  0  0  0  0  0  0
   -0.3830    2.4446    6.2190 C   0  0  0  0  0  0  0  0  0  0  0  0
   -1.0633    1.2414    6.5334 C   0  0  0  0  0  0  0  0  0  0  0  0
   -2.2516    1.2837    7.2015 O   0  0  0  0  0  0  0  0  0  0  0  0
   -0.4987   -0.0027    6.1803 C   0  0  0  0  0  0  0  0  0  0  0  0
    0.6991    0.0280    5.4961 C   0  0  0  0  0  0  0  0  0  0  0  0
    1.0458   -1.4019    5.1260 C   0  0  1  0  0  0  0  0  0  0  0  0
    0.5569   -1.6638    3.6808 C   0  0  0  0  0  0  0  0  0  0  0  0
    1.1766   -0.6955    2.6607 C   0  0  0  0  0  0  0  0  0  0  0  0
    2.6543   -0.6131    2.7963 N   0  0  2  0  0  0  0  0  0  0  0  0
    3.3881   -1.5498    1.9091 C   0  0  0  0  0  0  0  0  0  0  0  0
    3.4341   -1.0674    0.4687 C   0  0  0  0  0  0  0  0  0  0  0  0
    3.6856   -2.0698   -0.6456 C   0  0  0  0  0  0  0  0  0  0  0  0
    4.7471   -1.0704   -0.2879 C   0  0  0  0  0  0  0  0  0  0  0  0
    0.1270   -2.1871    6.1275 C   0  0  2  0  0  0  0  0  0  0  0  0
   -0.9382   -1.2654    6.4456 O   0  0  0  0  0  0  0  0  0  0  0  0
   -0.7648   -2.8750   10.3767 H   0  0  0  0  0  0  0  0  0  0  0  0
    0.7354   -1.9869   10.1978 H   0  0  0  0  0  0  0  0  0  0  0  0
    0.6982   -3.7470    9.9674 H   0  0  0  0  0  0  0  0  0  0  0  0
    2.0119   -4.3584    8.1655 H   0  0  0  0  0  0  0  0  0  0  0  0
    0.4267   -4.7702    7.5956 H   0  0  0  0  0  0  0  0  0  0  0  0
    1.9303   -5.7676    6.1574 H   0  0  0  0  0  0  0  0  0  0  0  0
    1.1636   -4.5534    5.2070 H   0  0  0  0  0  0  0  0  0  0  0  0
    3.8392   -5.6740    4.3912 H   0  0  0  0  0  0  0  0  0  0  0  0
    4.2142   -5.9798    6.0899 H   0  0  0  0  0  0  0  0  0  0  0  0
    5.1537   -4.8036    5.1895 H   0  0  0  0  0  0  0  0  0  0  0  0
    4.2026   -2.8487    4.4728 H   0  0  0  0  0  0  0  0  0  0  0  0
    2.6978   -3.3996    3.8391 H   0  0  0  0  0  0  0  0  0  0  0  0
    3.9824   -1.9330    6.8798 H   0  0  0  0  0  0  0  0  0  0  0  0
    3.3649   -0.3518    6.8493 H   0  0  0  0  0  0  0  0  0  0  0  0
    1.5621   -0.7493    8.0711 H   0  0  0  0  0  0  0  0  0  0  0  0
    2.5376   -2.0302    8.6898 H   0  0  0  0  0  0  0  0  0  0  0  0
    4.2432   -0.5740    4.1759 H   0  0  0  0  0  0  0  0  0  0  0  0
    3.5586    1.2288    5.4598 H   0  0  0  0  0  0  0  0  0  0  0  0
    3.0422    1.6526    3.8771 H   0  0  0  0  0  0  0  0  0  0  0  0
    1.4268    3.3387    5.4174 H   0  0  0  0  0  0  0  0  0  0  0  0
   -0.8078    3.3984    6.4874 H   0  0  0  0  0  0  0  0  0  0  0  0
   -2.5281    2.1675    7.3954 H   0  0  0  0  0  0  0  0  0  0  0  0
    0.7452   -2.6920    3.3673 H   0  0  0  0  0  0  0  0  0  0  0  0
   -0.5272   -1.5555    3.6688 H   0  0  0  0  0  0  0  0  0  0  0  0
    0.8972   -0.9837    1.6486 H   0  0  0  0  0  0  0  0  0  0  0  0
    0.7507    0.3007    2.7868 H   0  0  0  0  0  0  0  0  0  0  0  0
    4.4149   -1.6765    2.2543 H   0  0  0  0  0  0  0  0  0  0  0  0
    2.9132   -2.5276    1.9088 H   0  0  0  0  0  0  0  0  0  0  0  0
    2.7269   -0.2748    0.2157 H   0  0  0  0  0  0  0  0  0  0  0  0
    3.8535   -3.1110   -0.3734 H   0  0  0  0  0  0  0  0  0  0  0  0
    3.1580   -1.9187   -1.5870 H   0  0  0  0  0  0  0  0  0  0  0  0
    4.9186   -0.2555   -0.9842 H   0  0  0  0  0  0  0  0  0  0  0  0
    5.6299   -1.4366    0.2338 H   0  0  0  0  0  0  0  0  0  0  0  0
   -0.3677   -3.0381    5.6535 H   0  0  0  0  0  0  0  0  0  0  0  0
    2.8847    0.2858    2.3941 H   0  0  0  0  0  0  0  0  0  0  0  0
    3.5648   -3.7624    6.6027 H   0  0  0  0  0  0  0  0  0  0  0  0
  1  2  1  0
  1 31  1  0
  1 32  1  0
  1 33  1  0
  3  2  1  1
  3 11  1  0
  3 29  1  0
  3  4  1  0
  4  5  1  0
  4 34  1  0
  4 35  1  0
  5  6  1  0
  5 36  1  0
  5 37  1  0
  6  7  1  0
  6  8  1  0
  6 66  1  1
  7 38  1  0
  7 39  1  0
  7 40  1  0
  9  8  1  6
  8 41  1  0
  8 42  1  0
  9 21  1  0
  9 10  1  0
  9 12  1  0
 10 11  1  0
 10 43  1  0
 10 44  1  0
 11 45  1  0
 11 46  1  0
 12 24  1  0
 12 13  1  0
 12 47  1  6
 13 14  1  0
 13 48  1  0
 13 49  1  0
 14 20  2  0
 14 15  1  0
 15 16  2  0
 15 50  1  0
 16 17  1  0
 16 51  1  0
 17 18  1  0
 17 19  2  0
 18 52  1  0
 19 30  1  0
 19 20  1  0
 20 21  1  0
 21 22  1  6
 21 29  1  0
 22 23  1  0
 22 53  1  0
 22 54  1  0
 23 24  1  0
 23 55  1  0
 23 56  1  0
 24 25  1  0
 24 65  1  6
 25 26  1  0
 25 57  1  0
 25 58  1  0
 26 28  1  0
 26 27  1  0
 26 59  1  0
 27 28  1  0
 27 60  1  0
 27 61  1  0
 28 62  1  0
 28 63  1  0
 29 30  1  0
 29 64  1  6
M  CHG  2   6   1  24   1
M  END
>  <i_m_ct_stereo_status>  (90) 
1

>  <s_m_source_file>  (90) 
/var/tmp/pbs.5076255.sched01/tmp6yc3ji7b/0haed4tc5.sdf

>  <i_m_source_file_index>  (90) 
36

>  <i_lp_mmshare_version>  (90) 
48012

>  <i_f3d_flags>  (90) 
0

>  <s_epik_input>  (90) 
W0NIM11OKFtDSDJdMSlbQ0gyXVtDSDJdW0NAQF0oT1tDSDNdKShbQ0gyXVtDSDJdMilbQ0BIXTNPYzRjKFtPSF0pW2NIXVtjSF1jKGM0W0NAQF0zNVtDQF0xMjYpW0NIMl1bQ0BASF02TihbQ0gyXVtDSDJdNSlbQ0gyXVtDSF03W0NIMl1bQ0gyXTc=

>  <s_epik_cmdline>  (90) 
J2VwaWtfcHl0aG9uJywgJy1waHQnLCAnMi4wJywgJy1waCcsICc3LjAnLCAnLXRuJywgJzgnLCAnLW1hJywgJzIwMCcsICctaW1hZScsICc8aW5maWxlLm1hZT4nLCAnLW9tYWUnLCAnPG91dGZpbGUubWFlPic=

>  <r_lp_tautomer_probability>  (90) 
1

>  <r_epik_Ionization_Penalty>  (90) 
0.145658

>  <r_epik_Ionization_Penalty_Charging>  (90) 
0.123958

>  <r_epik_Ionization_Penalty_Neutral>  (90) 
0.0217002

>  <r_epik_State_Penalty>  (90) 
0.11794

>  <r_epik_Charging_Adjusted_Penalty>  (90) 
0.241898

>  <i_epik_Tot_Q>  (90) 
2

>  <i_epik_Tot_abs_Q>  (90) 
2

>  <s_lp_Force_Field>  (90) 
OPLS3e

>  <r_lp_Energy>  (90) 
110.568

>  <b_lp_Chiralities_Consistent>  (90) 
1

>  <s_lp_Variant>  (90) 
26:0-1

>  <s_i_glide_gridfile>  (90) 
pfpi4k_grid

>  <i_i_glide_lignum>  (90) 
36

>  <i_i_glide_rotatable_bonds>  (90) 
4

>  <r_i_docking_score>  (90) 
-2.86245

>  <r_i_glide_ligand_efficiency>  (90) 
-0.0954151

>  <r_i_glide_ligand_efficiency_sa>  (90) 
-0.296477

>  <r_i_glide_ligand_efficiency_ln>  (90) 
-0.650381

>  <r_i_glide_gscore>  (90) 
-2.86245

>  <r_i_glide_lipo>  (90) 
-0.00016762

>  <r_i_glide_hbond>  (90) 
-0.177667

>  <r_i_glide_metal>  (90) 
-0

>  <r_i_glide_rewards>  (90) 
-0.596148

>  <r_i_glide_evdw>  (90) 
-14.6567

>  <r_i_glide_ecoul>  (90) 
-10.5239

>  <r_i_glide_erotb>  (90) 
0.231715

>  <r_i_glide_esite>  (90) 
-0.00876009

>  <r_i_glide_emodel>  (90) 
-31.7611

>  <r_i_glide_energy>  (90) 
-25.1806

>  <r_i_glide_einternal>  (90) 
0.893901

>  <r_i_glide_intrahb_reward>  (90) 
-0

>  <i_i_glide_confnum>  (90) 
2

>  <i_i_glide_posenum>  (90) 
33

>  <r_i_glide_eff_state_penalty>  (90) 
0

>  <ligand_id>  (90) 
26

>  <original_smiles>  (90) 
COC12CCN(C)CC3(CC1)C1Cc4ccc(O)c5c4C3(CCN1CC1CC1)C2O5

>  <smiles>  (90) 
[H]Oc1c([H])c([H])c2c3c1OC1([H])C4(OC([H])([H])[H])C([H])([H])C([H])([H])C5(C31C([H])([H])C([H])([H])[N+]([H])(C([H])([H])C1([H])C([H])([H])C1([H])[H])C5([H])C2([H])[H])C([H])([H])[N+]([H])(C([H])([H])[H])C([H])([H])C4([H])[H]

$$$$
26:0:2
     RDKit          3D

 66 72  0  0  1  0  0  0  0  0999 V2000
    6.7248   -1.7801    6.7983 C   0  0  0  0  0  0  0  0  0  0  0  0
    6.1777   -0.7863    5.9344 O   0  0  0  0  0  0  0  0  0  0  0  0
    4.7692   -0.5147    5.9402 C   0  0  2  0  0  0  0  0  0  0  0  0
    4.5139    0.1175    7.3302 C   0  0  0  0  0  0  0  0  0  0  0  0
    3.3553    1.1055    7.4660 C   0  0  0  0  0  0  0  0  0  0  0  0
    2.0440    0.4263    7.3739 N   0  0  1  0  0  0  0  0  0  0  0  0
    1.1306    0.8633    8.4686 C   0  0  0  0  0  0  0  0  0  0  0  0
    1.4001    0.5641    6.0347 C   0  0  0  0  0  0  0  0  0  0  0  0
    2.0023   -0.2569    4.8252 C   0  0  1  0  0  0  0  0  0  0  0  0
    2.4415   -1.6547    5.3819 C   0  0  0  0  0  0  0  0  0  0  0  0
    3.9530   -1.8148    5.6990 C   0  0  0  0  0  0  0  0  0  0  0  0
    0.8717   -0.3826    3.7088 C   0  0  2  0  0  0  0  0  0  0  0  0
    1.2608   -1.3528    2.5676 C   0  0  0  0  0  0  0  0  0  0  0  0
    2.6834   -1.2532    2.0619 C   0  0  0  0  0  0  0  0  0  0  0  0
    3.2353   -1.9234    0.9542 C   0  0  0  0  0  0  0  0  0  0  0  0
    4.6198   -1.8195    0.7015 C   0  0  0  0  0  0  0  0  0  0  0  0
    5.4658   -1.0976    1.5739 C   0  0  0  0  0  0  0  0  0  0  0  0
    6.7951   -1.0587    1.2986 O   0  0  0  0  0  0  0  0  0  0  0  0
    4.9267   -0.4425    2.7079 C   0  0  0  0  0  0  0  0  0  0  0  0
    3.5634   -0.4912    2.8598 C   0  0  0  0  0  0  0  0  0  0  0  0
    3.1909    0.3842    4.0448 C   0  0  1  0  0  0  0  0  0  0  0  0
    2.7620    1.7808    3.5272 C   0  0  0  0  0  0  0  0  0  0  0  0
    1.6000    1.7244    2.5320 C   0  0  0  0  0  0  0  0  0  0  0  0
    0.4697    0.9193    3.0581 N   0  0  2  0  0  0  0  0  0  0  0  0
   -0.5582    1.7252    3.7719 C   0  0  0  0  0  0  0  0  0  0  0  0
   -1.3708    2.5926    2.8359 C   0  0  0  0  0  0  0  0  0  0  0  0
   -1.7519    4.0032    3.2516 C   0  0  0  0  0  0  0  0  0  0  0  0
   -2.8065    2.9362    3.1747 C   0  0  0  0  0  0  0  0  0  0  0  0
    4.5842    0.4853    4.7579 C   0  0  2  0  0  0  0  0  0  0  0  0
    5.5575    0.2194    3.7207 O   0  0  0  0  0  0  0  0  0  0  0  0
    7.8117   -1.7530    6.7107 H   0  0  0  0  0  0  0  0  0  0  0  0
    6.4072   -2.7847    6.5183 H   0  0  0  0  0  0  0  0  0  0  0  0
    6.4922   -1.6023    7.8470 H   0  0  0  0  0  0  0  0  0  0  0  0
    4.4088   -0.6658    8.0821 H   0  0  0  0  0  0  0  0  0  0  0  0
    5.4074    0.6705    7.6208 H   0  0  0  0  0  0  0  0  0  0  0  0
    3.4578    1.5615    8.4516 H   0  0  0  0  0  0  0  0  0  0  0  0
    3.4275    1.9428    6.7733 H   0  0  0  0  0  0  0  0  0  0  0  0
    0.8838    1.9244    8.3905 H   0  0  0  0  0  0  0  0  0  0  0  0
    1.5787    0.7000    9.4507 H   0  0  0  0  0  0  0  0  0  0  0  0
    0.1948    0.3041    8.4567 H   0  0  0  0  0  0  0  0  0  0  0  0
    0.3787    0.2090    6.1734 H   0  0  0  0  0  0  0  0  0  0  0  0
    1.3032    1.6274    5.8458 H   0  0  0  0  0  0  0  0  0  0  0  0
    1.8558   -1.9155    6.2618 H   0  0  0  0  0  0  0  0  0  0  0  0
    2.1958   -2.4572    4.6880 H   0  0  0  0  0  0  0  0  0  0  0  0
    4.4007   -2.3122    4.8425 H   0  0  0  0  0  0  0  0  0  0  0  0
    4.0819   -2.5203    6.5176 H   0  0  0  0  0  0  0  0  0  0  0  0
   -0.0314   -0.8037    4.1522 H   0  0  0  0  0  0  0  0  0  0  0  0
    1.0954   -2.3801    2.8858 H   0  0  0  0  0  0  0  0  0  0  0  0
    0.6147   -1.2260    1.7055 H   0  0  0  0  0  0  0  0  0  0  0  0
    2.6067   -2.5161    0.2966 H   0  0  0  0  0  0  0  0  0  0  0  0
    5.0448   -2.3176   -0.1563 H   0  0  0  0  0  0  0  0  0  0  0  0
    7.2442   -0.3471    1.7417 H   0  0  0  0  0  0  0  0  0  0  0  0
    2.5233    2.4637    4.3380 H   0  0  0  0  0  0  0  0  0  0  0  0
    3.5872    2.2606    3.0256 H   0  0  0  0  0  0  0  0  0  0  0  0
    1.2784    2.7297    2.2633 H   0  0  0  0  0  0  0  0  0  0  0  0
    1.9332    1.2938    1.5877 H   0  0  0  0  0  0  0  0  0  0  0  0
   -1.2427    1.0682    4.3077 H   0  0  0  0  0  0  0  0  0  0  0  0
   -0.0904    2.3900    4.4902 H   0  0  0  0  0  0  0  0  0  0  0  0
   -1.1311    2.4541    1.7850 H   0  0  0  0  0  0  0  0  0  0  0  0
   -1.4479    4.3467    4.2390 H   0  0  0  0  0  0  0  0  0  0  0  0
   -1.7648    4.7669    2.4768 H   0  0  0  0  0  0  0  0  0  0  0  0
   -3.5131    2.9846    2.3492 H   0  0  0  0  0  0  0  0  0  0  0  0
   -3.2103    2.5552    4.1101 H   0  0  0  0  0  0  0  0  0  0  0  0
    4.8021    1.4996    5.0972 H   0  0  0  0  0  0  0  0  0  0  0  0
   -0.0213    0.6354    2.2201 H   0  0  0  0  0  0  0  0  0  0  0  0
    2.2106   -0.5584    7.5426 H   0  0  0  0  0  0  0  0  0  0  0  0
  1  2  1  0
  1 31  1  0
  1 32  1  0
  1 33  1  0
  3  2  1  1
  3 11  1  0
  3 29  1  0
  3  4  1  0
  4  5  1  0
  4 34  1  0
  4 35  1  0
  5  6  1  0
  5 36  1  0
  5 37  1  0
  6  7  1  0
  6  8  1  0
  6 66  1  1
  7 38  1  0
  7 39  1  0
  7 40  1  0
  9  8  1  1
  8 41  1  0
  8 42  1  0
  9 21  1  0
  9 10  1  0
  9 12  1  0
 10 11  1  0
 10 43  1  0
 10 44  1  0
 11 45  1  0
 11 46  1  0
 12 24  1  0
 12 13  1  0
 12 47  1  1
 13 14  1  0
 13 48  1  0
 13 49  1  0
 14 20  2  0
 14 15  1  0
 15 16  2  0
 15 50  1  0
 16 17  1  0
 16 51  1  0
 17 18  1  0
 17 19  2  0
 18 52  1  0
 19 30  1  0
 19 20  1  0
 20 21  1  0
 21 22  1  6
 21 29  1  0
 22 23  1  0
 22 53  1  0
 22 54  1  0
 23 24  1  0
 23 55  1  0
 23 56  1  0
 24 25  1  0
 24 65  1  6
 25 26  1  0
 25 57  1  0
 25 58  1  0
 26 28  1  0
 26 27  1  0
 26 59  1  0
 27 28  1  0
 27 60  1  0
 27 61  1  0
 28 62  1  0
 28 63  1  0
 29 30  1  0
 29 64  1  1
M  CHG  2   6   1  24   1
M  END
>  <i_m_ct_stereo_status>  (91) 
1

>  <s_m_source_file>  (91) 
/var/tmp/pbs.5076255.sched01/tmp6yc3ji7b/0haed4tc5.sdf

>  <i_m_source_file_index>  (91) 
36

>  <i_lp_mmshare_version>  (91) 
48012

>  <i_f3d_flags>  (91) 
0

>  <s_epik_input>  (91) 
W0NIM11OKFtDSDJdMSlbQ0gyXVtDSDJdW0NAQF0oT1tDSDNdKShbQ0gyXVtDSDJdMilbQ0BIXTNPYzRjKFtPSF0pW2NIXVtjSF1jKGM0W0NAQF0zNVtDQF0xMjYpW0NIMl1bQ0BASF02TihbQ0gyXVtDSDJdNSlbQ0gyXVtDSF03W0NIMl1bQ0gyXTc=

>  <s_epik_cmdline>  (91) 
J2VwaWtfcHl0aG9uJywgJy1waHQnLCAnMi4wJywgJy1waCcsICc3LjAnLCAnLXRuJywgJzgnLCAnLW1hJywgJzIwMCcsICctaW1hZScsICc8aW5maWxlLm1hZT4nLCAnLW9tYWUnLCAnPG91dGZpbGUubWFlPic=

>  <r_lp_tautomer_probability>  (91) 
1

>  <r_epik_Ionization_Penalty>  (91) 
0.145658

>  <r_epik_Ionization_Penalty_Charging>  (91) 
0.123958

>  <r_epik_Ionization_Penalty_Neutral>  (91) 
0.0217002

>  <r_epik_State_Penalty>  (91) 
0.11794

>  <r_epik_Charging_Adjusted_Penalty>  (91) 
0.241898

>  <i_epik_Tot_Q>  (91) 
2

>  <i_epik_Tot_abs_Q>  (91) 
2

>  <s_lp_Force_Field>  (91) 
OPLS3e

>  <r_lp_Energy>  (91) 
110.568

>  <b_lp_Chiralities_Consistent>  (91) 
1

>  <s_lp_Variant>  (91) 
26:0-1

>  <s_i_glide_gridfile>  (91) 
pfpi4k_grid

>  <i_i_glide_lignum>  (91) 
36

>  <i_i_glide_rotatable_bonds>  (91) 
4

>  <r_i_docking_score>  (91) 
-2.84904

>  <r_i_glide_ligand_efficiency>  (91) 
-0.0949681

>  <r_i_glide_ligand_efficiency_sa>  (91) 
-0.295088

>  <r_i_glide_ligand_efficiency_ln>  (91) 
-0.647334

>  <r_i_glide_gscore>  (91) 
-2.84904

>  <r_i_glide_lipo>  (91) 
-0.345582

>  <r_i_glide_hbond>  (91) 
-0.00692003

>  <r_i_glide_metal>  (91) 
-0

>  <r_i_glide_rewards>  (91) 
-0.596148

>  <r_i_glide_evdw>  (91) 
-18.1019

>  <r_i_glide_ecoul>  (91) 
-7.9689

>  <r_i_glide_erotb>  (91) 
0.231715

>  <r_i_glide_esite>  (91) 
-0.0316772

>  <r_i_glide_emodel>  (91) 
-32.0631

>  <r_i_glide_energy>  (91) 
-26.0708

>  <r_i_glide_einternal>  (91) 
1.58853

>  <r_i_glide_intrahb_reward>  (91) 
-0

>  <i_i_glide_confnum>  (91) 
1

>  <i_i_glide_posenum>  (91) 
7

>  <r_i_glide_eff_state_penalty>  (91) 
0

>  <ligand_id>  (91) 
26

>  <original_smiles>  (91) 
COC12CCN(C)CC3(CC1)C1Cc4ccc(O)c5c4C3(CCN1CC1CC1)C2O5

>  <smiles>  (91) 
[H]Oc1c([H])c([H])c2c3c1OC1([H])C4(OC([H])([H])[H])C([H])([H])C([H])([H])C5(C31C([H])([H])C([H])([H])[N+]([H])(C([H])([H])C1([H])C([H])([H])C1([H])[H])C5([H])C2([H])[H])C([H])([H])[N+]([H])(C([H])([H])[H])C([H])([H])C4([H])[H]

$$$$
26:1:0
     RDKit          3D

 65 71  0  0  1  0  0  0  0  0999 V2000
    2.1779    3.6578    8.7361 C   0  0  0  0  0  0  0  0  0  0  0  0
    1.7736    2.4630    8.0731 O   0  0  0  0  0  0  0  0  0  0  0  0
    2.4741    2.0228    6.9000 C   0  0  2  0  0  0  0  0  0  0  0  0
    3.8739    1.5778    7.4026 C   0  0  0  0  0  0  0  0  0  0  0  0
    4.6137    0.4918    6.6105 C   0  0  0  0  0  0  0  0  0  0  0  0
    5.0970    0.9946    5.3301 N   0  0  0  0  0  0  0  0  0  0  0  0
    6.4407    0.4640    5.0972 C   0  0  0  0  0  0  0  0  0  0  0  0
    4.2358    0.5621    4.2267 C   0  0  0  0  0  0  0  0  0  0  0  0
    2.8308    1.2496    4.0383 C   0  0  1  0  0  0  0  0  0  0  0  0
    2.9822    2.7651    4.4133 C   0  0  0  0  0  0  0  0  0  0  0  0
    2.5311    3.1607    5.8446 C   0  0  0  0  0  0  0  0  0  0  0  0
    2.4017    1.0455    2.5210 C   0  0  2  0  0  0  0  0  0  0  0  0
    1.1347    1.8430    2.1438 C   0  0  0  0  0  0  0  0  0  0  0  0
    0.0109    1.8370    3.1756 C   0  0  0  0  0  0  0  0  0  0  0  0
   -1.2796    2.3822    3.0364 C   0  0  0  0  0  0  0  0  0  0  0  0
   -2.1525    2.4261    4.1506 C   0  0  0  0  0  0  0  0  0  0  0  0
   -1.7207    1.9817    5.4249 C   0  0  0  0  0  0  0  0  0  0  0  0
   -2.5515    2.0920    6.5000 O   0  0  0  0  0  0  0  0  0  0  0  0
   -0.4263    1.4416    5.5814 C   0  0  0  0  0  0  0  0  0  0  0  0
    0.3533    1.3374    4.4469 C   0  0  0  0  0  0  0  0  0  0  0  0
    1.6369    0.6373    4.8349 C   0  0  1  0  0  0  0  0  0  0  0  0
    1.5038   -0.8715    4.5011 C   0  0  0  0  0  0  0  0  0  0  0  0
    1.2194   -1.1208    3.0140 C   0  0  0  0  0  0  0  0  0  0  0  0
    2.1519   -0.3850    2.1191 N   0  0  2  0  0  0  0  0  0  0  0  0
    3.3478   -1.1755    1.7323 C   0  0  0  0  0  0  0  0  0  0  0  0
    3.0270   -2.2055    0.6629 C   0  0  0  0  0  0  0  0  0  0  0  0
    4.1477   -3.0051    0.0312 C   0  0  0  0  0  0  0  0  0  0  0  0
    3.4254   -1.9573   -0.7730 C   0  0  0  0  0  0  0  0  0  0  0  0
    1.6079    0.8304    6.3905 C   0  0  2  0  0  0  0  0  0  0  0  0
    0.2103    1.0271    6.7109 O   0  0  0  0  0  0  0  0  0  0  0  0
    1.6212    3.7444    9.6709 H   0  0  0  0  0  0  0  0  0  0  0  0
    1.9451    4.5408    8.1417 H   0  0  0  0  0  0  0  0  0  0  0  0
    3.2368    3.6671    8.9935 H   0  0  0  0  0  0  0  0  0  0  0  0
    4.5261    2.4441    7.5218 H   0  0  0  0  0  0  0  0  0  0  0  0
    3.7525    1.1740    8.4095 H   0  0  0  0  0  0  0  0  0  0  0  0
    5.4692    0.2125    7.2271 H   0  0  0  0  0  0  0  0  0  0  0  0
    4.0349   -0.4256    6.5021 H   0  0  0  0  0  0  0  0  0  0  0  0
    6.8559    0.8028    4.1463 H   0  0  0  0  0  0  0  0  0  0  0  0
    6.4130   -0.6245    5.0940 H   0  0  0  0  0  0  0  0  0  0  0  0
    7.1401    0.7739    5.8754 H   0  0  0  0  0  0  0  0  0  0  0  0
    4.8035    0.8022    3.3281 H   0  0  0  0  0  0  0  0  0  0  0  0
    4.1867   -0.5208    4.2484 H   0  0  0  0  0  0  0  0  0  0  0  0
    4.0130    3.0843    4.2627 H   0  0  0  0  0  0  0  0  0  0  0  0
    2.4308    3.4125    3.7336 H   0  0  0  0  0  0  0  0  0  0  0  0
    1.5237    3.5662    5.7600 H   0  0  0  0  0  0  0  0  0  0  0  0
    3.1400    3.9950    6.1946 H   0  0  0  0  0  0  0  0  0  0  0  0
    3.1901    1.4263    1.8707 H   0  0  0  0  0  0  0  0  0  0  0  0
    1.4145    2.8796    1.9680 H   0  0  0  0  0  0  0  0  0  0  0  0
    0.7247    1.5014    1.1915 H   0  0  0  0  0  0  0  0  0  0  0  0
   -1.5920    2.7925    2.0841 H   0  0  0  0  0  0  0  0  0  0  0  0
   -3.1420    2.8289    4.0071 H   0  0  0  0  0  0  0  0  0  0  0  0
   -3.3572    2.5392    6.2924 H   0  0  0  0  0  0  0  0  0  0  0  0
    2.3962   -1.4210    4.8050 H   0  0  0  0  0  0  0  0  0  0  0  0
    0.6951   -1.3125    5.0838 H   0  0  0  0  0  0  0  0  0  0  0  0
    1.2330   -2.1922    2.8127 H   0  0  0  0  0  0  0  0  0  0  0  0
    0.2035   -0.8048    2.7853 H   0  0  0  0  0  0  0  0  0  0  0  0
    4.1325   -0.5187    1.3528 H   0  0  0  0  0  0  0  0  0  0  0  0
    3.7496   -1.7146    2.5865 H   0  0  0  0  0  0  0  0  0  0  0  0
    2.1137   -2.7786    0.8268 H   0  0  0  0  0  0  0  0  0  0  0  0
    5.1677   -2.7913    0.3460 H   0  0  0  0  0  0  0  0  0  0  0  0
    3.9495   -4.0436   -0.2291 H   0  0  0  0  0  0  0  0  0  0  0  0
    2.7250   -2.2938   -1.5369 H   0  0  0  0  0  0  0  0  0  0  0  0
    3.9421   -1.0238   -0.9851 H   0  0  0  0  0  0  0  0  0  0  0  0
    1.9020   -0.0778    6.9200 H   0  0  0  0  0  0  0  0  0  0  0  0
    1.6554   -0.3064    1.2353 H   0  0  0  0  0  0  0  0  0  0  0  0
  1  2  1  0
  1 31  1  0
  1 32  1  0
  1 33  1  0
  3  2  1  1
  3 11  1  0
  3 29  1  0
  3  4  1  0
  4  5  1  0
  4 34  1  0
  4 35  1  0
  5  6  1  0
  5 36  1  0
  5 37  1  0
  6  7  1  0
  6  8  1  0
  7 38  1  0
  7 39  1  0
  7 40  1  0
  9  8  1  6
  8 41  1  0
  8 42  1  0
  9 21  1  0
  9 10  1  0
  9 12  1  0
 10 11  1  0
 10 43  1  0
 10 44  1  0
 11 45  1  0
 11 46  1  0
 12 24  1  0
 12 13  1  0
 12 47  1  6
 13 14  1  0
 13 48  1  0
 13 49  1  0
 14 20  2  0
 14 15  1  0
 15 16  2  0
 15 50  1  0
 16 17  1  0
 16 51  1  0
 17 18  1  0
 17 19  2  0
 18 52  1  0
 19 30  1  0
 19 20  1  0
 20 21  1  0
 21 22  1  1
 21 29  1  0
 22 23  1  0
 22 53  1  0
 22 54  1  0
 23 24  1  0
 23 55  1  0
 23 56  1  0
 24 25  1  0
 24 65  1  6
 25 26  1  0
 25 57  1  0
 25 58  1  0
 26 28  1  0
 26 27  1  0
 26 59  1  0
 27 28  1  0
 27 60  1  0
 27 61  1  0
 28 62  1  0
 28 63  1  0
 29 30  1  0
 29 64  1  1
M  CHG  1  24   1
M  END
>  <i_m_ct_stereo_status>  (92) 
1

>  <s_m_source_file>  (92) 
/var/tmp/pbs.5076255.sched01/tmp6yc3ji7b/0haed4tc5.sdf

>  <i_m_source_file_index>  (92) 
37

>  <i_lp_mmshare_version>  (92) 
48012

>  <i_f3d_flags>  (92) 
0

>  <s_epik_input>  (92) 
W0NIM11OKFtDSDJdMSlbQ0gyXVtDSDJdW0NAQF0oT1tDSDNdKShbQ0gyXVtDSDJdMilbQ0BIXTNPYzRjKFtPSF0pW2NIXVtjSF1jKGM0W0NAQF0zNVtDQF0xMjYpW0NIMl1bQ0BASF02TihbQ0gyXVtDSDJdNSlbQ0gyXVtDSF03W0NIMl1bQ0gyXTc=

>  <s_epik_cmdline>  (92) 
J2VwaWtfcHl0aG9uJywgJy1waHQnLCAnMi4wJywgJy1waCcsICc3LjAnLCAnLXRuJywgJzgnLCAnLW1hJywgJzIwMCcsICctaW1hZScsICc8aW5maWxlLm1hZT4nLCAnLW9tYWUnLCAnPG91dGZpbGUubWFlPic=

>  <r_lp_tautomer_probability>  (92) 
1

>  <r_epik_Ionization_Penalty>  (92) 
1.35339

>  <r_epik_Ionization_Penalty_Charging>  (92) 
0.00628687

>  <r_epik_Ionization_Penalty_Neutral>  (92) 
1.34711

>  <r_epik_State_Penalty>  (92) 
1.46392

>  <r_epik_Charging_Adjusted_Penalty>  (92) 
1.47021

>  <i_epik_Tot_Q>  (92) 
1

>  <i_epik_Tot_abs_Q>  (92) 
1

>  <s_lp_Force_Field>  (92) 
OPLS3e

>  <r_lp_Energy>  (92) 
97.3123

>  <b_lp_Chiralities_Consistent>  (92) 
1

>  <s_lp_Variant>  (92) 
26:0-2

>  <s_i_glide_gridfile>  (92) 
pfpi4k_grid

>  <i_i_glide_lignum>  (92) 
37

>  <i_i_glide_rotatable_bonds>  (92) 
4

>  <r_i_docking_score>  (92) 
-2.51442

>  <r_i_glide_ligand_efficiency>  (92) 
-0.083814

>  <r_i_glide_ligand_efficiency_sa>  (92) 
-0.260429

>  <r_i_glide_ligand_efficiency_ln>  (92) 
-0.571303

>  <r_i_glide_gscore>  (92) 
-2.51442

>  <r_i_glide_lipo>  (92) 
-0.197557

>  <r_i_glide_hbond>  (92) 
-0.0582296

>  <r_i_glide_metal>  (92) 
-0

>  <r_i_glide_rewards>  (92) 
-0.60302

>  <r_i_glide_evdw>  (92) 
-20.1032

>  <r_i_glide_ecoul>  (92) 
-5.5942

>  <r_i_glide_erotb>  (92) 
0.232741

>  <r_i_glide_esite>  (92) 
-0.0440647

>  <r_i_glide_emodel>  (92) 
-31.0174

>  <r_i_glide_energy>  (92) 
-25.6974

>  <r_i_glide_einternal>  (92) 
0.251065

>  <r_i_glide_intrahb_reward>  (92) 
-0

>  <i_i_glide_confnum>  (92) 
2

>  <i_i_glide_posenum>  (92) 
40

>  <r_i_glide_eff_state_penalty>  (92) 
0

>  <ligand_id>  (92) 
26

>  <original_smiles>  (92) 
COC12CCN(C)CC3(CC1)C1Cc4ccc(O)c5c4C3(CCN1CC1CC1)C2O5

>  <smiles>  (92) 
[H]Oc1c([H])c([H])c2c3c1OC1([H])C4(OC([H])([H])[H])C([H])([H])C([H])([H])N(C([H])([H])[H])C([H])([H])C5(C([H])([H])C4([H])[H])C31C([H])([H])C([H])([H])[N+]([H])(C([H])([H])C1([H])C([H])([H])C1([H])[H])C5([H])C2([H])[H]

$$$$
26:1:1
     RDKit          3D

 65 71  0  0  1  0  0  0  0  0999 V2000
    1.0854   -2.4004    9.6824 C   0  0  0  0  0  0  0  0  0  0  0  0
    0.7074   -2.4801    8.3102 O   0  0  0  0  0  0  0  0  0  0  0  0
    1.7217   -2.4710    7.2913 C   0  0  2  0  0  0  0  0  0  0  0  0
    2.4898   -3.8108    7.4532 C   0  0  0  0  0  0  0  0  0  0  0  0
    3.1525   -4.4216    6.2101 C   0  0  0  0  0  0  0  0  0  0  0  0
    4.3262   -3.6653    5.7920 N   0  0  0  0  0  0  0  0  0  0  0  0
    5.3774   -4.6067    5.3964 C   0  0  0  0  0  0  0  0  0  0  0  0
    4.0289   -2.8021    4.6472 C   0  0  0  0  0  0  0  0  0  0  0  0
    3.1762   -1.4957    4.8723 C   0  0  1  0  0  0  0  0  0  0  0  0
    3.5783   -0.8908    6.2621 C   0  0  0  0  0  0  0  0  0  0  0  0
    2.6299   -1.2201    7.4466 C   0  0  0  0  0  0  0  0  0  0  0  0
    3.5011   -0.5091    3.6705 C   0  0  2  0  0  0  0  0  0  0  0  0
    2.8909    0.9006    3.8599 C   0  0  0  0  0  0  0  0  0  0  0  0
    1.4686    0.9398    4.4047 C   0  0  0  0  0  0  0  0  0  0  0  0
    0.6423    2.0702    4.5599 C   0  0  0  0  0  0  0  0  0  0  0  0
   -0.6002    1.9437    5.2243 C   0  0  0  0  0  0  0  0  0  0  0  0
   -1.0039    0.7065    5.7869 C   0  0  0  0  0  0  0  0  0  0  0  0
   -2.1844    0.6176    6.4716 O   0  0  0  0  0  0  0  0  0  0  0  0
   -0.1829   -0.4314    5.6506 C   0  0  0  0  0  0  0  0  0  0  0  0
    0.9766   -0.2779    4.9160 C   0  0  0  0  0  0  0  0  0  0  0  0
    1.6238   -1.6438    4.8017 C   0  0  1  0  0  0  0  0  0  0  0  0
    1.2168   -2.2787    3.4447 C   0  0  0  0  0  0  0  0  0  0  0  0
    1.6294   -1.4151    2.2447 C   0  0  0  0  0  0  0  0  0  0  0  0
    3.0546   -0.9999    2.3178 N   0  0  2  0  0  0  0  0  0  0  0  0
    3.9839   -1.9181    1.6106 C   0  0  0  0  0  0  0  0  0  0  0  0
    3.9331   -1.7308    0.1031 C   0  0  0  0  0  0  0  0  0  0  0  0
    5.0083   -2.3482   -0.7673 C   0  0  0  0  0  0  0  0  0  0  0  0
    4.9482   -0.8539   -0.5928 C   0  0  0  0  0  0  0  0  0  0  0  0
    0.8996   -2.4039    5.9680 C   0  0  2  0  0  0  0  0  0  0  0  0
   -0.3398   -1.6834    6.1665 O   0  0  0  0  0  0  0  0  0  0  0  0
    0.2011   -2.5672   10.2998 H   0  0  0  0  0  0  0  0  0  0  0  0
    1.4701   -1.4120    9.9320 H   0  0  0  0  0  0  0  0  0  0  0  0
    1.8191   -3.1531    9.9703 H   0  0  0  0  0  0  0  0  0  0  0  0
    3.2304   -3.7289    8.2501 H   0  0  0  0  0  0  0  0  0  0  0  0
    1.7787   -4.5615    7.8030 H   0  0  0  0  0  0  0  0  0  0  0  0
    3.4681   -5.4216    6.5103 H   0  0  0  0  0  0  0  0  0  0  0  0
    2.4537   -4.5815    5.3896 H   0  0  0  0  0  0  0  0  0  0  0  0
    6.2809   -4.0813    5.0895 H   0  0  0  0  0  0  0  0  0  0  0  0
    5.0642   -5.2433    4.5668 H   0  0  0  0  0  0  0  0  0  0  0  0
    5.6606   -5.2570    6.2259 H   0  0  0  0  0  0  0  0  0  0  0  0
    5.0066   -2.4631    4.3025 H   0  0  0  0  0  0  0  0  0  0  0  0
    3.6482   -3.4326    3.8518 H   0  0  0  0  0  0  0  0  0  0  0  0
    4.5934   -1.1946    6.5193 H   0  0  0  0  0  0  0  0  0  0  0  0
    3.6536    0.1946    6.2279 H   0  0  0  0  0  0  0  0  0  0  0  0
    1.9710   -0.3621    7.5745 H   0  0  0  0  0  0  0  0  0  0  0  0
    3.2125   -1.2661    8.3675 H   0  0  0  0  0  0  0  0  0  0  0  0
    4.5793   -0.3515    3.6162 H   0  0  0  0  0  0  0  0  0  0  0  0
    3.5116    1.4778    4.5430 H   0  0  0  0  0  0  0  0  0  0  0  0
    2.9236    1.4660    2.9269 H   0  0  0  0  0  0  0  0  0  0  0  0
    0.9727    3.0330    4.1893 H   0  0  0  0  0  0  0  0  0  0  0  0
   -1.2209    2.8192    5.3230 H   0  0  0  0  0  0  0  0  0  0  0  0
   -2.6549    1.4376    6.4485 H   0  0  0  0  0  0  0  0  0  0  0  0
    1.6352   -3.2812    3.3391 H   0  0  0  0  0  0  0  0  0  0  0  0
    0.1376   -2.4224    3.4096 H   0  0  0  0  0  0  0  0  0  0  0  0
    1.4225   -1.9443    1.3153 H   0  0  0  0  0  0  0  0  0  0  0  0
    1.0012   -0.5235    2.1968 H   0  0  0  0  0  0  0  0  0  0  0  0
    5.0112   -1.7472    1.9385 H   0  0  0  0  0  0  0  0  0  0  0  0
    3.7373   -2.9574    1.8138 H   0  0  0  0  0  0  0  0  0  0  0  0
    2.9354   -1.7719   -0.3371 H   0  0  0  0  0  0  0  0  0  0  0  0
    5.8139   -2.8894   -0.2740 H   0  0  0  0  0  0  0  0  0  0  0  0
    4.7102   -2.7417   -1.7386 H   0  0  0  0  0  0  0  0  0  0  0  0
    4.5894   -0.2589   -1.4323 H   0  0  0  0  0  0  0  0  0  0  0  0
    5.6953   -0.3767    0.0397 H   0  0  0  0  0  0  0  0  0  0  0  0
    0.6076   -3.4145    5.6748 H   0  0  0  0  0  0  0  0  0  0  0  0
    3.0908   -0.1707    1.7408 H   0  0  0  0  0  0  0  0  0  0  0  0
  1  2  1  0
  1 31  1  0
  1 32  1  0
  1 33  1  0
  3  2  1  1
  3 11  1  0
  3 29  1  0
  3  4  1  0
  4  5  1  0
  4 34  1  0
  4 35  1  0
  5  6  1  0
  5 36  1  0
  5 37  1  0
  6  7  1  0
  6  8  1  0
  7 38  1  0
  7 39  1  0
  7 40  1  0
  9  8  1  6
  8 41  1  0
  8 42  1  0
  9 21  1  0
  9 10  1  0
  9 12  1  0
 10 11  1  0
 10 43  1  0
 10 44  1  0
 11 45  1  0
 11 46  1  0
 12 24  1  0
 12 13  1  0
 12 47  1  6
 13 14  1  0
 13 48  1  0
 13 49  1  0
 14 20  2  0
 14 15  1  0
 15 16  2  0
 15 50  1  0
 16 17  1  0
 16 51  1  0
 17 18  1  0
 17 19  2  0
 18 52  1  0
 19 30  1  0
 19 20  1  0
 20 21  1  0
 21 22  1  6
 21 29  1  0
 22 23  1  0
 22 53  1  0
 22 54  1  0
 23 24  1  0
 23 55  1  0
 23 56  1  0
 24 25  1  0
 24 65  1  6
 25 26  1  0
 25 57  1  0
 25 58  1  0
 26 28  1  0
 26 27  1  0
 26 59  1  0
 27 28  1  0
 27 60  1  0
 27 61  1  0
 28 62  1  0
 28 63  1  0
 29 30  1  0
 29 64  1  6
M  CHG  1  24   1
M  END
>  <i_m_ct_stereo_status>  (93) 
1

>  <s_m_source_file>  (93) 
/var/tmp/pbs.5076255.sched01/tmp6yc3ji7b/0haed4tc5.sdf

>  <i_m_source_file_index>  (93) 
37

>  <i_lp_mmshare_version>  (93) 
48012

>  <i_f3d_flags>  (93) 
0

>  <s_epik_input>  (93) 
W0NIM11OKFtDSDJdMSlbQ0gyXVtDSDJdW0NAQF0oT1tDSDNdKShbQ0gyXVtDSDJdMilbQ0BIXTNPYzRjKFtPSF0pW2NIXVtjSF1jKGM0W0NAQF0zNVtDQF0xMjYpW0NIMl1bQ0BASF02TihbQ0gyXVtDSDJdNSlbQ0gyXVtDSF03W0NIMl1bQ0gyXTc=

>  <s_epik_cmdline>  (93) 
J2VwaWtfcHl0aG9uJywgJy1waHQnLCAnMi4wJywgJy1waCcsICc3LjAnLCAnLXRuJywgJzgnLCAnLW1hJywgJzIwMCcsICctaW1hZScsICc8aW5maWxlLm1hZT4nLCAnLW9tYWUnLCAnPG91dGZpbGUubWFlPic=

>  <r_lp_tautomer_probability>  (93) 
1

>  <r_epik_Ionization_Penalty>  (93) 
1.35339

>  <r_epik_Ionization_Penalty_Charging>  (93) 
0.00628687

>  <r_epik_Ionization_Penalty_Neutral>  (93) 
1.34711

>  <r_epik_State_Penalty>  (93) 
1.46392

>  <r_epik_Charging_Adjusted_Penalty>  (93) 
1.47021

>  <i_epik_Tot_Q>  (93) 
1

>  <i_epik_Tot_abs_Q>  (93) 
1

>  <s_lp_Force_Field>  (93) 
OPLS3e

>  <r_lp_Energy>  (93) 
97.3123

>  <b_lp_Chiralities_Consistent>  (93) 
1

>  <s_lp_Variant>  (93) 
26:0-2

>  <s_i_glide_gridfile>  (93) 
pfpi4k_grid

>  <i_i_glide_lignum>  (93) 
37

>  <i_i_glide_rotatable_bonds>  (93) 
4

>  <r_i_docking_score>  (93) 
-2.46809

>  <r_i_glide_ligand_efficiency>  (93) 
-0.0822698

>  <r_i_glide_ligand_efficiency_sa>  (93) 
-0.255631

>  <r_i_glide_ligand_efficiency_ln>  (93) 
-0.560778

>  <r_i_glide_gscore>  (93) 
-2.46809

>  <r_i_glide_lipo>  (93) 
-0.0644103

>  <r_i_glide_hbond>  (93) 
0

>  <r_i_glide_metal>  (93) 
-0

>  <r_i_glide_rewards>  (93) 
-0.60302

>  <r_i_glide_evdw>  (93) 
-16.008

>  <r_i_glide_ecoul>  (93) 
-8.16547

>  <r_i_glide_erotb>  (93) 
0.232741

>  <r_i_glide_esite>  (93) 
-0.00818167

>  <r_i_glide_emodel>  (93) 
-29.4611

>  <r_i_glide_energy>  (93) 
-24.1735

>  <r_i_glide_einternal>  (93) 
0.173469

>  <r_i_glide_intrahb_reward>  (93) 
-0

>  <i_i_glide_confnum>  (93) 
2

>  <i_i_glide_posenum>  (93) 
35

>  <r_i_glide_eff_state_penalty>  (93) 
0

>  <ligand_id>  (93) 
26

>  <original_smiles>  (93) 
COC12CCN(C)CC3(CC1)C1Cc4ccc(O)c5c4C3(CCN1CC1CC1)C2O5

>  <smiles>  (93) 
[H]Oc1c([H])c([H])c2c3c1OC1([H])C4(OC([H])([H])[H])C([H])([H])C([H])([H])N(C([H])([H])[H])C([H])([H])C5(C([H])([H])C4([H])[H])C31C([H])([H])C([H])([H])[N+]([H])(C([H])([H])C1([H])C([H])([H])C1([H])[H])C5([H])C2([H])[H]

$$$$
26:1:2
     RDKit          3D

 65 71  0  0  1  0  0  0  0  0999 V2000
    1.9914    2.4538    9.6712 C   0  0  0  0  0  0  0  0  0  0  0  0
    1.6708    1.4435    8.7178 O   0  0  0  0  0  0  0  0  0  0  0  0
    2.4349    1.3331    7.5085 C   0  0  2  0  0  0  0  0  0  0  0  0
    3.8373    0.8384    7.9540 C   0  0  0  0  0  0  0  0  0  0  0  0
    4.6608    0.0135    6.9572 C   0  0  0  0  0  0  0  0  0  0  0  0
    5.1628    0.8349    5.8615 N   0  0  0  0  0  0  0  0  0  0  0  0
    6.5375    0.4253    5.5695 C   0  0  0  0  0  0  0  0  0  0  0  0
    4.3644    0.6465    4.6480 C   0  0  0  0  0  0  0  0  0  0  0  0
    2.9332    1.2995    4.5651 C   0  0  1  0  0  0  0  0  0  0  0  0
    2.9925    2.6811    5.3019 C   0  0  0  0  0  0  0  0  0  0  0  0
    2.4700    2.6956    6.7636 C   0  0  0  0  0  0  0  0  0  0  0  0
    2.5691    1.4549    3.0251 C   0  0  2  0  0  0  0  0  0  0  0  0
    1.2740    2.2652    2.7854 C   0  0  0  0  0  0  0  0  0  0  0  0
    0.1196    1.9639    3.7317 C   0  0  0  0  0  0  0  0  0  0  0  0
   -1.1893    2.4714    3.6611 C   0  0  0  0  0  0  0  0  0  0  0  0
   -2.0970    2.2067    4.7139 C   0  0  0  0  0  0  0  0  0  0  0  0
   -1.6948    1.4719    5.8591 C   0  0  0  0  0  0  0  0  0  0  0  0
   -2.5734    1.2518    6.8781 O   0  0  0  0  0  0  0  0  0  0  0  0
   -0.3789    0.9700    5.9476 C   0  0  0  0  0  0  0  0  0  0  0  0
    0.4416    1.1853    4.8628 C   0  0  0  0  0  0  0  0  0  0  0  0
    1.7451    0.4622    5.1330 C   0  0  1  0  0  0  0  0  0  0  0  0
    1.6974   -0.9244    4.4394 C   0  0  0  0  0  0  0  0  0  0  0  0
    1.4666   -0.8069    2.9282 C   0  0  0  0  0  0  0  0  0  0  0  0
    2.4064    0.1513    2.2849 N   0  0  2  0  0  0  0  0  0  0  0  0
    3.6543   -0.4768    1.7726 C   0  0  0  0  0  0  0  0  0  0  0  0
    3.4159   -1.2564    0.4928 C   0  0  0  0  0  0  0  0  0  0  0  0
    3.0086   -2.7200    0.5403 C   0  0  0  0  0  0  0  0  0  0  0  0
    4.3880   -2.3442    0.0766 C   0  0  0  0  0  0  0  0  0  0  0  0
    1.6512    0.2650    6.6861 C   0  0  2  0  0  0  0  0  0  0  0  0
    0.2337    0.3170    6.9755 O   0  0  0  0  0  0  0  0  0  0  0  0
    1.3977    2.2868   10.5715 H   0  0  0  0  0  0  0  0  0  0  0  0
    1.7379    3.4463    9.2998 H   0  0  0  0  0  0  0  0  0  0  0  0
    3.0385    2.4406    9.9731 H   0  0  0  0  0  0  0  0  0  0  0  0
    4.4388    1.6758    8.3094 H   0  0  0  0  0  0  0  0  0  0  0  0
    3.7024    0.1950    8.8256 H   0  0  0  0  0  0  0  0  0  0  0  0
    5.5068   -0.3729    7.5269 H   0  0  0  0  0  0  0  0  0  0  0  0
    4.1362   -0.8731    6.6014 H   0  0  0  0  0  0  0  0  0  0  0  0
    6.9692    0.9973    4.7483 H   0  0  0  0  0  0  0  0  0  0  0  0
    6.5725   -0.6276    5.2969 H   0  0  0  0  0  0  0  0  0  0  0  0
    7.1911    0.5653    6.4314 H   0  0  0  0  0  0  0  0  0  0  0  0
    4.9510    1.1201    3.8614 H   0  0  0  0  0  0  0  0  0  0  0  0
    4.3715   -0.4101    4.4078 H   0  0  0  0  0  0  0  0  0  0  0  0
    4.0110    3.0707    5.2784 H   0  0  0  0  0  0  0  0  0  0  0  0
    2.4300    3.4480    4.7714 H   0  0  0  0  0  0  0  0  0  0  0  0
    1.4459    3.0661    6.7322 H   0  0  0  0  0  0  0  0  0  0  0  0
    3.0222    3.4434    7.3333 H   0  0  0  0  0  0  0  0  0  0  0  0
    3.3591    2.0157    2.5246 H   0  0  0  0  0  0  0  0  0  0  0  0
    1.4847    3.3292    2.8692 H   0  0  0  0  0  0  0  0  0  0  0  0
    0.9233    2.1391    1.7587 H   0  0  0  0  0  0  0  0  0  0  0  0
   -1.4886    3.0735    2.8119 H   0  0  0  0  0  0  0  0  0  0  0  0
   -3.0988    2.5880    4.6310 H   0  0  0  0  0  0  0  0  0  0  0  0
   -3.3598    1.7680    6.7854 H   0  0  0  0  0  0  0  0  0  0  0  0
    2.6088   -1.4944    4.6365 H   0  0  0  0  0  0  0  0  0  0  0  0
    0.8955   -1.5299    4.8606 H   0  0  0  0  0  0  0  0  0  0  0  0
    1.5219   -1.7951    2.4788 H   0  0  0  0  0  0  0  0  0  0  0  0
    0.4430   -0.4850    2.7312 H   0  0  0  0  0  0  0  0  0  0  0  0
    4.4050    0.2832    1.5531 H   0  0  0  0  0  0  0  0  0  0  0  0
    4.0732   -1.1620    2.5055 H   0  0  0  0  0  0  0  0  0  0  0  0
    3.0172   -0.6595   -0.3304 H   0  0  0  0  0  0  0  0  0  0  0  0
    2.9284   -3.2017    1.5143 H   0  0  0  0  0  0  0  0  0  0  0  0
    2.2827   -3.0462   -0.2041 H   0  0  0  0  0  0  0  0  0  0  0  0
    4.5898   -2.4795   -0.9842 H   0  0  0  0  0  0  0  0  0  0  0  0
    5.2163   -2.5766    0.7439 H   0  0  0  0  0  0  0  0  0  0  0  0
    1.9740   -0.7321    6.9927 H   0  0  0  0  0  0  0  0  0  0  0  0
    1.9297    0.4176    1.4304 H   0  0  0  0  0  0  0  0  0  0  0  0
  1  2  1  0
  1 31  1  0
  1 32  1  0
  1 33  1  0
  3  2  1  1
  3 11  1  0
  3 29  1  0
  3  4  1  0
  4  5  1  0
  4 34  1  0
  4 35  1  0
  5  6  1  0
  5 36  1  0
  5 37  1  0
  6  7  1  0
  6  8  1  0
  7 38  1  0
  7 39  1  0
  7 40  1  0
  9  8  1  6
  8 41  1  0
  8 42  1  0
  9 21  1  0
  9 10  1  0
  9 12  1  0
 10 11  1  0
 10 43  1  0
 10 44  1  0
 11 45  1  0
 11 46  1  0
 12 24  1  0
 12 13  1  0
 12 47  1  6
 13 14  1  0
 13 48  1  0
 13 49  1  0
 14 20  2  0
 14 15  1  0
 15 16  2  0
 15 50  1  0
 16 17  1  0
 16 51  1  0
 17 18  1  0
 17 19  2  0
 18 52  1  0
 19 30  1  0
 19 20  1  0
 20 21  1  0
 21 22  1  6
 21 29  1  0
 22 23  1  0
 22 53  1  0
 22 54  1  0
 23 24  1  0
 23 55  1  0
 23 56  1  0
 24 25  1  0
 24 65  1  6
 25 26  1  0
 25 57  1  0
 25 58  1  0
 26 28  1  0
 26 27  1  0
 26 59  1  0
 27 28  1  0
 27 60  1  0
 27 61  1  0
 28 62  1  0
 28 63  1  0
 29 30  1  0
 29 64  1  6
M  CHG  1  24   1
M  END
>  <i_m_ct_stereo_status>  (94) 
1

>  <s_m_source_file>  (94) 
/var/tmp/pbs.5076255.sched01/tmp6yc3ji7b/0haed4tc5.sdf

>  <i_m_source_file_index>  (94) 
37

>  <i_lp_mmshare_version>  (94) 
48012

>  <i_f3d_flags>  (94) 
0

>  <s_epik_input>  (94) 
W0NIM11OKFtDSDJdMSlbQ0gyXVtDSDJdW0NAQF0oT1tDSDNdKShbQ0gyXVtDSDJdMilbQ0BIXTNPYzRjKFtPSF0pW2NIXVtjSF1jKGM0W0NAQF0zNVtDQF0xMjYpW0NIMl1bQ0BASF02TihbQ0gyXVtDSDJdNSlbQ0gyXVtDSF03W0NIMl1bQ0gyXTc=

>  <s_epik_cmdline>  (94) 
J2VwaWtfcHl0aG9uJywgJy1waHQnLCAnMi4wJywgJy1waCcsICc3LjAnLCAnLXRuJywgJzgnLCAnLW1hJywgJzIwMCcsICctaW1hZScsICc8aW5maWxlLm1hZT4nLCAnLW9tYWUnLCAnPG91dGZpbGUubWFlPic=

>  <r_lp_tautomer_probability>  (94) 
1

>  <r_epik_Ionization_Penalty>  (94) 
1.35339

>  <r_epik_Ionization_Penalty_Charging>  (94) 
0.00628687

>  <r_epik_Ionization_Penalty_Neutral>  (94) 
1.34711

>  <r_epik_State_Penalty>  (94) 
1.46392

>  <r_epik_Charging_Adjusted_Penalty>  (94) 
1.47021

>  <i_epik_Tot_Q>  (94) 
1

>  <i_epik_Tot_abs_Q>  (94) 
1

>  <s_lp_Force_Field>  (94) 
OPLS3e

>  <r_lp_Energy>  (94) 
97.3123

>  <b_lp_Chiralities_Consistent>  (94) 
1

>  <s_lp_Variant>  (94) 
26:0-2

>  <s_i_glide_gridfile>  (94) 
pfpi4k_grid

>  <i_i_glide_lignum>  (94) 
37

>  <i_i_glide_rotatable_bonds>  (94) 
4

>  <r_i_docking_score>  (94) 
-2.42704

>  <r_i_glide_ligand_efficiency>  (94) 
-0.0809013

>  <r_i_glide_ligand_efficiency_sa>  (94) 
-0.251379

>  <r_i_glide_ligand_efficiency_ln>  (94) 
-0.55145

>  <r_i_glide_gscore>  (94) 
-2.42704

>  <r_i_glide_lipo>  (94) 
-0.190677

>  <r_i_glide_hbond>  (94) 
0

>  <r_i_glide_metal>  (94) 
-0

>  <r_i_glide_rewards>  (94) 
-0.60302

>  <r_i_glide_evdw>  (94) 
-17.7411

>  <r_i_glide_ecoul>  (94) 
-6.4259

>  <r_i_glide_erotb>  (94) 
0.232741

>  <r_i_glide_esite>  (94) 
-0.0151466

>  <r_i_glide_emodel>  (94) 
-29.1788

>  <r_i_glide_energy>  (94) 
-24.1669

>  <r_i_glide_einternal>  (94) 
0.227552

>  <r_i_glide_intrahb_reward>  (94) 
-0

>  <i_i_glide_confnum>  (94) 
1

>  <i_i_glide_posenum>  (94) 
28

>  <r_i_glide_eff_state_penalty>  (94) 
0

>  <ligand_id>  (94) 
26

>  <original_smiles>  (94) 
COC12CCN(C)CC3(CC1)C1Cc4ccc(O)c5c4C3(CCN1CC1CC1)C2O5

>  <smiles>  (94) 
[H]Oc1c([H])c([H])c2c3c1OC1([H])C4(OC([H])([H])[H])C([H])([H])C([H])([H])N(C([H])([H])[H])C([H])([H])C5(C([H])([H])C4([H])[H])C31C([H])([H])C([H])([H])[N+]([H])(C([H])([H])C1([H])C([H])([H])C1([H])[H])C5([H])C2([H])[H]

$$$$
26:2:0
     RDKit          3D

 65 71  0  0  1  0  0  0  0  0999 V2000
    0.6765   -7.6414   10.4327 C   0  0  0  0  0  0  0  0  0  0  0  0
    0.2452   -7.0351    9.2159 O   0  0  0  0  0  0  0  0  0  0  0  0
    0.8138   -7.4665    7.9638 C   0  0  2  0  0  0  0  0  0  0  0  0
    0.2216   -8.8833    7.7429 C   0  0  0  0  0  0  0  0  0  0  0  0
    0.0235   -9.3639    6.3003 C   0  0  0  0  0  0  0  0  0  0  0  0
    1.3096   -9.6736    5.6337 N   0  0  1  0  0  0  0  0  0  0  0  0
    1.2565  -10.9834    4.9235 C   0  0  0  0  0  0  0  0  0  0  0  0
    1.7923   -8.5866    4.7306 C   0  0  0  0  0  0  0  0  0  0  0  0
    2.3080   -7.2461    5.3886 C   0  0  1  0  0  0  0  0  0  0  0  0
    3.1246   -7.5988    6.6735 C   0  0  0  0  0  0  0  0  0  0  0  0
    2.3694   -7.4532    8.0235 C   0  0  0  0  0  0  0  0  0  0  0  0
    3.2042   -6.5514    4.2936 C   0  0  2  0  0  0  0  0  0  0  0  0
    3.9128   -5.2589    4.7869 C   0  0  0  0  0  0  0  0  0  0  0  0
    3.1503   -4.3656    5.7446 C   0  0  0  0  0  0  0  0  0  0  0  0
    3.5747   -3.1466    6.2950 C   0  0  0  0  0  0  0  0  0  0  0  0
    2.7725   -2.5012    7.2680 C   0  0  0  0  0  0  0  0  0  0  0  0
    1.5744   -3.0971    7.7353 C   0  0  0  0  0  0  0  0  0  0  0  0
    0.8392   -2.4802    8.7050 O   0  0  0  0  0  0  0  0  0  0  0  0
    1.1558   -4.3377    7.2104 C   0  0  0  0  0  0  0  0  0  0  0  0
    1.9300   -4.8840    6.2043 C   0  0  0  0  0  0  0  0  0  0  0  0
    1.2521   -6.1471    5.7289 C   0  0  1  0  0  0  0  0  0  0  0  0
    0.4150   -5.8267    4.4667 C   0  0  0  0  0  0  0  0  0  0  0  0
    1.2871   -5.3717    3.2849 C   0  0  0  0  0  0  0  0  0  0  0  0
    2.4031   -6.2951    3.0753 N   0  0  0  0  0  0  0  0  0  0  0  0
    3.1985   -5.9062    1.9073 C   0  0  0  0  0  0  0  0  0  0  0  0
    3.9418   -7.0958    1.3452 C   0  0  0  0  0  0  0  0  0  0  0  0
    5.4495   -7.0684    1.2480 C   0  0  0  0  0  0  0  0  0  0  0  0
    4.6148   -6.9915   -0.0030 C   0  0  0  0  0  0  0  0  0  0  0  0
    0.3002   -6.4053    6.9364 C   0  0  2  0  0  0  0  0  0  0  0  0
    0.1068   -5.1257    7.5689 O   0  0  0  0  0  0  0  0  0  0  0  0
    0.0693   -7.2542   11.2513 H   0  0  0  0  0  0  0  0  0  0  0  0
    1.7131   -7.3977   10.6639 H   0  0  0  0  0  0  0  0  0  0  0  0
    0.5553   -8.7237   10.4263 H   0  0  0  0  0  0  0  0  0  0  0  0
    0.8065   -9.6269    8.2897 H   0  0  0  0  0  0  0  0  0  0  0  0
   -0.7717   -8.9129    8.1896 H   0  0  0  0  0  0  0  0  0  0  0  0
   -0.5640  -10.2759    6.3956 H   0  0  0  0  0  0  0  0  0  0  0  0
   -0.5912   -8.6969    5.6960 H   0  0  0  0  0  0  0  0  0  0  0  0
    0.5372  -10.9701    4.1027 H   0  0  0  0  0  0  0  0  0  0  0  0
    0.9549  -11.7796    5.6030 H   0  0  0  0  0  0  0  0  0  0  0  0
    2.2384  -11.2546    4.5266 H   0  0  0  0  0  0  0  0  0  0  0  0
    2.6467   -9.0209    4.2167 H   0  0  0  0  0  0  0  0  0  0  0  0
    1.0686   -8.4308    3.9365 H   0  0  0  0  0  0  0  0  0  0  0  0
    3.5218   -8.6097    6.5978 H   0  0  0  0  0  0  0  0  0  0  0  0
    4.0203   -6.9798    6.7469 H   0  0  0  0  0  0  0  0  0  0  0  0
    2.6510   -6.4894    8.4489 H   0  0  0  0  0  0  0  0  0  0  0  0
    2.7421   -8.1977    8.7277 H   0  0  0  0  0  0  0  0  0  0  0  0
    3.9837   -7.2573    4.0025 H   0  0  0  0  0  0  0  0  0  0  0  0
    4.8185   -5.5585    5.3053 H   0  0  0  0  0  0  0  0  0  0  0  0
    4.2729   -4.6200    3.9881 H   0  0  0  0  0  0  0  0  0  0  0  0
    4.5124   -2.7066    5.9865 H   0  0  0  0  0  0  0  0  0  0  0  0
    3.1010   -1.5552    7.6664 H   0  0  0  0  0  0  0  0  0  0  0  0
    1.3037   -1.7553    9.0944 H   0  0  0  0  0  0  0  0  0  0  0  0
   -0.1748   -6.6934    4.1687 H   0  0  0  0  0  0  0  0  0  0  0  0
   -0.3215   -5.0535    4.6879 H   0  0  0  0  0  0  0  0  0  0  0  0
    0.6753   -5.3544    2.3857 H   0  0  0  0  0  0  0  0  0  0  0  0
    1.6383   -4.3536    3.4428 H   0  0  0  0  0  0  0  0  0  0  0  0
    2.5417   -5.5303    1.1270 H   0  0  0  0  0  0  0  0  0  0  0  0
    3.8993   -5.0971    2.0988 H   0  0  0  0  0  0  0  0  0  0  0  0
    3.4667   -8.0564    1.5432 H   0  0  0  0  0  0  0  0  0  0  0  0
    5.9618   -6.1611    1.5672 H   0  0  0  0  0  0  0  0  0  0  0  0
    5.9751   -8.0003    1.4403 H   0  0  0  0  0  0  0  0  0  0  0  0
    4.6016   -7.8740   -0.6387 H   0  0  0  0  0  0  0  0  0  0  0  0
    4.5638   -6.0388   -0.5309 H   0  0  0  0  0  0  0  0  0  0  0  0
   -0.6776   -6.6504    6.5544 H   0  0  0  0  0  0  0  0  0  0  0  0
    1.9942   -9.8080    6.3727 H   0  0  0  0  0  0  0  0  0  0  0  0
  1  2  1  0
  1 31  1  0
  1 32  1  0
  1 33  1  0
  3  2  1  1
  3 11  1  0
  3 29  1  0
  3  4  1  0
  4  5  1  0
  4 34  1  0
  4 35  1  0
  5  6  1  0
  5 36  1  0
  5 37  1  0
  6  7  1  0
  6  8  1  0
  6 65  1  1
  7 38  1  0
  7 39  1  0
  7 40  1  0
  9  8  1  6
  8 41  1  0
  8 42  1  0
  9 21  1  0
  9 10  1  0
  9 12  1  0
 10 11  1  0
 10 43  1  0
 10 44  1  0
 11 45  1  0
 11 46  1  0
 12 24  1  0
 12 13  1  0
 12 47  1  6
 13 14  1  0
 13 48  1  0
 13 49  1  0
 14 20  2  0
 14 15  1  0
 15 16  2  0
 15 50  1  0
 16 17  1  0
 16 51  1  0
 17 18  1  0
 17 19  2  0
 18 52  1  0
 19 30  1  0
 19 20  1  0
 20 21  1  0
 21 22  1  6
 21 29  1  0
 22 23  1  0
 22 53  1  0
 22 54  1  0
 23 24  1  0
 23 55  1  0
 23 56  1  0
 24 25  1  0
 25 26  1  0
 25 57  1  0
 25 58  1  0
 26 28  1  0
 26 27  1  0
 26 59  1  0
 27 28  1  0
 27 60  1  0
 27 61  1  0
 28 62  1  0
 28 63  1  0
 29 30  1  0
 29 64  1  6
M  CHG  1   6   1
M  END
>  <i_m_ct_stereo_status>  (95) 
1

>  <s_m_source_file>  (95) 
/var/tmp/pbs.5076255.sched01/tmp6yc3ji7b/0haed4tc5.sdf

>  <i_m_source_file_index>  (95) 
38

>  <i_lp_mmshare_version>  (95) 
48012

>  <i_f3d_flags>  (95) 
0

>  <s_epik_input>  (95) 
W0NIM11OKFtDSDJdMSlbQ0gyXVtDSDJdW0NAQF0oT1tDSDNdKShbQ0gyXVtDSDJdMilbQ0BIXTNPYzRjKFtPSF0pW2NIXVtjSF1jKGM0W0NAQF0zNVtDQF0xMjYpW0NIMl1bQ0BASF02TihbQ0gyXVtDSDJdNSlbQ0gyXVtDSF03W0NIMl1bQ0gyXTc=

>  <s_epik_cmdline>  (95) 
J2VwaWtfcHl0aG9uJywgJy1waHQnLCAnMi4wJywgJy1waCcsICc3LjAnLCAnLXRuJywgJzgnLCAnLW1hJywgJzIwMCcsICctaW1hZScsICc8aW5maWxlLm1hZT4nLCAnLW9tYWUnLCAnPG91dGZpbGUubWFlPic=

>  <r_epik_Ionization_Penalty>  (95) 
1.42277

>  <r_epik_Ionization_Penalty_Charging>  (95) 
0.00769946

>  <r_epik_Ionization_Penalty_Neutral>  (95) 
1.41507

>  <r_epik_State_Penalty>  (95) 
1.56332

>  <r_epik_Charging_Adjusted_Penalty>  (95) 
1.57102

>  <i_epik_Tot_Q>  (95) 
1

>  <i_epik_Tot_abs_Q>  (95) 
1

>  <s_lp_Force_Field>  (95) 
OPLS3e

>  <r_lp_Energy>  (95) 
103.857

>  <b_lp_Chiralities_Consistent>  (95) 
1

>  <s_lp_Variant>  (95) 
26:0-3

>  <s_i_glide_gridfile>  (95) 
pfpi4k_grid

>  <i_i_glide_lignum>  (95) 
38

>  <i_i_glide_rotatable_bonds>  (95) 
4

>  <r_i_docking_score>  (95) 
-2.57768

>  <r_i_glide_ligand_efficiency>  (95) 
-0.0859226

>  <r_i_glide_ligand_efficiency_sa>  (95) 
-0.266982

>  <r_i_glide_ligand_efficiency_ln>  (95) 
-0.585677

>  <r_i_glide_gscore>  (95) 
-2.57768

>  <r_i_glide_lipo>  (95) 
-0.247997

>  <r_i_glide_hbond>  (95) 
-0.258907

>  <r_i_glide_metal>  (95) 
-0

>  <r_i_glide_rewards>  (95) 
-0.60302

>  <r_i_glide_evdw>  (95) 
-15.1601

>  <r_i_glide_ecoul>  (95) 
-5.90704

>  <r_i_glide_erotb>  (95) 
0.232741

>  <r_i_glide_esite>  (95) 
-0.0564341

>  <r_i_glide_emodel>  (95) 
-25.3524

>  <r_i_glide_energy>  (95) 
-21.0671

>  <r_i_glide_einternal>  (95) 
0.958194

>  <r_i_glide_intrahb_reward>  (95) 
-0

>  <i_i_glide_confnum>  (95) 
3

>  <i_i_glide_posenum>  (95) 
1

>  <r_i_glide_eff_state_penalty>  (95) 
0

>  <ligand_id>  (95) 
26

>  <original_smiles>  (95) 
COC12CCN(C)CC3(CC1)C1Cc4ccc(O)c5c4C3(CCN1CC1CC1)C2O5

>  <smiles>  (95) 
[H]Oc1c([H])c([H])c2c3c1OC1([H])C4(OC([H])([H])[H])C([H])([H])C([H])([H])C5(C([H])(N(C([H])([H])C6([H])C([H])([H])C6([H])[H])C([H])([H])C([H])([H])C315)C2([H])[H])C([H])([H])[N+]([H])(C([H])([H])[H])C([H])([H])C4([H])[H]

$$$$
26:2:1
     RDKit          3D

 65 71  0  0  1  0  0  0  0  0999 V2000
    9.0200   -6.2550    2.5373 C   0  0  0  0  0  0  0  0  0  0  0  0
    7.7613   -5.8945    3.1002 O   0  0  0  0  0  0  0  0  0  0  0  0
    6.6280   -6.7656    2.9473 C   0  0  2  0  0  0  0  0  0  0  0  0
    7.0348   -8.1056    3.6238 C   0  0  0  0  0  0  0  0  0  0  0  0
    5.9238   -8.9750    4.2251 C   0  0  0  0  0  0  0  0  0  0  0  0
    5.0990   -9.6181    3.1792 N   0  0  1  0  0  0  0  0  0  0  0  0
    4.9076  -11.0689    3.4536 C   0  0  0  0  0  0  0  0  0  0  0  0
    3.8005   -8.9310    2.9354 C   0  0  0  0  0  0  0  0  0  0  0  0
    3.8362   -7.5231    2.2215 C   0  0  1  0  0  0  0  0  0  0  0  0
    4.9152   -7.5605    1.0886 C   0  0  0  0  0  0  0  0  0  0  0  0
    6.2874   -6.9174    1.4371 C   0  0  0  0  0  0  0  0  0  0  0  0
    2.3868   -7.3065    1.6434 C   0  0  2  0  0  0  0  0  0  0  0  0
    2.2181   -6.0256    0.7851 C   0  0  0  0  0  0  0  0  0  0  0  0
    2.9955   -4.7975    1.2206 C   0  0  0  0  0  0  0  0  0  0  0  0
    2.9973   -3.5277    0.6146 C   0  0  0  0  0  0  0  0  0  0  0  0
    3.8708   -2.5229    1.0934 C   0  0  0  0  0  0  0  0  0  0  0  0
    4.7996   -2.8016    2.1259 C   0  0  0  0  0  0  0  0  0  0  0  0
    5.6656   -1.8291    2.5291 O   0  0  0  0  0  0  0  0  0  0  0  0
    4.8357   -4.0847    2.7182 C   0  0  0  0  0  0  0  0  0  0  0  0
    3.8972   -4.9990    2.2804 C   0  0  0  0  0  0  0  0  0  0  0  0
    4.0545   -6.2562    3.1153 C   0  0  1  0  0  0  0  0  0  0  0  0
    3.0084   -6.2404    4.2588 C   0  0  0  0  0  0  0  0  0  0  0  0
    1.5595   -6.2774    3.7419 C   0  0  0  0  0  0  0  0  0  0  0  0
    1.3953   -7.3306    2.7380 N   0  0  0  0  0  0  0  0  0  0  0  0
    0.0137   -7.4369    2.2740 C   0  0  0  0  0  0  0  0  0  0  0  0
   -0.7079   -8.4973    3.0660 C   0  0  0  0  0  0  0  0  0  0  0  0
   -0.3657   -9.9467    2.8271 C   0  0  0  0  0  0  0  0  0  0  0  0
   -1.6918   -9.4041    2.3655 C   0  0  0  0  0  0  0  0  0  0  0  0
    5.4881   -6.0202    3.7139 C   0  0  2  0  0  0  0  0  0  0  0  0
    5.6854   -4.5917    3.6568 O   0  0  0  0  0  0  0  0  0  0  0  0
    9.7683   -5.5312    2.8570 H   0  0  0  0  0  0  0  0  0  0  0  0
    9.0018   -6.2401    1.4493 H   0  0  0  0  0  0  0  0  0  0  0  0
    9.3807   -7.2235    2.8796 H   0  0  0  0  0  0  0  0  0  0  0  0
    7.6307   -8.7049    2.9293 H   0  0  0  0  0  0  0  0  0  0  0  0
    7.7020   -7.8731    4.4571 H   0  0  0  0  0  0  0  0  0  0  0  0
    6.4357   -9.7425    4.8076 H   0  0  0  0  0  0  0  0  0  0  0  0
    5.3150   -8.4412    4.9529 H   0  0  0  0  0  0  0  0  0  0  0  0
    4.3417  -11.2271    4.3761 H   0  0  0  0  0  0  0  0  0  0  0  0
    5.8693  -11.5808    3.5567 H   0  0  0  0  0  0  0  0  0  0  0  0
    4.3724  -11.5596    2.6368 H   0  0  0  0  0  0  0  0  0  0  0  0
    3.2598   -9.5990    2.2673 H   0  0  0  0  0  0  0  0  0  0  0  0
    3.2087   -8.9378    3.8461 H   0  0  0  0  0  0  0  0  0  0  0  0
    5.0710   -8.5841    0.7506 H   0  0  0  0  0  0  0  0  0  0  0  0
    4.5564   -7.0544    0.1911 H   0  0  0  0  0  0  0  0  0  0  0  0
    6.2861   -5.9111    1.0190 H   0  0  0  0  0  0  0  0  0  0  0  0
    7.0872   -7.4367    0.9078 H   0  0  0  0  0  0  0  0  0  0  0  0
    2.1415   -8.1576    1.0068 H   0  0  0  0  0  0  0  0  0  0  0  0
    2.5563   -6.2382   -0.2259 H   0  0  0  0  0  0  0  0  0  0  0  0
    1.1721   -5.7550    0.6694 H   0  0  0  0  0  0  0  0  0  0  0  0
    2.3408   -3.3118   -0.2147 H   0  0  0  0  0  0  0  0  0  0  0  0
    3.8371   -1.5447    0.6393 H   0  0  0  0  0  0  0  0  0  0  0  0
    5.5540   -1.0139    2.0672 H   0  0  0  0  0  0  0  0  0  0  0  0
    3.1708   -7.0801    4.9342 H   0  0  0  0  0  0  0  0  0  0  0  0
    3.1434   -5.3541    4.8808 H   0  0  0  0  0  0  0  0  0  0  0  0
    0.8817   -6.4652    4.5747 H   0  0  0  0  0  0  0  0  0  0  0  0
    1.2893   -5.3021    3.3376 H   0  0  0  0  0  0  0  0  0  0  0  0
   -0.5207   -6.4939    2.3634 H   0  0  0  0  0  0  0  0  0  0  0  0
   -0.0224   -7.7203    1.2213 H   0  0  0  0  0  0  0  0  0  0  0  0
   -0.9587   -8.2172    4.0892 H   0  0  0  0  0  0  0  0  0  0  0  0
    0.3959  -10.1519    2.0790 H   0  0  0  0  0  0  0  0  0  0  0  0
   -0.3590  -10.6108    3.6849 H   0  0  0  0  0  0  0  0  0  0  0  0
   -2.5738   -9.7270    2.9112 H   0  0  0  0  0  0  0  0  0  0  0  0
   -1.8217   -9.2624    1.2950 H   0  0  0  0  0  0  0  0  0  0  0  0
    5.5402   -6.2711    4.7774 H   0  0  0  0  0  0  0  0  0  0  0  0
    5.6254   -9.5832    2.3139 H   0  0  0  0  0  0  0  0  0  0  0  0
  1  2  1  0
  1 31  1  0
  1 32  1  0
  1 33  1  0
  3  2  1  6
  3 11  1  0
  3 29  1  0
  3  4  1  0
  4  5  1  0
  4 34  1  0
  4 35  1  0
  5  6  1  0
  5 36  1  0
  5 37  1  0
  6  7  1  0
  6  8  1  0
  6 65  1  6
  7 38  1  0
  7 39  1  0
  7 40  1  0
  9  8  1  1
  8 41  1  0
  8 42  1  0
  9 21  1  0
  9 10  1  0
  9 12  1  0
 10 11  1  0
 10 43  1  0
 10 44  1  0
 11 45  1  0
 11 46  1  0
 12 24  1  0
 12 13  1  0
 12 47  1  6
 13 14  1  0
 13 48  1  0
 13 49  1  0
 14 20  2  0
 14 15  1  0
 15 16  2  0
 15 50  1  0
 16 17  1  0
 16 51  1  0
 17 18  1  0
 17 19  2  0
 18 52  1  0
 19 30  1  0
 19 20  1  0
 20 21  1  0
 21 22  1  1
 21 29  1  0
 22 23  1  0
 22 53  1  0
 22 54  1  0
 23 24  1  0
 23 55  1  0
 23 56  1  0
 24 25  1  0
 25 26  1  0
 25 57  1  0
 25 58  1  0
 26 28  1  0
 26 27  1  0
 26 59  1  0
 27 28  1  0
 27 60  1  0
 27 61  1  0
 28 62  1  0
 28 63  1  0
 29 30  1  0
 29 64  1  1
M  CHG  1   6   1
M  END
>  <i_m_ct_stereo_status>  (96) 
1

>  <s_m_source_file>  (96) 
/var/tmp/pbs.5076255.sched01/tmp6yc3ji7b/0haed4tc5.sdf

>  <i_m_source_file_index>  (96) 
38

>  <i_lp_mmshare_version>  (96) 
48012

>  <i_f3d_flags>  (96) 
0

>  <s_epik_input>  (96) 
W0NIM11OKFtDSDJdMSlbQ0gyXVtDSDJdW0NAQF0oT1tDSDNdKShbQ0gyXVtDSDJdMilbQ0BIXTNPYzRjKFtPSF0pW2NIXVtjSF1jKGM0W0NAQF0zNVtDQF0xMjYpW0NIMl1bQ0BASF02TihbQ0gyXVtDSDJdNSlbQ0gyXVtDSF03W0NIMl1bQ0gyXTc=

>  <s_epik_cmdline>  (96) 
J2VwaWtfcHl0aG9uJywgJy1waHQnLCAnMi4wJywgJy1waCcsICc3LjAnLCAnLXRuJywgJzgnLCAnLW1hJywgJzIwMCcsICctaW1hZScsICc8aW5maWxlLm1hZT4nLCAnLW9tYWUnLCAnPG91dGZpbGUubWFlPic=

>  <r_epik_Ionization_Penalty>  (96) 
1.42277

>  <r_epik_Ionization_Penalty_Charging>  (96) 
0.00769946

>  <r_epik_Ionization_Penalty_Neutral>  (96) 
1.41507

>  <r_epik_State_Penalty>  (96) 
1.56332

>  <r_epik_Charging_Adjusted_Penalty>  (96) 
1.57102

>  <i_epik_Tot_Q>  (96) 
1

>  <i_epik_Tot_abs_Q>  (96) 
1

>  <s_lp_Force_Field>  (96) 
OPLS3e

>  <r_lp_Energy>  (96) 
103.857

>  <b_lp_Chiralities_Consistent>  (96) 
1

>  <s_lp_Variant>  (96) 
26:0-3

>  <s_i_glide_gridfile>  (96) 
pfpi4k_grid

>  <i_i_glide_lignum>  (96) 
38

>  <i_i_glide_rotatable_bonds>  (96) 
4

>  <r_i_docking_score>  (96) 
-2.34581

>  <r_i_glide_ligand_efficiency>  (96) 
-0.0781937

>  <r_i_glide_ligand_efficiency_sa>  (96) 
-0.242966

>  <r_i_glide_ligand_efficiency_ln>  (96) 
-0.532994

>  <r_i_glide_gscore>  (96) 
-2.34581

>  <r_i_glide_lipo>  (96) 
-0.580669

>  <r_i_glide_hbond>  (96) 
0

>  <r_i_glide_metal>  (96) 
-0

>  <r_i_glide_rewards>  (96) 
-0.60302

>  <r_i_glide_evdw>  (96) 
-22.1943

>  <r_i_glide_ecoul>  (96) 
-1.82134

>  <r_i_glide_erotb>  (96) 
0.232741

>  <r_i_glide_esite>  (96) 
-0.0119451

>  <r_i_glide_emodel>  (96) 
-27.0813

>  <r_i_glide_energy>  (96) 
-24.0156

>  <r_i_glide_einternal>  (96) 
2.44264

>  <r_i_glide_intrahb_reward>  (96) 
-0

>  <i_i_glide_confnum>  (96) 
3

>  <i_i_glide_posenum>  (96) 
2

>  <r_i_glide_eff_state_penalty>  (96) 
0

>  <ligand_id>  (96) 
26

>  <original_smiles>  (96) 
COC12CCN(C)CC3(CC1)C1Cc4ccc(O)c5c4C3(CCN1CC1CC1)C2O5

>  <smiles>  (96) 
[H]Oc1c([H])c([H])c2c3c1OC1([H])C4(OC([H])([H])[H])C([H])([H])C([H])([H])C5(C([H])(N(C([H])([H])C6([H])C([H])([H])C6([H])[H])C([H])([H])C([H])([H])C315)C2([H])[H])C([H])([H])[N+]([H])(C([H])([H])[H])C([H])([H])C4([H])[H]

$$$$
26:2:2
     RDKit          3D

 65 71  0  0  1  0  0  0  0  0999 V2000
   -0.3788   -2.8727   10.5819 C   0  0  0  0  0  0  0  0  0  0  0  0
   -0.7383   -3.4810    9.3422 O   0  0  0  0  0  0  0  0  0  0  0  0
    0.1594   -4.4249    8.7235 C   0  0  2  0  0  0  0  0  0  0  0  0
    0.2253   -5.6433    9.6889 C   0  0  0  0  0  0  0  0  0  0  0  0
    0.5079   -7.0284    9.0839 C   0  0  0  0  0  0  0  0  0  0  0  0
    1.9109   -7.1644    8.6355 N   0  0  1  0  0  0  0  0  0  0  0  0
    2.5166   -8.4398    9.1131 C   0  0  0  0  0  0  0  0  0  0  0  0
    2.0897   -6.9904    7.1665 C   0  0  0  0  0  0  0  0  0  0  0  0
    1.9022   -5.5414    6.5691 C   0  0  1  0  0  0  0  0  0  0  0  0
    2.5379   -4.5061    7.5524 C   0  0  0  0  0  0  0  0  0  0  0  0
    1.5467   -3.7602    8.4870 C   0  0  0  0  0  0  0  0  0  0  0  0
    2.6461   -5.5582    5.1772 C   0  0  2  0  0  0  0  0  0  0  0  0
    2.6907   -4.1890    4.4473 C   0  0  0  0  0  0  0  0  0  0  0  0
    1.4744   -3.2916    4.5959 C   0  0  0  0  0  0  0  0  0  0  0  0
    1.2779   -2.0198    4.0276 C   0  0  0  0  0  0  0  0  0  0  0  0
    0.1263   -1.2680    4.3674 C   0  0  0  0  0  0  0  0  0  0  0  0
   -0.7990   -1.7512    5.3253 C   0  0  0  0  0  0  0  0  0  0  0  0
   -1.8903   -1.0002    5.6565 O   0  0  0  0  0  0  0  0  0  0  0  0
   -0.5885   -3.0066    5.9366 C   0  0  0  0  0  0  0  0  0  0  0  0
    0.4952   -3.7433    5.4981 C   0  0  0  0  0  0  0  0  0  0  0  0
    0.4503   -5.0897    6.1966 C   0  0  1  0  0  0  0  0  0  0  0  0
   -0.1840   -6.1436    5.2533 C   0  0  0  0  0  0  0  0  0  0  0  0
    0.6457   -6.3792    3.9802 C   0  0  0  0  0  0  0  0  0  0  0  0
    2.0569   -6.6012    4.3119 N   0  0  0  0  0  0  0  0  0  0  0  0
    2.8437   -6.8877    3.1101 C   0  0  0  0  0  0  0  0  0  0  0  0
    2.7695   -8.3621    2.7823 C   0  0  0  0  0  0  0  0  0  0  0  0
    3.3815   -8.8834    1.5002 C   0  0  0  0  0  0  0  0  0  0  0  0
    1.8841   -8.8740    1.6707 C   0  0  0  0  0  0  0  0  0  0  0  0
   -0.5441   -4.7620    7.3698 C   0  0  2  0  0  0  0  0  0  0  0  0
   -1.3117   -3.6275    6.9111 O   0  0  0  0  0  0  0  0  0  0  0  0
   -1.2315   -2.3039   10.9544 H   0  0  0  0  0  0  0  0  0  0  0  0
    0.4467   -2.1734   10.4586 H   0  0  0  0  0  0  0  0  0  0  0  0
   -0.1221   -3.5941   11.3563 H   0  0  0  0  0  0  0  0  0  0  0  0
    0.9445   -5.4456   10.4874 H   0  0  0  0  0  0  0  0  0  0  0  0
   -0.7381   -5.7236   10.1928 H   0  0  0  0  0  0  0  0  0  0  0  0
    0.3185   -7.7475    9.8816 H   0  0  0  0  0  0  0  0  0  0  0  0
   -0.1897   -7.3041    8.2956 H   0  0  0  0  0  0  0  0  0  0  0  0
    2.0173   -9.3080    8.6758 H   0  0  0  0  0  0  0  0  0  0  0  0
    2.4502   -8.5247   10.2011 H   0  0  0  0  0  0  0  0  0  0  0  0
    3.5766   -8.4946    8.8566 H   0  0  0  0  0  0  0  0  0  0  0  0
    3.1269   -7.2630    6.9828 H   0  0  0  0  0  0  0  0  0  0  0  0
    1.5257   -7.7542    6.6394 H   0  0  0  0  0  0  0  0  0  0  0  0
    3.3144   -4.9801    8.1508 H   0  0  0  0  0  0  0  0  0  0  0  0
    3.0822   -3.7355    7.0046 H   0  0  0  0  0  0  0  0  0  0  0  0
    1.3507   -2.7889    8.0343 H   0  0  0  0  0  0  0  0  0  0  0  0
    2.0403   -3.5338    9.4324 H   0  0  0  0  0  0  0  0  0  0  0  0
    3.6802   -5.8631    5.3463 H   0  0  0  0  0  0  0  0  0  0  0  0
    3.5291   -3.6214    4.8456 H   0  0  0  0  0  0  0  0  0  0  0  0
    2.9147   -4.2944    3.3873 H   0  0  0  0  0  0  0  0  0  0  0  0
    2.0048   -1.6114    3.3414 H   0  0  0  0  0  0  0  0  0  0  0  0
   -0.0262   -0.3092    3.8957 H   0  0  0  0  0  0  0  0  0  0  0  0
   -1.9440   -0.2048    5.1461 H   0  0  0  0  0  0  0  0  0  0  0  0
   -0.3160   -7.0926    5.7690 H   0  0  0  0  0  0  0  0  0  0  0  0
   -1.1955   -5.8595    4.9738 H   0  0  0  0  0  0  0  0  0  0  0  0
    0.2556   -7.2503    3.4540 H   0  0  0  0  0  0  0  0  0  0  0  0
    0.5307   -5.5347    3.3011 H   0  0  0  0  0  0  0  0  0  0  0  0
    2.5104   -6.2974    2.2550 H   0  0  0  0  0  0  0  0  0  0  0  0
    3.8930   -6.6411    3.2737 H   0  0  0  0  0  0  0  0  0  0  0  0
    2.8954   -9.0096    3.6488 H   0  0  0  0  0  0  0  0  0  0  0  0
    3.8215   -8.1606    0.8148 H   0  0  0  0  0  0  0  0  0  0  0  0
    3.8732   -9.8539    1.5299 H   0  0  0  0  0  0  0  0  0  0  0  0
    1.3956   -9.8344    1.8211 H   0  0  0  0  0  0  0  0  0  0  0  0
    1.3099   -8.1415    1.1052 H   0  0  0  0  0  0  0  0  0  0  0  0
   -1.2777   -5.5572    7.5265 H   0  0  0  0  0  0  0  0  0  0  0  0
    2.4407   -6.4309    9.0928 H   0  0  0  0  0  0  0  0  0  0  0  0
  1  2  1  0
  1 31  1  0
  1 32  1  0
  1 33  1  0
  3  2  1  1
  3 11  1  0
  3 29  1  0
  3  4  1  0
  4  5  1  0
  4 34  1  0
  4 35  1  0
  5  6  1  0
  5 36  1  0
  5 37  1  0
  6  7  1  0
  6  8  1  0
  6 65  1  1
  7 38  1  0
  7 39  1  0
  7 40  1  0
  9  8  1  1
  8 41  1  0
  8 42  1  0
  9 21  1  0
  9 10  1  0
  9 12  1  0
 10 11  1  0
 10 43  1  0
 10 44  1  0
 11 45  1  0
 11 46  1  0
 12 24  1  0
 12 13  1  0
 12 47  1  1
 13 14  1  0
 13 48  1  0
 13 49  1  0
 14 20  2  0
 14 15  1  0
 15 16  2  0
 15 50  1  0
 16 17  1  0
 16 51  1  0
 17 18  1  0
 17 19  2  0
 18 52  1  0
 19 30  1  0
 19 20  1  0
 20 21  1  0
 21 22  1  6
 21 29  1  0
 22 23  1  0
 22 53  1  0
 22 54  1  0
 23 24  1  0
 23 55  1  0
 23 56  1  0
 24 25  1  0
 25 26  1  0
 25 57  1  0
 25 58  1  0
 26 28  1  0
 26 27  1  0
 26 59  1  0
 27 28  1  0
 27 60  1  0
 27 61  1  0
 28 62  1  0
 28 63  1  0
 29 30  1  0
 29 64  1  1
M  CHG  1   6   1
M  END
>  <i_m_ct_stereo_status>  (97) 
1

>  <s_m_source_file>  (97) 
/var/tmp/pbs.5076255.sched01/tmp6yc3ji7b/0haed4tc5.sdf

>  <i_m_source_file_index>  (97) 
38

>  <i_lp_mmshare_version>  (97) 
48012

>  <i_f3d_flags>  (97) 
0

>  <s_epik_input>  (97) 
W0NIM11OKFtDSDJdMSlbQ0gyXVtDSDJdW0NAQF0oT1tDSDNdKShbQ0gyXVtDSDJdMilbQ0BIXTNPYzRjKFtPSF0pW2NIXVtjSF1jKGM0W0NAQF0zNVtDQF0xMjYpW0NIMl1bQ0BASF02TihbQ0gyXVtDSDJdNSlbQ0gyXVtDSF03W0NIMl1bQ0gyXTc=

>  <s_epik_cmdline>  (97) 
J2VwaWtfcHl0aG9uJywgJy1waHQnLCAnMi4wJywgJy1waCcsICc3LjAnLCAnLXRuJywgJzgnLCAnLW1hJywgJzIwMCcsICctaW1hZScsICc8aW5maWxlLm1hZT4nLCAnLW9tYWUnLCAnPG91dGZpbGUubWFlPic=

>  <r_epik_Ionization_Penalty>  (97) 
1.42277

>  <r_epik_Ionization_Penalty_Charging>  (97) 
0.00769946

>  <r_epik_Ionization_Penalty_Neutral>  (97) 
1.41507

>  <r_epik_State_Penalty>  (97) 
1.56332

>  <r_epik_Charging_Adjusted_Penalty>  (97) 
1.57102

>  <i_epik_Tot_Q>  (97) 
1

>  <i_epik_Tot_abs_Q>  (97) 
1

>  <s_lp_Force_Field>  (97) 
OPLS3e

>  <r_lp_Energy>  (97) 
103.857

>  <b_lp_Chiralities_Consistent>  (97) 
1

>  <s_lp_Variant>  (97) 
26:0-3

>  <s_i_glide_gridfile>  (97) 
pfpi4k_grid

>  <i_i_glide_lignum>  (97) 
38

>  <i_i_glide_rotatable_bonds>  (97) 
4

>  <r_i_docking_score>  (97) 
-2.10497

>  <r_i_glide_ligand_efficiency>  (97) 
-0.0701657

>  <r_i_glide_ligand_efficiency_sa>  (97) 
-0.218021

>  <r_i_glide_ligand_efficiency_ln>  (97) 
-0.478273

>  <r_i_glide_gscore>  (97) 
-2.10497

>  <r_i_glide_lipo>  (97) 
-0.0311209

>  <r_i_glide_hbond>  (97) 
-0.147307

>  <r_i_glide_metal>  (97) 
-0

>  <r_i_glide_rewards>  (97) 
-0.60302

>  <r_i_glide_evdw>  (97) 
-18.8706

>  <r_i_glide_ecoul>  (97) 
-4.07483

>  <r_i_glide_erotb>  (97) 
0.232741

>  <r_i_glide_esite>  (97) 
-0.00151024

>  <r_i_glide_emodel>  (97) 
-26.5429

>  <r_i_glide_energy>  (97) 
-22.9454

>  <r_i_glide_einternal>  (97) 
0.800348

>  <r_i_glide_intrahb_reward>  (97) 
-0

>  <i_i_glide_confnum>  (97) 
2

>  <i_i_glide_posenum>  (97) 
13

>  <r_i_glide_eff_state_penalty>  (97) 
0

>  <ligand_id>  (97) 
26

>  <original_smiles>  (97) 
COC12CCN(C)CC3(CC1)C1Cc4ccc(O)c5c4C3(CCN1CC1CC1)C2O5

>  <smiles>  (97) 
[H]Oc1c([H])c([H])c2c3c1OC1([H])C4(OC([H])([H])[H])C([H])([H])C([H])([H])C5(C([H])(N(C([H])([H])C6([H])C([H])([H])C6([H])[H])C([H])([H])C([H])([H])C315)C2([H])[H])C([H])([H])[N+]([H])(C([H])([H])[H])C([H])([H])C4([H])[H]

$$$$
26:3:0
     RDKit          3D

 65 71  0  0  1  0  0  0  0  0999 V2000
    1.9768    2.5016    9.6224 C   0  0  0  0  0  0  0  0  0  0  0  0
    1.6464    1.4614    8.7052 O   0  0  0  0  0  0  0  0  0  0  0  0
    2.3958    1.3038    7.4915 C   0  0  2  0  0  0  0  0  0  0  0  0
    3.7930    0.8144    7.9561 C   0  0  0  0  0  0  0  0  0  0  0  0
    4.5997   -0.0541    6.9863 C   0  0  0  0  0  0  0  0  0  0  0  0
    5.0864    0.7357    5.8320 N   0  0  1  0  0  0  0  0  0  0  0  0
    6.5263    0.4720    5.5832 C   0  0  0  0  0  0  0  0  0  0  0  0
    4.2794    0.5235    4.5942 C   0  0  0  0  0  0  0  0  0  0  0  0
    2.8470    1.1867    4.5252 C   0  0  1  0  0  0  0  0  0  0  0  0
    2.9468    2.5825    5.2338 C   0  0  0  0  0  0  0  0  0  0  0  0
    2.4495    2.6416    6.7041 C   0  0  0  0  0  0  0  0  0  0  0  0
    2.4336    1.3143    2.9899 C   0  0  2  0  0  0  0  0  0  0  0  0
    1.1540    2.1547    2.7720 C   0  0  0  0  0  0  0  0  0  0  0  0
    0.0215    1.8821    3.7468 C   0  0  0  0  0  0  0  0  0  0  0  0
   -1.2867    2.4043    3.6977 C   0  0  0  0  0  0  0  0  0  0  0  0
   -2.1651    2.1600    4.7805 C   0  0  0  0  0  0  0  0  0  0  0  0
   -1.7425    1.4373    5.9264 C   0  0  0  0  0  0  0  0  0  0  0  0
   -2.5794    1.2130    6.9850 O   0  0  0  0  0  0  0  0  0  0  0  0
   -0.4250    0.9318    5.9886 C   0  0  0  0  0  0  0  0  0  0  0  0
    0.3631    1.1241    4.8832 C   0  0  0  0  0  0  0  0  0  0  0  0
    1.6602    0.3836    5.1413 C   0  0  1  0  0  0  0  0  0  0  0  0
    1.5677   -1.0164    4.4841 C   0  0  0  0  0  0  0  0  0  0  0  0
    1.2912   -0.9342    2.9790 C   0  0  0  0  0  0  0  0  0  0  0  0
    2.2162   -0.0009    2.2822 N   0  0  2  0  0  0  0  0  0  0  0  0
    3.4318   -0.6562    1.7288 C   0  0  0  0  0  0  0  0  0  0  0  0
    3.1340   -1.5146    0.5117 C   0  0  0  0  0  0  0  0  0  0  0  0
    4.2352   -2.3424   -0.1127 C   0  0  0  0  0  0  0  0  0  0  0  0
    3.6923   -1.1427   -0.8406 C   0  0  0  0  0  0  0  0  0  0  0  0
    1.6018    0.2200    6.6994 C   0  0  2  0  0  0  0  0  0  0  0  0
    0.1986    0.2859    7.0138 O   0  0  0  0  0  0  0  0  0  0  0  0
    1.3825    2.3725   10.5292 H   0  0  0  0  0  0  0  0  0  0  0  0
    1.7345    3.4847    9.2189 H   0  0  0  0  0  0  0  0  0  0  0  0
    3.0239    2.4850    9.9243 H   0  0  0  0  0  0  0  0  0  0  0  0
    4.4055    1.6638    8.2660 H   0  0  0  0  0  0  0  0  0  0  0  0
    3.6645    0.2104    8.8554 H   0  0  0  0  0  0  0  0  0  0  0  0
    5.4508   -0.4382    7.5533 H   0  0  0  0  0  0  0  0  0  0  0  0
    4.0657   -0.9520    6.6722 H   0  0  0  0  0  0  0  0  0  0  0  0
    6.6135   -0.5799    5.3189 H   0  0  0  0  0  0  0  0  0  0  0  0
    7.1438    0.6655    6.4671 H   0  0  0  0  0  0  0  0  0  0  0  0
    6.9348    1.0775    4.7684 H   0  0  0  0  0  0  0  0  0  0  0  0
    4.8660    0.9668    3.7882 H   0  0  0  0  0  0  0  0  0  0  0  0
    4.2837   -0.5416    4.3842 H   0  0  0  0  0  0  0  0  0  0  0  0
    3.9658    2.9654    5.1783 H   0  0  0  0  0  0  0  0  0  0  0  0
    2.3815    3.3425    4.6990 H   0  0  0  0  0  0  0  0  0  0  0  0
    1.4314    3.0244    6.6776 H   0  0  0  0  0  0  0  0  0  0  0  0
    3.0127    3.3984    7.2489 H   0  0  0  0  0  0  0  0  0  0  0  0
    3.2222    1.8459    2.4506 H   0  0  0  0  0  0  0  0  0  0  0  0
    1.3903    3.2142    2.8403 H   0  0  0  0  0  0  0  0  0  0  0  0
    0.7766    2.0300    1.7579 H   0  0  0  0  0  0  0  0  0  0  0  0
   -1.5960    2.9980    2.8414 H   0  0  0  0  0  0  0  0  0  0  0  0
   -3.1636    2.5491    4.7155 H   0  0  0  0  0  0  0  0  0  0  0  0
    2.4669   -1.6049    4.6619 H   0  0  0  0  0  0  0  0  0  0  0  0
    0.7642   -1.5946    4.9408 H   0  0  0  0  0  0  0  0  0  0  0  0
    1.3288   -1.9345    2.5509 H   0  0  0  0  0  0  0  0  0  0  0  0
    0.2639   -0.6071    2.8068 H   0  0  0  0  0  0  0  0  0  0  0  0
    4.1700    0.0984    1.4499 H   0  0  0  0  0  0  0  0  0  0  0  0
    3.8826   -1.3110    2.4688 H   0  0  0  0  0  0  0  0  0  0  0  0
    2.1830   -2.0407    0.5294 H   0  0  0  0  0  0  0  0  0  0  0  0
    5.2339   -2.2723    0.3131 H   0  0  0  0  0  0  0  0  0  0  0  0
    3.9641   -3.3187   -0.5134 H   0  0  0  0  0  0  0  0  0  0  0  0
    3.0330   -1.3146   -1.6896 H   0  0  0  0  0  0  0  0  0  0  0  0
    4.3155   -0.2560   -0.8927 H   0  0  0  0  0  0  0  0  0  0  0  0
    1.9062   -0.7744    7.0324 H   0  0  0  0  0  0  0  0  0  0  0  0
    1.7127    0.2586    1.4433 H   0  0  0  0  0  0  0  0  0  0  0  0
    5.0329    1.7134    6.0860 H   0  0  0  0  0  0  0  0  0  0  0  0
  1  2  1  0
  1 31  1  0
  1 32  1  0
  1 33  1  0
  3  2  1  1
  3 11  1  0
  3 29  1  0
  3  4  1  0
  4  5  1  0
  4 34  1  0
  4 35  1  0
  5  6  1  0
  5 36  1  0
  5 37  1  0
  6  7  1  0
  6  8  1  0
  6 65  1  1
  7 38  1  0
  7 39  1  0
  7 40  1  0
  9  8  1  6
  8 41  1  0
  8 42  1  0
  9 21  1  0
  9 10  1  0
  9 12  1  0
 10 11  1  0
 10 43  1  0
 10 44  1  0
 11 45  1  0
 11 46  1  0
 12 24  1  0
 12 13  1  0
 12 47  1  6
 13 14  1  0
 13 48  1  0
 13 49  1  0
 14 20  2  0
 14 15  1  0
 15 16  2  0
 15 50  1  0
 16 17  1  0
 16 51  1  0
 17 18  1  0
 17 19  2  0
 19 30  1  0
 19 20  1  0
 20 21  1  0
 21 22  1  6
 21 29  1  0
 22 23  1  0
 22 52  1  0
 22 53  1  0
 23 24  1  0
 23 54  1  0
 23 55  1  0
 24 25  1  0
 24 64  1  6
 25 26  1  0
 25 56  1  0
 25 57  1  0
 26 28  1  0
 26 27  1  0
 26 58  1  0
 27 28  1  0
 27 59  1  0
 27 60  1  0
 28 61  1  0
 28 62  1  0
 29 30  1  0
 29 63  1  6
M  CHG  3   6   1  18  -1  24   1
M  END
>  <i_m_ct_stereo_status>  (98) 
1

>  <s_m_source_file>  (98) 
/var/tmp/pbs.5076255.sched01/tmp6yc3ji7b/0haed4tc5.sdf

>  <i_m_source_file_index>  (98) 
39

>  <i_lp_mmshare_version>  (98) 
48012

>  <i_f3d_flags>  (98) 
0

>  <s_epik_input>  (98) 
W0NIM11OKFtDSDJdMSlbQ0gyXVtDSDJdW0NAQF0oT1tDSDNdKShbQ0gyXVtDSDJdMilbQ0BIXTNPYzRjKFtPSF0pW2NIXVtjSF1jKGM0W0NAQF0zNVtDQF0xMjYpW0NIMl1bQ0BASF02TihbQ0gyXVtDSDJdNSlbQ0gyXVtDSF03W0NIMl1bQ0gyXTc=

>  <s_epik_cmdline>  (98) 
J2VwaWtfcHl0aG9uJywgJy1waHQnLCAnMi4wJywgJy1waCcsICc3LjAnLCAnLXRuJywgJzgnLCAnLW1hJywgJzIwMCcsICctaW1hZScsICc8aW5maWxlLm1hZT4nLCAnLW9tYWUnLCAnPG91dGZpbGUubWFlPic=

>  <r_epik_Ionization_Penalty>  (98) 
2.08211

>  <r_epik_Ionization_Penalty_Charging>  (98) 
2.08211

>  <r_epik_Ionization_Penalty_Neutral>  (98) 
2.79693e-13

>  <r_epik_State_Penalty>  (98) 
2.19711

>  <r_epik_Charging_Adjusted_Penalty>  (98) 
4.27923

>  <i_epik_Tot_Q>  (98) 
1

>  <i_epik_Tot_abs_Q>  (98) 
3

>  <s_lp_Force_Field>  (98) 
OPLS3e

>  <r_lp_Energy>  (98) 
104.524

>  <b_lp_Chiralities_Consistent>  (98) 
1

>  <s_lp_Variant>  (98) 
26:0-4

>  <s_i_glide_gridfile>  (98) 
pfpi4k_grid

>  <i_i_glide_lignum>  (98) 
39

>  <i_i_glide_rotatable_bonds>  (98) 
3

>  <r_i_docking_score>  (98) 
-3.04212

>  <r_i_glide_ligand_efficiency>  (98) 
-0.101404

>  <r_i_glide_ligand_efficiency_sa>  (98) 
-0.315086

>  <r_i_glide_ligand_efficiency_ln>  (98) 
-0.691202

>  <r_i_glide_gscore>  (98) 
-3.04212

>  <r_i_glide_lipo>  (98) 
-0.185879

>  <r_i_glide_hbond>  (98) 
-0.2

>  <r_i_glide_metal>  (98) 
-0

>  <r_i_glide_rewards>  (98) 
-0.90302

>  <r_i_glide_evdw>  (98) 
-16.5455

>  <r_i_glide_ecoul>  (98) 
-7.55804

>  <r_i_glide_erotb>  (98) 
0.232741

>  <r_i_glide_esite>  (98) 
-0.0249751

>  <r_i_glide_emodel>  (98) 
-31.6691

>  <r_i_glide_energy>  (98) 
-24.1036

>  <r_i_glide_einternal>  (98) 
0.491456

>  <r_i_glide_intrahb_reward>  (98) 
-0

>  <i_i_glide_confnum>  (98) 
2

>  <i_i_glide_posenum>  (98) 
17

>  <r_i_glide_eff_state_penalty>  (98) 
0

>  <ligand_id>  (98) 
26

>  <original_smiles>  (98) 
COC12CCN(C)CC3(CC1)C1Cc4ccc(O)c5c4C3(CCN1CC1CC1)C2O5

>  <smiles>  (98) 
[H]c1c([H])c2c3c(c1[O-])OC1([H])C4(OC([H])([H])[H])C([H])([H])C([H])([H])C5(C31C([H])([H])C([H])([H])[N+]([H])(C([H])([H])C1([H])C([H])([H])C1([H])[H])C5([H])C2([H])[H])C([H])([H])[N+]([H])(C([H])([H])[H])C([H])([H])C4([H])[H]

$$$$
26:3:1
     RDKit          3D

 65 71  0  0  1  0  0  0  0  0999 V2000
    0.0035   -3.4025    9.7227 C   0  0  0  0  0  0  0  0  0  0  0  0
   -0.2861   -3.0779    8.3648 O   0  0  0  0  0  0  0  0  0  0  0  0
    0.7687   -3.0932    7.3856 C   0  0  2  0  0  0  0  0  0  0  0  0
    1.1901   -4.5843    7.2547 C   0  0  0  0  0  0  0  0  0  0  0  0
    1.7736   -5.0526    5.9150 C   0  0  0  0  0  0  0  0  0  0  0  0
    3.1242   -4.5044    5.6740 N   0  0  1  0  0  0  0  0  0  0  0  0
    4.0717   -5.5642    5.2365 C   0  0  0  0  0  0  0  0  0  0  0  0
    3.1361   -3.3397    4.7450 C   0  0  0  0  0  0  0  0  0  0  0  0
    2.5787   -1.9579    5.2716 C   0  0  1  0  0  0  0  0  0  0  0  0
    3.0126   -1.8152    6.7713 C   0  0  0  0  0  0  0  0  0  0  0  0
    1.9368   -2.1720    7.8344 C   0  0  0  0  0  0  0  0  0  0  0  0
    3.1823   -0.8037    4.3555 C   0  0  2  0  0  0  0  0  0  0  0  0
    2.9014    0.6176    4.8978 C   0  0  0  0  0  0  0  0  0  0  0  0
    1.4970    0.8591    5.4146 C   0  0  0  0  0  0  0  0  0  0  0  0
    0.9383    2.0813    5.8303 C   0  0  0  0  0  0  0  0  0  0  0  0
   -0.3488    2.0923    6.4177 C   0  0  0  0  0  0  0  0  0  0  0  0
   -1.0565    0.8891    6.6475 C   0  0  0  0  0  0  0  0  0  0  0  0
   -2.2660    0.9498    7.2770 O   0  0  0  0  0  0  0  0  0  0  0  0
   -0.5025   -0.3517    6.2490 C   0  0  0  0  0  0  0  0  0  0  0  0
    0.7103   -0.2973    5.6042 C   0  0  0  0  0  0  0  0  0  0  0  0
    1.0428   -1.7126    5.1642 C   0  0  1  0  0  0  0  0  0  0  0  0
    0.5830   -1.8863    3.6972 C   0  0  0  0  0  0  0  0  0  0  0  0
    1.2412   -0.8726    2.7469 C   0  0  0  0  0  0  0  0  0  0  0  0
    2.7127   -0.8247    2.9256 N   0  0  2  0  0  0  0  0  0  0  0  0
    3.4507   -1.7228    2.0087 C   0  0  0  0  0  0  0  0  0  0  0  0
    3.6058   -1.1308    0.6229 C   0  0  0  0  0  0  0  0  0  0  0  0
    4.2679   -1.9446   -0.4738 C   0  0  0  0  0  0  0  0  0  0  0  0
    4.9775   -0.7576    0.1142 C   0  0  0  0  0  0  0  0  0  0  0  0
    0.0859   -2.5372    6.0983 C   0  0  2  0  0  0  0  0  0  0  0  0
   -0.9731   -1.6191    6.4382 O   0  0  0  0  0  0  0  0  0  0  0  0
   -0.9356   -3.4761   10.2735 H   0  0  0  0  0  0  0  0  0  0  0  0
    0.5965   -2.6235   10.2003 H   0  0  0  0  0  0  0  0  0  0  0  0
    0.5113   -4.3596    9.8372 H   0  0  0  0  0  0  0  0  0  0  0  0
    1.8828   -4.8476    8.0575 H   0  0  0  0  0  0  0  0  0  0  0  0
    0.3077   -5.2021    7.4297 H   0  0  0  0  0  0  0  0  0  0  0  0
    1.8280   -6.1399    5.9732 H   0  0  0  0  0  0  0  0  0  0  0  0
    1.1062   -4.8636    5.0769 H   0  0  0  0  0  0  0  0  0  0  0  0
    3.7859   -5.9854    4.2711 H   0  0  0  0  0  0  0  0  0  0  0  0
    4.1130   -6.3850    5.9548 H   0  0  0  0  0  0  0  0  0  0  0  0
    5.0888   -5.1816    5.1428 H   0  0  0  0  0  0  0  0  0  0  0  0
    4.1884   -3.1743    4.5134 H   0  0  0  0  0  0  0  0  0  0  0  0
    2.6969   -3.6589    3.8073 H   0  0  0  0  0  0  0  0  0  0  0  0
    3.9202   -2.3885    6.9630 H   0  0  0  0  0  0  0  0  0  0  0  0
    3.3255   -0.7985    7.0037 H   0  0  0  0  0  0  0  0  0  0  0  0
    1.4865   -1.2338    8.1531 H   0  0  0  0  0  0  0  0  0  0  0  0
    2.4237   -2.5581    8.7294 H   0  0  0  0  0  0  0  0  0  0  0  0
    4.2718   -0.8881    4.3404 H   0  0  0  0  0  0  0  0  0  0  0  0
    3.5846    0.8499    5.7105 H   0  0  0  0  0  0  0  0  0  0  0  0
    3.1188    1.3715    4.1425 H   0  0  0  0  0  0  0  0  0  0  0  0
    1.4969    3.0015    5.7160 H   0  0  0  0  0  0  0  0  0  0  0  0
   -0.7770    3.0344    6.7272 H   0  0  0  0  0  0  0  0  0  0  0  0
    0.7585   -2.8985    3.3295 H   0  0  0  0  0  0  0  0  0  0  0  0
   -0.4976   -1.7571    3.6761 H   0  0  0  0  0  0  0  0  0  0  0  0
    0.9803   -1.0904    1.7108 H   0  0  0  0  0  0  0  0  0  0  0  0
    0.8231    0.1189    2.9226 H   0  0  0  0  0  0  0  0  0  0  0  0
    4.4463   -1.9354    2.3950 H   0  0  0  0  0  0  0  0  0  0  0  0
    2.9317   -2.6705    1.9014 H   0  0  0  0  0  0  0  0  0  0  0  0
    2.7718   -0.5175    0.2782 H   0  0  0  0  0  0  0  0  0  0  0  0
    4.6446   -2.9345   -0.2237 H   0  0  0  0  0  0  0  0  0  0  0  0
    3.8886   -1.8362   -1.4894 H   0  0  0  0  0  0  0  0  0  0  0  0
    5.0314    0.1397   -0.4888 H   0  0  0  0  0  0  0  0  0  0  0  0
    5.8293   -0.9391    0.7675 H   0  0  0  0  0  0  0  0  0  0  0  0
   -0.4150   -3.3514    5.5697 H   0  0  0  0  0  0  0  0  0  0  0  0
    2.9666    0.0929    2.5799 H   0  0  0  0  0  0  0  0  0  0  0  0
    3.4798   -4.1900    6.5701 H   0  0  0  0  0  0  0  0  0  0  0  0
  1  2  1  0
  1 31  1  0
  1 32  1  0
  1 33  1  0
  3  2  1  1
  3 11  1  0
  3 29  1  0
  3  4  1  0
  4  5  1  0
  4 34  1  0
  4 35  1  0
  5  6  1  0
  5 36  1  0
  5 37  1  0
  6  7  1  0
  6  8  1  0
  6 65  1  1
  7 38  1  0
  7 39  1  0
  7 40  1  0
  9  8  1  6
  8 41  1  0
  8 42  1  0
  9 21  1  0
  9 10  1  0
  9 12  1  0
 10 11  1  0
 10 43  1  0
 10 44  1  0
 11 45  1  0
 11 46  1  0
 12 24  1  0
 12 13  1  0
 12 47  1  6
 13 14  1  0
 13 48  1  0
 13 49  1  0
 14 20  2  0
 14 15  1  0
 15 16  2  0
 15 50  1  0
 16 17  1  0
 16 51  1  0
 17 18  1  0
 17 19  2  0
 19 30  1  0
 19 20  1  0
 20 21  1  0
 21 22  1  6
 21 29  1  0
 22 23  1  0
 22 52  1  0
 22 53  1  0
 23 24  1  0
 23 54  1  0
 23 55  1  0
 24 25  1  0
 24 64  1  6
 25 26  1  0
 25 56  1  0
 25 57  1  0
 26 28  1  0
 26 27  1  0
 26 58  1  0
 27 28  1  0
 27 59  1  0
 27 60  1  0
 28 61  1  0
 28 62  1  0
 29 30  1  0
 29 63  1  6
M  CHG  3   6   1  18  -1  24   1
M  END
>  <i_m_ct_stereo_status>  (99) 
1

>  <s_m_source_file>  (99) 
/var/tmp/pbs.5076255.sched01/tmp6yc3ji7b/0haed4tc5.sdf

>  <i_m_source_file_index>  (99) 
39

>  <i_lp_mmshare_version>  (99) 
48012

>  <i_f3d_flags>  (99) 
0

>  <s_epik_input>  (99) 
W0NIM11OKFtDSDJdMSlbQ0gyXVtDSDJdW0NAQF0oT1tDSDNdKShbQ0gyXVtDSDJdMilbQ0BIXTNPYzRjKFtPSF0pW2NIXVtjSF1jKGM0W0NAQF0zNVtDQF0xMjYpW0NIMl1bQ0BASF02TihbQ0gyXVtDSDJdNSlbQ0gyXVtDSF03W0NIMl1bQ0gyXTc=

>  <s_epik_cmdline>  (99) 
J2VwaWtfcHl0aG9uJywgJy1waHQnLCAnMi4wJywgJy1waCcsICc3LjAnLCAnLXRuJywgJzgnLCAnLW1hJywgJzIwMCcsICctaW1hZScsICc8aW5maWxlLm1hZT4nLCAnLW9tYWUnLCAnPG91dGZpbGUubWFlPic=

>  <r_epik_Ionization_Penalty>  (99) 
2.08211

>  <r_epik_Ionization_Penalty_Charging>  (99) 
2.08211

>  <r_epik_Ionization_Penalty_Neutral>  (99) 
2.79693e-13

>  <r_epik_State_Penalty>  (99) 
2.19711

>  <r_epik_Charging_Adjusted_Penalty>  (99) 
4.27923

>  <i_epik_Tot_Q>  (99) 
1

>  <i_epik_Tot_abs_Q>  (99) 
3

>  <s_lp_Force_Field>  (99) 
OPLS3e

>  <r_lp_Energy>  (99) 
104.524

>  <b_lp_Chiralities_Consistent>  (99) 
1

>  <s_lp_Variant>  (99) 
26:0-4

>  <s_i_glide_gridfile>  (99) 
pfpi4k_grid

>  <i_i_glide_lignum>  (99) 
39

>  <i_i_glide_rotatable_bonds>  (99) 
3

>  <r_i_docking_score>  (99) 
-2.98656

>  <r_i_glide_ligand_efficiency>  (99) 
-0.0995521

>  <r_i_glide_ligand_efficiency_sa>  (99) 
-0.309332

>  <r_i_glide_ligand_efficiency_ln>  (99) 
-0.67858

>  <r_i_glide_gscore>  (99) 
-2.98656

>  <r_i_glide_lipo>  (99) 
-0.0663087

>  <r_i_glide_hbond>  (99) 
-0.331103

>  <r_i_glide_metal>  (99) 
-0

>  <r_i_glide_rewards>  (99) 
-0.60302

>  <r_i_glide_evdw>  (99) 
-11.8239

>  <r_i_glide_ecoul>  (99) 
-10.8105

>  <r_i_glide_erotb>  (99) 
0.232741

>  <r_i_glide_esite>  (99) 
-0.00610296

>  <r_i_glide_emodel>  (99) 
-30.1525

>  <r_i_glide_energy>  (99) 
-22.6344

>  <r_i_glide_einternal>  (99) 
0.483588

>  <r_i_glide_intrahb_reward>  (99) 
-0

>  <i_i_glide_confnum>  (99) 
2

>  <i_i_glide_posenum>  (99) 
2

>  <r_i_glide_eff_state_penalty>  (99) 
0

>  <ligand_id>  (99) 
26

>  <original_smiles>  (99) 
COC12CCN(C)CC3(CC1)C1Cc4ccc(O)c5c4C3(CCN1CC1CC1)C2O5

>  <smiles>  (99) 
[H]c1c([H])c2c3c(c1[O-])OC1([H])C4(OC([H])([H])[H])C([H])([H])C([H])([H])C5(C31C([H])([H])C([H])([H])[N+]([H])(C([H])([H])C1([H])C([H])([H])C1([H])[H])C5([H])C2([H])[H])C([H])([H])[N+]([H])(C([H])([H])[H])C([H])([H])C4([H])[H]

$$$$
26:3:2
     RDKit          3D

 65 71  0  0  1  0  0  0  0  0999 V2000
    0.8500   -2.8222    9.5447 C   0  0  0  0  0  0  0  0  0  0  0  0
    0.5529   -2.7669    8.1516 O   0  0  0  0  0  0  0  0  0  0  0  0
    1.6212   -2.6508    7.1955 C   0  0  2  0  0  0  0  0  0  0  0  0
    2.3763   -4.0076    7.2652 C   0  0  0  0  0  0  0  0  0  0  0  0
    3.1040   -4.4903    6.0021 C   0  0  0  0  0  0  0  0  0  0  0  0
    4.3049   -3.6757    5.7109 N   0  0  1  0  0  0  0  0  0  0  0  0
    5.4874   -4.5360    5.4225 C   0  0  0  0  0  0  0  0  0  0  0  0
    4.0883   -2.6620    4.6365 C   0  0  0  0  0  0  0  0  0  0  0  0
    3.2058   -1.3939    4.9767 C   0  0  1  0  0  0  0  0  0  0  0  0
    3.5370   -0.9734    6.4508 C   0  0  0  0  0  0  0  0  0  0  0  0
    2.5287   -1.4367    7.5376 C   0  0  0  0  0  0  0  0  0  0  0  0
    3.5734   -0.2519    3.9291 C   0  0  2  0  0  0  0  0  0  0  0  0
    2.9515    1.1206    4.2784 C   0  0  0  0  0  0  0  0  0  0  0  0
    1.5078    1.0875    4.7428 C   0  0  0  0  0  0  0  0  0  0  0  0
    0.6713    2.1929    4.9894 C   0  0  0  0  0  0  0  0  0  0  0  0
   -0.6036    1.9780    5.5569 C   0  0  0  0  0  0  0  0  0  0  0  0
   -1.0242    0.6871    5.9394 C   0  0  0  0  0  0  0  0  0  0  0  0
   -2.2241    0.5477    6.5624 O   0  0  0  0  0  0  0  0  0  0  0  0
   -0.1946   -0.4350    5.7081 C   0  0  0  0  0  0  0  0  0  0  0  0
    0.9969   -0.1869    5.0698 C   0  0  0  0  0  0  0  0  0  0  0  0
    1.6570   -1.5291    4.8165 C   0  0  1  0  0  0  0  0  0  0  0  0
    1.3138   -1.9831    3.3718 C   0  0  0  0  0  0  0  0  0  0  0  0
    1.7675   -0.9645    2.3153 C   0  0  0  0  0  0  0  0  0  0  0  0
    3.1829   -0.5541    2.5057 N   0  0  2  0  0  0  0  0  0  0  0  0
    4.1477   -1.3637    1.7183 C   0  0  0  0  0  0  0  0  0  0  0  0
    4.2103   -0.9217    0.2671 C   0  0  0  0  0  0  0  0  0  0  0  0
    3.4659   -1.6897   -0.8058 C   0  0  0  0  0  0  0  0  0  0  0  0
    4.9675   -1.7658   -0.7379 C   0  0  0  0  0  0  0  0  0  0  0  0
    0.8786   -2.4297    5.8404 C   0  0  2  0  0  0  0  0  0  0  0  0
   -0.3743   -1.7422    6.0549 O   0  0  0  0  0  0  0  0  0  0  0  0
   -0.0682   -3.0462   10.0907 H   0  0  0  0  0  0  0  0  0  0  0  0
    1.2167   -1.8648    9.9138 H   0  0  0  0  0  0  0  0  0  0  0  0
    1.5671   -3.6025    9.7980 H   0  0  0  0  0  0  0  0  0  0  0  0
    3.0773   -4.0048    8.1032 H   0  0  0  0  0  0  0  0  0  0  0  0
    1.6517   -4.7882    7.5042 H   0  0  0  0  0  0  0  0  0  0  0  0
    3.4055   -5.5198    6.2003 H   0  0  0  0  0  0  0  0  0  0  0  0
    2.4474   -4.5634    5.1369 H   0  0  0  0  0  0  0  0  0  0  0  0
    5.3442   -5.1256    4.5141 H   0  0  0  0  0  0  0  0  0  0  0  0
    5.6830   -5.2305    6.2441 H   0  0  0  0  0  0  0  0  0  0  0  0
    6.3926   -3.9387    5.2961 H   0  0  0  0  0  0  0  0  0  0  0  0
    5.0857   -2.2881    4.4014 H   0  0  0  0  0  0  0  0  0  0  0  0
    3.7741   -3.1878    3.7415 H   0  0  0  0  0  0  0  0  0  0  0  0
    4.5421   -1.2952    6.7239 H   0  0  0  0  0  0  0  0  0  0  0  0
    3.6025    0.1077    6.5540 H   0  0  0  0  0  0  0  0  0  0  0  0
    1.8633   -0.5969    7.7293 H   0  0  0  0  0  0  0  0  0  0  0  0
    3.0561   -1.5895    8.4794 H   0  0  0  0  0  0  0  0  0  0  0  0
    4.6542   -0.0850    3.9389 H   0  0  0  0  0  0  0  0  0  0  0  0
    3.5323    1.6000    5.0632 H   0  0  0  0  0  0  0  0  0  0  0  0
    3.0267    1.8046    3.4335 H   0  0  0  0  0  0  0  0  0  0  0  0
    1.0099    3.1940    4.7645 H   0  0  0  0  0  0  0  0  0  0  0  0
   -1.2504    2.8241    5.7369 H   0  0  0  0  0  0  0  0  0  0  0  0
    1.7402   -2.9603    3.1466 H   0  0  0  0  0  0  0  0  0  0  0  0
    0.2370   -2.1212    3.2770 H   0  0  0  0  0  0  0  0  0  0  0  0
    1.6097   -1.3599    1.3120 H   0  0  0  0  0  0  0  0  0  0  0  0
    1.1290   -0.0802    2.3572 H   0  0  0  0  0  0  0  0  0  0  0  0
    5.1525   -1.2754    2.1298 H   0  0  0  0  0  0  0  0  0  0  0  0
    3.8702   -2.4151    1.7421 H   0  0  0  0  0  0  0  0  0  0  0  0
    4.3119    0.1537    0.1238 H   0  0  0  0  0  0  0  0  0  0  0  0
    2.8925   -2.5610   -0.4929 H   0  0  0  0  0  0  0  0  0  0  0  0
    3.0203   -1.1071   -1.6110 H   0  0  0  0  0  0  0  0  0  0  0  0
    5.5133   -1.2557   -1.5288 H   0  0  0  0  0  0  0  0  0  0  0  0
    5.4069   -2.7025   -0.3983 H   0  0  0  0  0  0  0  0  0  0  0  0
    0.6022   -3.3967    5.4150 H   0  0  0  0  0  0  0  0  0  0  0  0
    3.2309    0.3478    2.0543 H   0  0  0  0  0  0  0  0  0  0  0  0
    4.5398   -3.1815    6.5618 H   0  0  0  0  0  0  0  0  0  0  0  0
  1  2  1  0
  1 31  1  0
  1 32  1  0
  1 33  1  0
  3  2  1  1
  3 11  1  0
  3 29  1  0
  3  4  1  0
  4  5  1  0
  4 34  1  0
  4 35  1  0
  5  6  1  0
  5 36  1  0
  5 37  1  0
  6  7  1  0
  6  8  1  0
  6 65  1  1
  7 38  1  0
  7 39  1  0
  7 40  1  0
  9  8  1  6
  8 41  1  0
  8 42  1  0
  9 21  1  0
  9 10  1  0
  9 12  1  0
 10 11  1  0
 10 43  1  0
 10 44  1  0
 11 45  1  0
 11 46  1  0
 12 24  1  0
 12 13  1  0
 12 47  1  6
 13 14  1  0
 13 48  1  0
 13 49  1  0
 14 20  2  0
 14 15  1  0
 15 16  2  0
 15 50  1  0
 16 17  1  0
 16 51  1  0
 17 18  1  0
 17 19  2  0
 19 30  1  0
 19 20  1  0
 20 21  1  0
 21 22  1  6
 21 29  1  0
 22 23  1  0
 22 52  1  0
 22 53  1  0
 23 24  1  0
 23 54  1  0
 23 55  1  0
 24 25  1  0
 24 64  1  6
 25 26  1  0
 25 56  1  0
 25 57  1  0
 26 28  1  0
 26 27  1  0
 26 58  1  0
 27 28  1  0
 27 59  1  0
 27 60  1  0
 28 61  1  0
 28 62  1  0
 29 30  1  0
 29 63  1  6
M  CHG  3   6   1  18  -1  24   1
M  END
>  <i_m_ct_stereo_status>  (100) 
1

>  <s_m_source_file>  (100) 
/var/tmp/pbs.5076255.sched01/tmp6yc3ji7b/0haed4tc5.sdf

>  <i_m_source_file_index>  (100) 
39

>  <i_lp_mmshare_version>  (100) 
48012

>  <i_f3d_flags>  (100) 
0

>  <s_epik_input>  (100) 
W0NIM11OKFtDSDJdMSlbQ0gyXVtDSDJdW0NAQF0oT1tDSDNdKShbQ0gyXVtDSDJdMilbQ0BIXTNPYzRjKFtPSF0pW2NIXVtjSF1jKGM0W0NAQF0zNVtDQF0xMjYpW0NIMl1bQ0BASF02TihbQ0gyXVtDSDJdNSlbQ0gyXVtDSF03W0NIMl1bQ0gyXTc=

>  <s_epik_cmdline>  (100) 
J2VwaWtfcHl0aG9uJywgJy1waHQnLCAnMi4wJywgJy1waCcsICc3LjAnLCAnLXRuJywgJzgnLCAnLW1hJywgJzIwMCcsICctaW1hZScsICc8aW5maWxlLm1hZT4nLCAnLW9tYWUnLCAnPG91dGZpbGUubWFlPic=

>  <r_epik_Ionization_Penalty>  (100) 
2.08211

>  <r_epik_Ionization_Penalty_Charging>  (100) 
2.08211

>  <r_epik_Ionization_Penalty_Neutral>  (100) 
2.79693e-13

>  <r_epik_State_Penalty>  (100) 
2.19711

>  <r_epik_Charging_Adjusted_Penalty>  (100) 
4.27923

>  <i_epik_Tot_Q>  (100) 
1

>  <i_epik_Tot_abs_Q>  (100) 
3

>  <s_lp_Force_Field>  (100) 
OPLS3e

>  <r_lp_Energy>  (100) 
104.524

>  <b_lp_Chiralities_Consistent>  (100) 
1

>  <s_lp_Variant>  (100) 
26:0-4

>  <s_i_glide_gridfile>  (100) 
pfpi4k_grid

>  <i_i_glide_lignum>  (100) 
39

>  <i_i_glide_rotatable_bonds>  (100) 
3

>  <r_i_docking_score>  (100) 
-2.58048

>  <r_i_glide_ligand_efficiency>  (100) 
-0.0860159

>  <r_i_glide_ligand_efficiency_sa>  (100) 
-0.267271

>  <r_i_glide_ligand_efficiency_ln>  (100) 
-0.586313

>  <r_i_glide_gscore>  (100) 
-2.58048

>  <r_i_glide_lipo>  (100) 
-0.0431923

>  <r_i_glide_hbond>  (100) 
-0.2

>  <r_i_glide_metal>  (100) 
-0

>  <r_i_glide_rewards>  (100) 
-0.60302

>  <r_i_glide_evdw>  (100) 
-15.1372

>  <r_i_glide_ecoul>  (100) 
-8.04084

>  <r_i_glide_erotb>  (100) 
0.232741

>  <r_i_glide_esite>  (100) 
-0.00401704

>  <r_i_glide_emodel>  (100) 
-29.8256

>  <r_i_glide_energy>  (100) 
-23.1781

>  <r_i_glide_einternal>  (100) 
0.10659

>  <r_i_glide_intrahb_reward>  (100) 
-0

>  <i_i_glide_confnum>  (100) 
2

>  <i_i_glide_posenum>  (100) 
14

>  <r_i_glide_eff_state_penalty>  (100) 
0

>  <ligand_id>  (100) 
26

>  <original_smiles>  (100) 
COC12CCN(C)CC3(CC1)C1Cc4ccc(O)c5c4C3(CCN1CC1CC1)C2O5

>  <smiles>  (100) 
[H]c1c([H])c2c3c(c1[O-])OC1([H])C4(OC([H])([H])[H])C([H])([H])C([H])([H])C5(C31C([H])([H])C([H])([H])[N+]([H])(C([H])([H])C1([H])C([H])([H])C1([H])[H])C5([H])C2([H])[H])C([H])([H])[N+]([H])(C([H])([H])[H])C([H])([H])C4([H])[H]

$$$$
27:0:0
     RDKit          3D

 20 21  0  0  1  0  0  0  0  0999 V2000
    3.4207    0.1796   -5.1146 C   0  0  0  0  0  0  0  0  0  0  0  0
    3.8007    0.0688   -3.8329 C   0  0  0  0  0  0  0  0  0  0  0  0
    3.7078   -1.1891   -2.9955 C   0  0  0  0  0  0  0  0  0  0  0  0
    4.9746   -1.4918   -2.4223 O   0  0  0  0  0  0  0  0  0  0  0  0
    5.0115   -2.5062   -1.4888 C   0  0  0  0  0  0  0  0  0  0  0  0
    3.9503   -3.3149   -0.9955 C   0  0  0  0  0  0  0  0  0  0  0  0
    4.0598   -4.2861   -0.0644 N   0  0  0  0  0  0  0  0  0  0  0  0
    5.2476   -4.5547    0.4735 N   0  0  0  0  0  0  0  0  0  0  0  0
    6.3312   -3.8436    0.0765 C   0  0  0  0  0  0  0  0  0  0  0  0
    7.6073   -3.9023    0.4503 N   0  0  0  0  0  0  0  0  0  0  0  0
    8.2106   -2.9372   -0.3160 C   0  0  0  0  0  0  0  0  0  0  0  0
    7.4199   -2.2621   -1.1428 N   0  0  0  0  0  0  0  0  0  0  0  0
    6.2267   -2.8415   -0.8893 N   0  0  0  0  0  0  0  0  0  0  0  0
    3.0166   -0.6553   -5.6587 H   0  0  0  0  0  0  0  0  0  0  0  0
    3.5109    1.1192   -5.6375 H   0  0  0  0  0  0  0  0  0  0  0  0
    4.1936    0.9424   -3.3306 H   0  0  0  0  0  0  0  0  0  0  0  0
    2.9648   -1.0125   -2.2173 H   0  0  0  0  0  0  0  0  0  0  0  0
    3.3564   -2.0205   -3.6074 H   0  0  0  0  0  0  0  0  0  0  0  0
    2.9464   -3.1817   -1.3638 H   0  0  0  0  0  0  0  0  0  0  0  0
    9.2674   -2.7082   -0.2480 H   0  0  0  0  0  0  0  0  0  0  0  0
  1  2  2  0
  1 14  1  0
  1 15  1  0
  2  3  1  0
  2 16  1  0
  3  4  1  0
  3 17  1  0
  3 18  1  0
  4  5  1  0
  5 13  1  0
  5  6  2  0
  6  7  1  0
  6 19  1  0
  7  8  2  0
  8  9  1  0
  9 13  1  0
  9 10  2  0
 10 11  1  0
 11 12  2  0
 11 20  1  0
 12 13  1  0
M  END
>  <i_m_ct_stereo_status>  (101) 
1

>  <s_m_source_file>  (101) 
/var/tmp/pbs.5076255.sched01/tmp6yc3ji7b/0haed4tc5.sdf

>  <i_m_source_file_index>  (101) 
40

>  <i_lp_mmshare_version>  (101) 
48012

>  <i_f3d_flags>  (101) 
0

>  <s_epik_input>  (101) 
W0NIMl09W0NIXVtDSDJdT2MoW2NIXW5uMSluKGMxMiluW2NIXW4y

>  <s_epik_cmdline>  (101) 
J2VwaWtfcHl0aG9uJywgJy1waHQnLCAnMi4wJywgJy1waCcsICc3LjAnLCAnLXRuJywgJzgnLCAnLW1hJywgJzIwMCcsICctaW1hZScsICc8aW5maWxlLm1hZT4nLCAnLW9tYWUnLCAnPG91dGZpbGUubWFlPic=

>  <r_lp_tautomer_probability>  (101) 
1

>  <r_epik_Ionization_Penalty>  (101) 
3.7683e-10

>  <r_epik_Ionization_Penalty_Charging>  (101) 
0

>  <r_epik_Ionization_Penalty_Neutral>  (101) 
3.7683e-10

>  <r_epik_State_Penalty>  (101) 
-0

>  <r_epik_Charging_Adjusted_Penalty>  (101) 
0

>  <i_epik_Tot_Q>  (101) 
0

>  <i_epik_Tot_abs_Q>  (101) 
0

>  <s_lp_Force_Field>  (101) 
OPLS3e

>  <r_lp_Energy>  (101) 
18.8841

>  <b_lp_Chiralities_Consistent>  (101) 
1

>  <s_lp_Variant>  (101) 
27:0-1

>  <s_i_glide_gridfile>  (101) 
pfpi4k_grid

>  <i_i_glide_lignum>  (101) 
40

>  <i_i_glide_rotatable_bonds>  (101) 
3

>  <r_i_docking_score>  (101) 
-3.56538

>  <r_i_glide_ligand_efficiency>  (101) 
-0.27426

>  <r_i_glide_ligand_efficiency_sa>  (101) 
-0.644876

>  <r_i_glide_ligand_efficiency_ln>  (101) 
-1.00012

>  <r_i_glide_gscore>  (101) 
-3.56538

>  <r_i_glide_lipo>  (101) 
-0.229905

>  <r_i_glide_hbond>  (101) 
-0.16

>  <r_i_glide_metal>  (101) 
-0

>  <r_i_glide_rewards>  (101) 
-2.4172

>  <r_i_glide_evdw>  (101) 
-22.2181

>  <r_i_glide_ecoul>  (101) 
-4.24109

>  <r_i_glide_erotb>  (101) 
0.997898

>  <r_i_glide_esite>  (101) 
-0.00910082

>  <r_i_glide_emodel>  (101) 
-32.5006

>  <r_i_glide_energy>  (101) 
-26.4592

>  <r_i_glide_einternal>  (101) 
0.615385

>  <r_i_glide_intrahb_reward>  (101) 
-0

>  <i_i_glide_confnum>  (101) 
1

>  <i_i_glide_posenum>  (101) 
8

>  <r_i_glide_eff_state_penalty>  (101) 
0

>  <ligand_id>  (101) 
27

>  <original_smiles>  (101) 
C=CCOc1cnnc2ncnn12

>  <smiles>  (101) 
[H]C([H])=C([H])C([H])([H])Oc1c([H])nnc2nc([H])nn12

$$$$
27:0:1
     RDKit          3D

 20 21  0  0  1  0  0  0  0  0999 V2000
    3.1352    0.5211   -5.1178 C   0  0  0  0  0  0  0  0  0  0  0  0
    3.0731   -0.2559   -4.0274 C   0  0  0  0  0  0  0  0  0  0  0  0
    3.5424   -1.6905   -3.9590 C   0  0  0  0  0  0  0  0  0  0  0  0
    4.5615   -1.8582   -2.9742 O   0  0  0  0  0  0  0  0  0  0  0  0
    4.2249   -2.4113   -1.7618 C   0  0  0  0  0  0  0  0  0  0  0  0
    3.0185   -3.0586   -1.3606 C   0  0  0  0  0  0  0  0  0  0  0  0
    2.7801   -3.6027   -0.1523 N   0  0  0  0  0  0  0  0  0  0  0  0
    3.7094   -3.5427    0.7957 N   0  0  0  0  0  0  0  0  0  0  0  0
    4.8940   -2.9438    0.5269 C   0  0  0  0  0  0  0  0  0  0  0  0
    5.9586   -2.7581    1.2960 N   0  0  0  0  0  0  0  0  0  0  0  0
    6.8272   -2.1062    0.4657 C   0  0  0  0  0  0  0  0  0  0  0  0
    6.4068   -1.8584   -0.7771 N   0  0  0  0  0  0  0  0  0  0  0  0
    5.1612   -2.3928   -0.7232 N   0  0  0  0  0  0  0  0  0  0  0  0
    3.5470    0.1611   -6.0500 H   0  0  0  0  0  0  0  0  0  0  0  0
    2.7643    1.5386   -5.0888 H   0  0  0  0  0  0  0  0  0  0  0  0
    2.6449    0.1418   -3.1213 H   0  0  0  0  0  0  0  0  0  0  0  0
    2.6633   -2.3210   -3.8526 H   0  0  0  0  0  0  0  0  0  0  0  0
    3.9685   -1.9640   -4.9190 H   0  0  0  0  0  0  0  0  0  0  0  0
    2.1834   -3.1876   -2.0322 H   0  0  0  0  0  0  0  0  0  0  0  0
    7.8081   -1.7913    0.7947 H   0  0  0  0  0  0  0  0  0  0  0  0
  1  2  2  0
  1 14  1  0
  1 15  1  0
  2  3  1  0
  2 16  1  0
  3  4  1  0
  3 17  1  0
  3 18  1  0
  4  5  1  0
  5 13  1  0
  5  6  2  0
  6  7  1  0
  6 19  1  0
  7  8  2  0
  8  9  1  0
  9 13  1  0
  9 10  2  0
 10 11  1  0
 11 12  2  0
 11 20  1  0
 12 13  1  0
M  END
>  <i_m_ct_stereo_status>  (102) 
1

>  <s_m_source_file>  (102) 
/var/tmp/pbs.5076255.sched01/tmp6yc3ji7b/0haed4tc5.sdf

>  <i_m_source_file_index>  (102) 
40

>  <i_lp_mmshare_version>  (102) 
48012

>  <i_f3d_flags>  (102) 
0

>  <s_epik_input>  (102) 
W0NIMl09W0NIXVtDSDJdT2MoW2NIXW5uMSluKGMxMiluW2NIXW4y

>  <s_epik_cmdline>  (102) 
J2VwaWtfcHl0aG9uJywgJy1waHQnLCAnMi4wJywgJy1waCcsICc3LjAnLCAnLXRuJywgJzgnLCAnLW1hJywgJzIwMCcsICctaW1hZScsICc8aW5maWxlLm1hZT4nLCAnLW9tYWUnLCAnPG91dGZpbGUubWFlPic=

>  <r_lp_tautomer_probability>  (102) 
1

>  <r_epik_Ionization_Penalty>  (102) 
3.7683e-10

>  <r_epik_Ionization_Penalty_Charging>  (102) 
0

>  <r_epik_Ionization_Penalty_Neutral>  (102) 
3.7683e-10

>  <r_epik_State_Penalty>  (102) 
-0

>  <r_epik_Charging_Adjusted_Penalty>  (102) 
0

>  <i_epik_Tot_Q>  (102) 
0

>  <i_epik_Tot_abs_Q>  (102) 
0

>  <s_lp_Force_Field>  (102) 
OPLS3e

>  <r_lp_Energy>  (102) 
18.8841

>  <b_lp_Chiralities_Consistent>  (102) 
1

>  <s_lp_Variant>  (102) 
27:0-1

>  <s_i_glide_gridfile>  (102) 
pfpi4k_grid

>  <i_i_glide_lignum>  (102) 
40

>  <i_i_glide_rotatable_bonds>  (102) 
3

>  <r_i_docking_score>  (102) 
-3.41594

>  <r_i_glide_ligand_efficiency>  (102) 
-0.262764

>  <r_i_glide_ligand_efficiency_sa>  (102) 
-0.617847

>  <r_i_glide_ligand_efficiency_ln>  (102) 
-0.958201

>  <r_i_glide_gscore>  (102) 
-3.41594

>  <r_i_glide_lipo>  (102) 
-0.445914

>  <r_i_glide_hbond>  (102) 
-0.145737

>  <r_i_glide_metal>  (102) 
-0

>  <r_i_glide_rewards>  (102) 
-2.31413

>  <r_i_glide_evdw>  (102) 
-21.9775

>  <r_i_glide_ecoul>  (102) 
-2.49748

>  <r_i_glide_erotb>  (102) 
0.997898

>  <r_i_glide_esite>  (102) 
-0.034562

>  <r_i_glide_emodel>  (102) 
-30.0322

>  <r_i_glide_energy>  (102) 
-24.475

>  <r_i_glide_einternal>  (102) 
0.850979

>  <r_i_glide_intrahb_reward>  (102) 
-0

>  <i_i_glide_confnum>  (102) 
1

>  <i_i_glide_posenum>  (102) 
1

>  <r_i_glide_eff_state_penalty>  (102) 
0

>  <ligand_id>  (102) 
27

>  <original_smiles>  (102) 
C=CCOc1cnnc2ncnn12

>  <smiles>  (102) 
[H]C([H])=C([H])C([H])([H])Oc1c([H])nnc2nc([H])nn12

$$$$
27:0:2
     RDKit          3D

 20 21  0  0  1  0  0  0  0  0999 V2000
    4.4671  -11.5547    4.1471 C   0  0  0  0  0  0  0  0  0  0  0  0
    3.2311  -11.9090    4.5346 C   0  0  0  0  0  0  0  0  0  0  0  0
    1.9388  -11.2846    4.0463 C   0  0  0  0  0  0  0  0  0  0  0  0
    2.1950  -10.1103    3.2891 O   0  0  0  0  0  0  0  0  0  0  0  0
    1.1105   -9.3529    2.9168 C   0  0  0  0  0  0  0  0  0  0  0  0
   -0.2707   -9.5950    3.1368 C   0  0  0  0  0  0  0  0  0  0  0  0
   -1.2827   -8.7885    2.7442 N   0  0  0  0  0  0  0  0  0  0  0  0
   -1.0100   -7.6601    2.0942 N   0  0  0  0  0  0  0  0  0  0  0  0
    0.2739   -7.3362    1.8285 C   0  0  0  0  0  0  0  0  0  0  0  0
    0.7957   -6.2765    1.2108 N   0  0  0  0  0  0  0  0  0  0  0  0
    2.1442   -6.5157    1.2754 C   0  0  0  0  0  0  0  0  0  0  0  0
    2.5263   -7.6377    1.8779 N   0  0  0  0  0  0  0  0  0  0  0  0
    1.3260   -8.1567    2.2312 N   0  0  0  0  0  0  0  0  0  0  0  0
    4.6346  -10.7664    3.4272 H   0  0  0  0  0  0  0  0  0  0  0  0
    5.3337  -12.0583    4.5479 H   0  0  0  0  0  0  0  0  0  0  0  0
    3.1178  -12.7087    5.2526 H   0  0  0  0  0  0  0  0  0  0  0  0
    1.4041  -12.0200    3.4413 H   0  0  0  0  0  0  0  0  0  0  0  0
    1.3233  -11.0595    4.9199 H   0  0  0  0  0  0  0  0  0  0  0  0
   -0.5855  -10.4852    3.6614 H   0  0  0  0  0  0  0  0  0  0  0  0
    2.8680   -5.8395    0.8435 H   0  0  0  0  0  0  0  0  0  0  0  0
  1  2  2  0
  1 14  1  0
  1 15  1  0
  2  3  1  0
  2 16  1  0
  3  4  1  0
  3 17  1  0
  3 18  1  0
  4  5  1  0
  5 13  1  0
  5  6  2  0
  6  7  1  0
  6 19  1  0
  7  8  2  0
  8  9  1  0
  9 13  1  0
  9 10  2  0
 10 11  1  0
 11 12  2  0
 11 20  1  0
 12 13  1  0
M  END
>  <i_m_ct_stereo_status>  (103) 
1

>  <s_m_source_file>  (103) 
/var/tmp/pbs.5076255.sched01/tmp6yc3ji7b/0haed4tc5.sdf

>  <i_m_source_file_index>  (103) 
40

>  <i_lp_mmshare_version>  (103) 
48012

>  <i_f3d_flags>  (103) 
0

>  <s_epik_input>  (103) 
W0NIMl09W0NIXVtDSDJdT2MoW2NIXW5uMSluKGMxMiluW2NIXW4y

>  <s_epik_cmdline>  (103) 
J2VwaWtfcHl0aG9uJywgJy1waHQnLCAnMi4wJywgJy1waCcsICc3LjAnLCAnLXRuJywgJzgnLCAnLW1hJywgJzIwMCcsICctaW1hZScsICc8aW5maWxlLm1hZT4nLCAnLW9tYWUnLCAnPG91dGZpbGUubWFlPic=

>  <r_lp_tautomer_probability>  (103) 
1

>  <r_epik_Ionization_Penalty>  (103) 
3.7683e-10

>  <r_epik_Ionization_Penalty_Charging>  (103) 
0

>  <r_epik_Ionization_Penalty_Neutral>  (103) 
3.7683e-10

>  <r_epik_State_Penalty>  (103) 
-0

>  <r_epik_Charging_Adjusted_Penalty>  (103) 
0

>  <i_epik_Tot_Q>  (103) 
0

>  <i_epik_Tot_abs_Q>  (103) 
0

>  <s_lp_Force_Field>  (103) 
OPLS3e

>  <r_lp_Energy>  (103) 
18.8841

>  <b_lp_Chiralities_Consistent>  (103) 
1

>  <s_lp_Variant>  (103) 
27:0-1

>  <s_i_glide_gridfile>  (103) 
pfpi4k_grid

>  <i_i_glide_lignum>  (103) 
40

>  <i_i_glide_rotatable_bonds>  (103) 
3

>  <r_i_docking_score>  (103) 
-3.29473

>  <r_i_glide_ligand_efficiency>  (103) 
-0.253441

>  <r_i_glide_ligand_efficiency_sa>  (103) 
-0.595925

>  <r_i_glide_ligand_efficiency_ln>  (103) 
-0.924202

>  <r_i_glide_gscore>  (103) 
-3.29473

>  <r_i_glide_lipo>  (103) 
-0.0246107

>  <r_i_glide_hbond>  (103) 
-0.16

>  <r_i_glide_metal>  (103) 
-0

>  <r_i_glide_rewards>  (103) 
-2.20116

>  <r_i_glide_evdw>  (103) 
-19.0397

>  <r_i_glide_ecoul>  (103) 
-4.97188

>  <r_i_glide_erotb>  (103) 
0.997898

>  <r_i_glide_esite>  (103) 
-0.209095

>  <r_i_glide_emodel>  (103) 
-29.0287

>  <r_i_glide_energy>  (103) 
-24.0116

>  <r_i_glide_einternal>  (103) 
1.64846

>  <r_i_glide_intrahb_reward>  (103) 
-0

>  <i_i_glide_confnum>  (103) 
4

>  <i_i_glide_posenum>  (103) 
23

>  <r_i_glide_eff_state_penalty>  (103) 
0

>  <ligand_id>  (103) 
27

>  <original_smiles>  (103) 
C=CCOc1cnnc2ncnn12

>  <smiles>  (103) 
[H]C([H])=C([H])C([H])([H])Oc1c([H])nnc2nc([H])nn12

$$$$
28:0:0
     RDKit          3D

 64 69  0  0  1  0  0  0  0  0999 V2000
    5.5381    0.7971    4.6270 C   0  0  0  0  0  0  0  0  0  0  0  0
    5.0419   -0.4718    5.0452 O   0  0  0  0  0  0  0  0  0  0  0  0
    3.6464   -0.5622    5.3473 C   0  0  2  0  0  0  0  0  0  0  0  0
    2.7825   -0.3151    4.0510 C   0  0  0  0  0  0  0  0  0  0  0  0
    1.8414    0.8804    4.1542 C   0  0  1  0  0  0  0  0  0  0  0  0
    2.7712    1.9093    4.5007 O   0  0  0  0  0  0  0  0  0  0  0  0
    1.3438    1.6300    2.8587 C   0  0  1  0  0  0  0  0  0  0  0  0
    1.6372    0.8688    1.6936 O   0  0  0  0  0  0  0  0  0  0  0  0
   -0.1508    1.9091    2.9190 C   0  0  1  0  0  0  0  0  0  0  0  0
   -0.7765    0.5384    3.1695 C   0  0  0  0  0  0  0  0  0  0  0  0
   -0.8394    0.5973    4.6761 C   0  0  2  0  0  0  0  0  0  0  0  0
   -1.6788    1.8965    4.7380 C   0  0  0  0  0  0  0  0  0  0  0  0
   -0.7339    2.8688    4.0667 C   0  0  2  0  0  0  0  0  0  0  0  0
   -1.5056    4.0298    3.4060 C   0  0  0  0  0  0  0  0  0  0  0  0
    0.1580    3.4582    5.2505 C   0  0  0  0  0  0  0  0  0  0  0  0
    0.2992    2.6191    6.5870 C   0  0  1  0  0  0  0  0  0  0  0  0
    1.1556    1.3939    6.3429 C   0  0  0  0  0  0  0  0  0  0  0  0
    2.1016    0.9351    7.1803 C   0  0  0  0  0  0  0  0  0  0  0  0
    3.3797    0.0517    6.8035 C   0  0  1  0  0  0  0  0  0  0  0  0
    3.8627   -0.9897    7.8473 C   0  0  0  0  0  0  0  0  0  0  0  0
    1.5136    0.9093    8.5811 C   0  0  1  0  0  0  0  0  0  0  0  0
    2.4524    0.6608    9.6232 O   0  0  0  0  0  0  0  0  0  0  0  0
    0.9286    2.3053    8.9868 C   0  0  0  0  0  0  0  0  0  0  0  0
    0.8131    3.3489    7.8310 C   0  0  1  0  0  0  0  0  0  0  0  0
    2.1021    4.1598    7.6131 C   0  0  0  0  0  0  0  0  0  0  0  0
    0.4223   -0.2428    8.5425 C   0  0  0  0  0  0  0  0  0  0  0  0
   -0.1036   -0.5916    9.6005 O   0  0  0  0  0  0  0  0  0  0  0  0
   -0.0709   -0.7624    7.3015 O   0  0  0  0  0  0  0  0  0  0  0  0
    0.6010   -0.8653    6.0057 C   0  0  0  0  0  0  0  0  0  0  0  0
    0.6889    0.5334    5.2311 C   0  0  2  0  0  0  0  0  0  0  0  0
    6.6107    0.7599    4.5035 H   0  0  0  0  0  0  0  0  0  0  0  0
    5.2945    1.5951    5.3347 H   0  0  0  0  0  0  0  0  0  0  0  0
    5.0982    1.0683    3.6722 H   0  0  0  0  0  0  0  0  0  0  0  0
    3.5316   -1.6406    5.4682 H   0  0  0  0  0  0  0  0  0  0  0  0
    3.4268   -0.2400    3.1831 H   0  0  0  0  0  0  0  0  0  0  0  0
    2.1870   -1.1997    3.8229 H   0  0  0  0  0  0  0  0  0  0  0  0
    3.3638    2.0230    3.7728 H   0  0  0  0  0  0  0  0  0  0  0  0
    1.7940    2.6060    2.6465 H   0  0  0  0  0  0  0  0  0  0  0  0
    1.0895    1.1540    0.9814 H   0  0  0  0  0  0  0  0  0  0  0  0
   -0.4739    2.2710    1.9323 H   0  0  0  0  0  0  0  0  0  0  0  0
   -1.7643    0.4625    2.6936 H   0  0  0  0  0  0  0  0  0  0  0  0
   -0.1997   -0.3191    2.8102 H   0  0  0  0  0  0  0  0  0  0  0  0
   -1.4630   -0.2050    5.0471 H   0  0  0  0  0  0  0  0  0  0  0  0
   -2.5888    1.7866    4.1317 H   0  0  0  0  0  0  0  0  0  0  0  0
   -2.1057    2.1895    5.6876 H   0  0  0  0  0  0  0  0  0  0  0  0
   -2.0922    4.5780    4.1372 H   0  0  0  0  0  0  0  0  0  0  0  0
   -2.1990    3.6675    2.6376 H   0  0  0  0  0  0  0  0  0  0  0  0
   -0.8194    4.7231    2.9146 H   0  0  0  0  0  0  0  0  0  0  0  0
    1.1214    3.7692    4.8608 H   0  0  0  0  0  0  0  0  0  0  0  0
   -0.2990    4.4052    5.5618 H   0  0  0  0  0  0  0  0  0  0  0  0
   -0.6379    2.2350    6.9666 H   0  0  0  0  0  0  0  0  0  0  0  0
    4.1107    0.8390    6.9286 H   0  0  0  0  0  0  0  0  0  0  0  0
    4.3679   -0.5024    8.6872 H   0  0  0  0  0  0  0  0  0  0  0  0
    4.6406   -1.6398    7.4322 H   0  0  0  0  0  0  0  0  0  0  0  0
    3.0784   -1.6278    8.2361 H   0  0  0  0  0  0  0  0  0  0  0  0
    3.0729    1.3439    9.6535 H   0  0  0  0  0  0  0  0  0  0  0  0
   -0.0626    2.1677    9.4188 H   0  0  0  0  0  0  0  0  0  0  0  0
    1.5046    2.7752    9.7917 H   0  0  0  0  0  0  0  0  0  0  0  0
    0.0500    4.0779    8.1278 H   0  0  0  0  0  0  0  0  0  0  0  0
    2.9433    3.5367    7.2909 H   0  0  0  0  0  0  0  0  0  0  0  0
    2.4019    4.6692    8.5310 H   0  0  0  0  0  0  0  0  0  0  0  0
    1.9591    4.9321    6.8573 H   0  0  0  0  0  0  0  0  0  0  0  0
    1.5391   -1.3708    6.1718 H   0  0  0  0  0  0  0  0  0  0  0  0
    0.0662   -1.5937    5.3931 H   0  0  0  0  0  0  0  0  0  0  0  0
  1  2  1  0
  1 31  1  0
  1 32  1  0
  1 33  1  0
  2  3  1  0
  3 19  1  0
  3  4  1  0
  3 34  1  1
  4  5  1  0
  4 35  1  0
  4 36  1  0
  5 30  1  0
  5  6  1  1
  5  7  1  0
  6 37  1  0
  7  8  1  0
  7  9  1  0
  7 38  1  6
  8 39  1  0
  9 13  1  0
  9 10  1  0
  9 40  1  6
 10 11  1  0
 10 41  1  0
 10 42  1  0
 11 30  1  0
 11 12  1  0
 11 43  1  1
 12 13  1  0
 12 44  1  0
 12 45  1  0
 13 14  1  6
 13 15  1  0
 14 46  1  0
 14 47  1  0
 14 48  1  0
 15 16  1  0
 15 49  1  0
 15 50  1  0
 16 24  1  0
 16 17  1  0
 16 51  1  1
 17 30  1  0
 17 18  2  0
 18 19  1  0
 18 21  1  0
 19 20  1  0
 19 52  1  6
 20 53  1  0
 20 54  1  0
 20 55  1  0
 21 22  1  1
 21 23  1  0
 21 26  1  0
 22 56  1  0
 23 24  1  0
 23 57  1  0
 23 58  1  0
 24 25  1  0
 24 59  1  1
 25 60  1  0
 25 61  1  0
 25 62  1  0
 26 27  2  0
 26 28  1  0
 28 29  1  0
 30 29  1  1
 29 63  1  0
 29 64  1  0
M  END
>  <i_m_ct_stereo_status>  (104) 
1

>  <s_m_source_file>  (104) 
/var/tmp/pbs.5076255.sched01/tmpp9awzhar/40nweoahkg.sdf

>  <i_m_source_file_index>  (104) 
1

>  <i_lp_mmshare_version>  (104) 
48012

>  <i_f3d_flags>  (104) 
0

>  <s_epik_input>  (104) 
W09IXVtDQF0xKFtDQF0yMzQpW0NIMl1bQ0BASF0oT1tDSDNdKVtDQEhdKFtDSDNdKUM1PUMzW0NASF0oW0NIMl1bQ0BdNihbQ0gzXSlbQ0BASF0oW0NAQEhdMVtPSF0pW0NIMl1bQ0BASF0yW0NIMl02KVtDQEhdKFtDSDNdKVtDSDJdW0NAQF01KFtPSF0pQyg9TylPW0NIMl00

>  <s_epik_cmdline>  (104) 
J2VwaWtfcHl0aG9uJywgJy1waHQnLCAnMi4wJywgJy1waCcsICc3LjAnLCAnLXRuJywgJzgnLCAnLW1hJywgJzIwMCcsICctaW1hZScsICc8aW5maWxlLm1hZT4nLCAnLW9tYWUnLCAnPG91dGZpbGUubWFlPic=

>  <r_lp_tautomer_probability>  (104) 
1

>  <r_epik_Ionization_Penalty>  (104) 
2.51747e-07

>  <r_epik_Ionization_Penalty_Charging>  (104) 
0

>  <r_epik_Ionization_Penalty_Neutral>  (104) 
2.51747e-07

>  <r_epik_State_Penalty>  (104) 
-0

>  <r_epik_Charging_Adjusted_Penalty>  (104) 
0

>  <i_epik_Tot_Q>  (104) 
0

>  <i_epik_Tot_abs_Q>  (104) 
0

>  <s_epik_Chemistry_Notes>  (104) 
This compound has an ester and may undergo hydrolysis at high or low pH.

>  <s_lp_Force_Field>  (104) 
OPLS3e

>  <r_lp_Energy>  (104) 
224.815

>  <b_lp_Chiralities_Consistent>  (104) 
1

>  <s_lp_Variant>  (104) 
28:0-1

>  <s_i_glide_gridfile>  (104) 
pfpi4k_grid

>  <i_i_glide_lignum>  (104) 
1

>  <i_i_glide_rotatable_bonds>  (104) 
4

>  <r_i_docking_score>  (104) 
-1.97748

>  <r_i_glide_ligand_efficiency>  (104) 
-0.065916

>  <r_i_glide_ligand_efficiency_sa>  (104) 
-0.204816

>  <r_i_glide_ligand_efficiency_ln>  (104) 
-0.449305

>  <r_i_glide_gscore>  (104) 
-1.97748

>  <r_i_glide_lipo>  (104) 
-0.114797

>  <r_i_glide_hbond>  (104) 
-0.0321386

>  <r_i_glide_metal>  (104) 
-0

>  <r_i_glide_rewards>  (104) 
-0.555524

>  <r_i_glide_evdw>  (104) 
-15.9355

>  <r_i_glide_ecoul>  (104) 
-2.95037

>  <r_i_glide_erotb>  (104) 
0

>  <r_i_glide_esite>  (104) 
-0.035689

>  <r_i_glide_emodel>  (104) 
-18.5701

>  <r_i_glide_energy>  (104) 
-18.8859

>  <r_i_glide_einternal>  (104) 
5.00045

>  <r_i_glide_intrahb_reward>  (104) 
-0

>  <i_i_glide_confnum>  (104) 
2

>  <i_i_glide_posenum>  (104) 
23

>  <r_i_glide_eff_state_penalty>  (104) 
0

>  <ligand_id>  (104) 
28

>  <original_smiles>  (104) 
COC1CC2(O)C(O)C3CC4CC3(C)CC3C5=C(C1C)C(O)(CC3C)C(=O)OCC542

>  <smiles>  (104) 
[H]OC12C(=O)OC([H])([H])C34C5=C1C([H])(C([H])([H])[H])C([H])(OC([H])([H])[H])C([H])([H])C3(O[H])C([H])(O[H])C1([H])C([H])([H])C4([H])C([H])([H])C1(C([H])([H])[H])C([H])([H])C5([H])C([H])(C([H])([H])[H])C2([H])[H]

$$$$
28:0:1
     RDKit          3D

 64 69  0  0  1  0  0  0  0  0999 V2000
    5.7872    0.1449    4.6695 C   0  0  0  0  0  0  0  0  0  0  0  0
    4.9721    1.1386    5.2812 O   0  0  0  0  0  0  0  0  0  0  0  0
    3.6318    0.7405    5.5791 C   0  0  2  0  0  0  0  0  0  0  0  0
    2.8153    0.7108    4.2380 C   0  0  0  0  0  0  0  0  0  0  0  0
    1.6633    1.7053    4.1578 C   0  0  1  0  0  0  0  0  0  0  0  0
    2.4257    2.9097    4.3504 O   0  0  0  0  0  0  0  0  0  0  0  0
    1.0800    2.1487    2.7658 C   0  0  1  0  0  0  0  0  0  0  0  0
    1.5414    1.3043    1.7240 O   0  0  0  0  0  0  0  0  0  0  0  0
   -0.4512    2.1421    2.7635 C   0  0  1  0  0  0  0  0  0  0  0  0
   -0.8260    0.7209    3.2065 C   0  0  0  0  0  0  0  0  0  0  0  0
   -0.9453    1.0053    4.6846 C   0  0  2  0  0  0  0  0  0  0  0  0
   -2.0156    2.1064    4.5449 C   0  0  0  0  0  0  0  0  0  0  0  0
   -1.2463    3.1356    3.7421 C   0  0  2  0  0  0  0  0  0  0  0  0
   -2.2015    4.0113    2.9000 C   0  0  0  0  0  0  0  0  0  0  0  0
   -0.5291    4.0476    4.8256 C   0  0  0  0  0  0  0  0  0  0  0  0
   -0.2743    3.4524    6.2745 C   0  0  1  0  0  0  0  0  0  0  0  0
    0.7990    2.4029    6.2148 C   0  0  0  0  0  0  0  0  0  0  0  0
    1.7992    2.2575    7.1305 C   0  0  0  0  0  0  0  0  0  0  0  0
    3.2213    1.5719    6.8895 C   0  0  1  0  0  0  0  0  0  0  0  0
    3.8563    0.8334    8.0973 C   0  0  0  0  0  0  0  0  0  0  0  0
    1.1628    2.3201    8.5098 C   0  0  1  0  0  0  0  0  0  0  0  0
    2.0688    2.4099    9.5904 O   0  0  0  0  0  0  0  0  0  0  0  0
    0.3010    3.6278    8.6953 C   0  0  0  0  0  0  0  0  0  0  0  0
    0.0322    4.4462    7.4001 C   0  0  1  0  0  0  0  0  0  0  0  0
    1.1599    5.4479    7.0743 C   0  0  0  0  0  0  0  0  0  0  0  0
    0.3025    0.9968    8.6444 C   0  0  0  0  0  0  0  0  0  0  0  0
   -0.1744    0.7167    9.7427 O   0  0  0  0  0  0  0  0  0  0  0  0
   -0.0394    0.1990    7.5054 O   0  0  0  0  0  0  0  0  0  0  0  0
    0.6867    0.0482    6.2372 C   0  0  0  0  0  0  0  0  0  0  0  0
    0.5487    1.2953    5.2580 C   0  0  2  0  0  0  0  0  0  0  0  0
    6.7749    0.5616    4.4719 H   0  0  0  0  0  0  0  0  0  0  0  0
    5.3855   -0.1989    3.7159 H   0  0  0  0  0  0  0  0  0  0  0  0
    5.9163   -0.7220    5.3196 H   0  0  0  0  0  0  0  0  0  0  0  0
    3.6888   -0.3056    5.8871 H   0  0  0  0  0  0  0  0  0  0  0  0
    3.4859    0.8760    3.3932 H   0  0  0  0  0  0  0  0  0  0  0  0
    2.4174   -0.2913    4.0742 H   0  0  0  0  0  0  0  0  0  0  0  0
    3.0264    2.9909    3.6224 H   0  0  0  0  0  0  0  0  0  0  0  0
    1.3609    3.1580    2.4449 H   0  0  0  0  0  0  0  0  0  0  0  0
    1.0310    1.4854    0.9441 H   0  0  0  0  0  0  0  0  0  0  0  0
   -0.7881    2.2771    1.7355 H   0  0  0  0  0  0  0  0  0  0  0  0
   -1.7650    0.4024    2.7498 H   0  0  0  0  0  0  0  0  0  0  0  0
   -0.0990   -0.0614    2.9789 H   0  0  0  0  0  0  0  0  0  0  0  0
   -1.4276    0.1562    5.1713 H   0  0  0  0  0  0  0  0  0  0  0  0
   -2.8642    1.7487    3.9615 H   0  0  0  0  0  0  0  0  0  0  0  0
   -2.5280    2.4537    5.4371 H   0  0  0  0  0  0  0  0  0  0  0  0
   -2.9134    4.5419    3.5251 H   0  0  0  0  0  0  0  0  0  0  0  0
   -2.7857    3.4191    2.1939 H   0  0  0  0  0  0  0  0  0  0  0  0
   -1.6468    4.7553    2.3275 H   0  0  0  0  0  0  0  0  0  0  0  0
    0.3879    4.4586    4.4039 H   0  0  0  0  0  0  0  0  0  0  0  0
   -1.1548    4.9228    4.9860 H   0  0  0  0  0  0  0  0  0  0  0  0
   -1.1396    2.9601    6.7007 H   0  0  0  0  0  0  0  0  0  0  0  0
    3.8138    2.4834    6.8081 H   0  0  0  0  0  0  0  0  0  0  0  0
    4.2139    1.5283    8.8586 H   0  0  0  0  0  0  0  0  0  0  0  0
    4.7485    0.2747    7.8061 H   0  0  0  0  0  0  0  0  0  0  0  0
    3.1731    0.1226    8.5633 H   0  0  0  0  0  0  0  0  0  0  0  0
    1.5664    2.4492   10.3952 H   0  0  0  0  0  0  0  0  0  0  0  0
   -0.6613    3.3671    9.1441 H   0  0  0  0  0  0  0  0  0  0  0  0
    0.7520    4.3063    9.4231 H   0  0  0  0  0  0  0  0  0  0  0  0
   -0.8599    5.0478    7.5780 H   0  0  0  0  0  0  0  0  0  0  0  0
    2.1072    4.9523    6.8604 H   0  0  0  0  0  0  0  0  0  0  0  0
    1.3258    6.1324    7.9076 H   0  0  0  0  0  0  0  0  0  0  0  0
    0.9037    6.0585    6.2091 H   0  0  0  0  0  0  0  0  0  0  0  0
    1.6919   -0.2481    6.4971 H   0  0  0  0  0  0  0  0  0  0  0  0
    0.3176   -0.8513    5.7410 H   0  0  0  0  0  0  0  0  0  0  0  0
  1  2  1  0
  1 31  1  0
  1 32  1  0
  1 33  1  0
  2  3  1  0
  3 19  1  0
  3  4  1  0
  3 34  1  1
  4  5  1  0
  4 35  1  0
  4 36  1  0
  5 30  1  0
  5  6  1  1
  5  7  1  0
  6 37  1  0
  7  8  1  0
  7  9  1  0
  7 38  1  6
  8 39  1  0
  9 13  1  0
  9 10  1  0
  9 40  1  6
 10 11  1  0
 10 41  1  0
 10 42  1  0
 11 30  1  0
 11 12  1  0
 11 43  1  1
 12 13  1  0
 12 44  1  0
 12 45  1  0
 13 14  1  6
 13 15  1  0
 14 46  1  0
 14 47  1  0
 14 48  1  0
 15 16  1  0
 15 49  1  0
 15 50  1  0
 16 24  1  0
 16 17  1  0
 16 51  1  1
 17 30  1  0
 17 18  2  0
 18 19  1  0
 18 21  1  0
 19 20  1  0
 19 52  1  6
 20 53  1  0
 20 54  1  0
 20 55  1  0
 21 22  1  1
 21 23  1  0
 21 26  1  0
 22 56  1  0
 23 24  1  0
 23 57  1  0
 23 58  1  0
 24 25  1  0
 24 59  1  1
 25 60  1  0
 25 61  1  0
 25 62  1  0
 26 27  2  0
 26 28  1  0
 28 29  1  0
 30 29  1  1
 29 63  1  0
 29 64  1  0
M  END
>  <i_m_ct_stereo_status>  (105) 
1

>  <s_m_source_file>  (105) 
/var/tmp/pbs.5076255.sched01/tmpp9awzhar/40nweoahkg.sdf

>  <i_m_source_file_index>  (105) 
1

>  <i_lp_mmshare_version>  (105) 
48012

>  <i_f3d_flags>  (105) 
0

>  <s_epik_input>  (105) 
W09IXVtDQF0xKFtDQF0yMzQpW0NIMl1bQ0BASF0oT1tDSDNdKVtDQEhdKFtDSDNdKUM1PUMzW0NASF0oW0NIMl1bQ0BdNihbQ0gzXSlbQ0BASF0oW0NAQEhdMVtPSF0pW0NIMl1bQ0BASF0yW0NIMl02KVtDQEhdKFtDSDNdKVtDSDJdW0NAQF01KFtPSF0pQyg9TylPW0NIMl00

>  <s_epik_cmdline>  (105) 
J2VwaWtfcHl0aG9uJywgJy1waHQnLCAnMi4wJywgJy1waCcsICc3LjAnLCAnLXRuJywgJzgnLCAnLW1hJywgJzIwMCcsICctaW1hZScsICc8aW5maWxlLm1hZT4nLCAnLW9tYWUnLCAnPG91dGZpbGUubWFlPic=

>  <r_lp_tautomer_probability>  (105) 
1

>  <r_epik_Ionization_Penalty>  (105) 
2.51747e-07

>  <r_epik_Ionization_Penalty_Charging>  (105) 
0

>  <r_epik_Ionization_Penalty_Neutral>  (105) 
2.51747e-07

>  <r_epik_State_Penalty>  (105) 
-0

>  <r_epik_Charging_Adjusted_Penalty>  (105) 
0

>  <i_epik_Tot_Q>  (105) 
0

>  <i_epik_Tot_abs_Q>  (105) 
0

>  <s_epik_Chemistry_Notes>  (105) 
This compound has an ester and may undergo hydrolysis at high or low pH.

>  <s_lp_Force_Field>  (105) 
OPLS3e

>  <r_lp_Energy>  (105) 
224.815

>  <b_lp_Chiralities_Consistent>  (105) 
1

>  <s_lp_Variant>  (105) 
28:0-1

>  <s_i_glide_gridfile>  (105) 
pfpi4k_grid

>  <i_i_glide_lignum>  (105) 
1

>  <i_i_glide_rotatable_bonds>  (105) 
4

>  <r_i_docking_score>  (105) 
-1.88776

>  <r_i_glide_ligand_efficiency>  (105) 
-0.0629253

>  <r_i_glide_ligand_efficiency_sa>  (105) 
-0.195524

>  <r_i_glide_ligand_efficiency_ln>  (105) 
-0.42892

>  <r_i_glide_gscore>  (105) 
-1.88776

>  <r_i_glide_lipo>  (105) 
-0.0950173

>  <r_i_glide_hbond>  (105) 
0

>  <r_i_glide_metal>  (105) 
-0

>  <r_i_glide_rewards>  (105) 
-0.555524

>  <r_i_glide_evdw>  (105) 
-17.9317

>  <r_i_glide_ecoul>  (105) 
-2.17745

>  <r_i_glide_erotb>  (105) 
0

>  <r_i_glide_esite>  (105) 
-0.0140147

>  <r_i_glide_emodel>  (105) 
-21.3033

>  <r_i_glide_energy>  (105) 
-20.1092

>  <r_i_glide_einternal>  (105) 
2.3497

>  <r_i_glide_intrahb_reward>  (105) 
-0

>  <i_i_glide_confnum>  (105) 
2

>  <i_i_glide_posenum>  (105) 
21

>  <r_i_glide_eff_state_penalty>  (105) 
0

>  <ligand_id>  (105) 
28

>  <original_smiles>  (105) 
COC1CC2(O)C(O)C3CC4CC3(C)CC3C5=C(C1C)C(O)(CC3C)C(=O)OCC542

>  <smiles>  (105) 
[H]OC12C(=O)OC([H])([H])C34C5=C1C([H])(C([H])([H])[H])C([H])(OC([H])([H])[H])C([H])([H])C3(O[H])C([H])(O[H])C1([H])C([H])([H])C4([H])C([H])([H])C1(C([H])([H])[H])C([H])([H])C5([H])C([H])(C([H])([H])[H])C2([H])[H]

$$$$
28:0:2
     RDKit          3D

 64 69  0  0  1  0  0  0  0  0999 V2000
   -2.9148    3.1386    2.7804 C   0  0  0  0  0  0  0  0  0  0  0  0
   -2.5002    2.4095    3.9349 O   0  0  0  0  0  0  0  0  0  0  0  0
   -1.4838    3.0132    4.7325 C   0  0  2  0  0  0  0  0  0  0  0  0
   -0.1282    2.9824    3.9369 C   0  0  0  0  0  0  0  0  0  0  0  0
    0.9750    2.1529    4.5727 C   0  0  1  0  0  0  0  0  0  0  0  0
    0.2924    0.8870    4.6043 O   0  0  0  0  0  0  0  0  0  0  0  0
    2.1719    1.6239    3.7055 C   0  0  1  0  0  0  0  0  0  0  0  0
    2.1993    2.2132    2.4135 O   0  0  0  0  0  0  0  0  0  0  0  0
    3.5155    1.8394    4.4060 C   0  0  1  0  0  0  0  0  0  0  0  0
    3.5450    3.3435    4.7129 C   0  0  0  0  0  0  0  0  0  0  0  0
    2.9653    3.2672    6.1051 C   0  0  2  0  0  0  0  0  0  0  0  0
    4.0433    2.3168    6.6695 C   0  0  0  0  0  0  0  0  0  0  0  0
    3.8134    1.0975    5.7996 C   0  0  2  0  0  0  0  0  0  0  0  0
    5.1059    0.2574    5.6609 C   0  0  0  0  0  0  0  0  0  0  0  0
    2.7245    0.2383    6.5732 C   0  0  0  0  0  0  0  0  0  0  0  0
    1.7732    0.9695    7.6119 C   0  0  1  0  0  0  0  0  0  0  0  0
    0.7940    1.8458    6.8832 C   0  0  0  0  0  0  0  0  0  0  0  0
   -0.5264    1.9653    7.1934 C   0  0  0  0  0  0  0  0  0  0  0  0
   -1.6993    2.4086    6.2058 C   0  0  1  0  0  0  0  0  0  0  0  0
   -2.8779    3.1928    6.8316 C   0  0  0  0  0  0  0  0  0  0  0  0
   -0.6221    2.1709    8.6982 C   0  0  1  0  0  0  0  0  0  0  0  0
   -1.9292    2.1307    9.2385 O   0  0  0  0  0  0  0  0  0  0  0  0
    0.1204    1.0228    9.4840 C   0  0  0  0  0  0  0  0  0  0  0  0
    1.0269    0.0934    8.6229 C   0  0  1  0  0  0  0  0  0  0  0  0
    0.2660   -1.0901    7.9959 C   0  0  0  0  0  0  0  0  0  0  0  0
   -0.0085    3.6010    8.9781 C   0  0  0  0  0  0  0  0  0  0  0  0
   -0.1403    4.0725   10.1062 O   0  0  0  0  0  0  0  0  0  0  0  0
    0.7757    4.2879    8.0001 O   0  0  0  0  0  0  0  0  0  0  0  0
    0.7353    4.1761    6.5378 C   0  0  0  0  0  0  0  0  0  0  0  0
    1.4013    2.8455    5.9703 C   0  0  2  0  0  0  0  0  0  0  0  0
   -3.6641    2.5569    2.2409 H   0  0  0  0  0  0  0  0  0  0  0  0
   -2.1011    3.3310    2.0859 H   0  0  0  0  0  0  0  0  0  0  0  0
   -3.3625    4.0985    3.0444 H   0  0  0  0  0  0  0  0  0  0  0  0
   -1.7490    4.0706    4.7861 H   0  0  0  0  0  0  0  0  0  0  0  0
   -0.2934    2.6104    2.9272 H   0  0  0  0  0  0  0  0  0  0  0  0
    0.2324    4.0028    3.7975 H   0  0  0  0  0  0  0  0  0  0  0  0
    0.1207    0.6320    3.7106 H   0  0  0  0  0  0  0  0  0  0  0  0
    2.1510    0.5496    3.4917 H   0  0  0  0  0  0  0  0  0  0  0  0
    1.6441    2.9828    2.3940 H   0  0  0  0  0  0  0  0  0  0  0  0
    4.2977    1.6001    3.6867 H   0  0  0  0  0  0  0  0  0  0  0  0
    4.5616    3.7428    4.7043 H   0  0  0  0  0  0  0  0  0  0  0  0
    2.9683    3.9784    4.0375 H   0  0  0  0  0  0  0  0  0  0  0  0
    3.1001    4.2277    6.6035 H   0  0  0  0  0  0  0  0  0  0  0  0
    5.0436    2.7177    6.4898 H   0  0  0  0  0  0  0  0  0  0  0  0
    4.0877    2.1591    7.7428 H   0  0  0  0  0  0  0  0  0  0  0  0
    5.4601   -0.1067    6.6264 H   0  0  0  0  0  0  0  0  0  0  0  0
    5.9221    0.8307    5.2175 H   0  0  0  0  0  0  0  0  0  0  0  0
    4.9377   -0.6121    5.0240 H   0  0  0  0  0  0  0  0  0  0  0  0
    2.1490   -0.3476    5.8584 H   0  0  0  0  0  0  0  0  0  0  0  0
    3.2557   -0.5148    7.1554 H   0  0  0  0  0  0  0  0  0  0  0  0
    2.2992    1.6261    8.2936 H   0  0  0  0  0  0  0  0  0  0  0  0
   -2.1215    1.4217    6.0183 H   0  0  0  0  0  0  0  0  0  0  0  0
   -3.5157    2.5587    7.4500 H   0  0  0  0  0  0  0  0  0  0  0  0
   -3.5444    3.5678    6.0557 H   0  0  0  0  0  0  0  0  0  0  0  0
   -2.5506    4.0473    7.4238 H   0  0  0  0  0  0  0  0  0  0  0  0
   -1.8731    2.3023   10.1715 H   0  0  0  0  0  0  0  0  0  0  0  0
    0.7383    1.4644   10.2707 H   0  0  0  0  0  0  0  0  0  0  0  0
   -0.5838    0.3908   10.0295 H   0  0  0  0  0  0  0  0  0  0  0  0
    1.7629   -0.3527    9.2931 H   0  0  0  0  0  0  0  0  0  0  0  0
   -0.4968   -0.7653    7.2872 H   0  0  0  0  0  0  0  0  0  0  0  0
   -0.2051   -1.6891    8.7739 H   0  0  0  0  0  0  0  0  0  0  0  0
    0.9452   -1.7572    7.4659 H   0  0  0  0  0  0  0  0  0  0  0  0
   -0.2870    4.3608    6.2455 H   0  0  0  0  0  0  0  0  0  0  0  0
    1.2419    5.0464    6.1171 H   0  0  0  0  0  0  0  0  0  0  0  0
  1  2  1  0
  1 31  1  0
  1 32  1  0
  1 33  1  0
  2  3  1  0
  3 19  1  0
  3  4  1  0
  3 34  1  1
  4  5  1  0
  4 35  1  0
  4 36  1  0
  5 30  1  0
  5  6  1  1
  5  7  1  0
  6 37  1  0
  7  8  1  0
  7  9  1  0
  7 38  1  6
  8 39  1  0
  9 13  1  0
  9 10  1  0
  9 40  1  6
 10 11  1  0
 10 41  1  0
 10 42  1  0
 11 30  1  0
 11 12  1  0
 11 43  1  1
 12 13  1  0
 12 44  1  0
 12 45  1  0
 13 14  1  6
 13 15  1  0
 14 46  1  0
 14 47  1  0
 14 48  1  0
 15 16  1  0
 15 49  1  0
 15 50  1  0
 16 24  1  0
 16 17  1  0
 16 51  1  1
 17 30  1  0
 17 18  2  0
 18 19  1  0
 18 21  1  0
 19 20  1  0
 19 52  1  6
 20 53  1  0
 20 54  1  0
 20 55  1  0
 21 22  1  1
 21 23  1  0
 21 26  1  0
 22 56  1  0
 23 24  1  0
 23 57  1  0
 23 58  1  0
 24 25  1  0
 24 59  1  1
 25 60  1  0
 25 61  1  0
 25 62  1  0
 26 27  2  0
 26 28  1  0
 28 29  1  0
 30 29  1  1
 29 63  1  0
 29 64  1  0
M  END
>  <i_m_ct_stereo_status>  (106) 
1

>  <s_m_source_file>  (106) 
/var/tmp/pbs.5076255.sched01/tmpp9awzhar/40nweoahkg.sdf

>  <i_m_source_file_index>  (106) 
1

>  <i_lp_mmshare_version>  (106) 
48012

>  <i_f3d_flags>  (106) 
0

>  <s_epik_input>  (106) 
W09IXVtDQF0xKFtDQF0yMzQpW0NIMl1bQ0BASF0oT1tDSDNdKVtDQEhdKFtDSDNdKUM1PUMzW0NASF0oW0NIMl1bQ0BdNihbQ0gzXSlbQ0BASF0oW0NAQEhdMVtPSF0pW0NIMl1bQ0BASF0yW0NIMl02KVtDQEhdKFtDSDNdKVtDSDJdW0NAQF01KFtPSF0pQyg9TylPW0NIMl00

>  <s_epik_cmdline>  (106) 
J2VwaWtfcHl0aG9uJywgJy1waHQnLCAnMi4wJywgJy1waCcsICc3LjAnLCAnLXRuJywgJzgnLCAnLW1hJywgJzIwMCcsICctaW1hZScsICc8aW5maWxlLm1hZT4nLCAnLW9tYWUnLCAnPG91dGZpbGUubWFlPic=

>  <r_lp_tautomer_probability>  (106) 
1

>  <r_epik_Ionization_Penalty>  (106) 
2.51747e-07

>  <r_epik_Ionization_Penalty_Charging>  (106) 
0

>  <r_epik_Ionization_Penalty_Neutral>  (106) 
2.51747e-07

>  <r_epik_State_Penalty>  (106) 
-0

>  <r_epik_Charging_Adjusted_Penalty>  (106) 
0

>  <i_epik_Tot_Q>  (106) 
0

>  <i_epik_Tot_abs_Q>  (106) 
0

>  <s_epik_Chemistry_Notes>  (106) 
This compound has an ester and may undergo hydrolysis at high or low pH.

>  <s_lp_Force_Field>  (106) 
OPLS3e

>  <r_lp_Energy>  (106) 
224.815

>  <b_lp_Chiralities_Consistent>  (106) 
1

>  <s_lp_Variant>  (106) 
28:0-1

>  <s_i_glide_gridfile>  (106) 
pfpi4k_grid

>  <i_i_glide_lignum>  (106) 
1

>  <i_i_glide_rotatable_bonds>  (106) 
4

>  <r_i_docking_score>  (106) 
-1.83699

>  <r_i_glide_ligand_efficiency>  (106) 
-0.0612329

>  <r_i_glide_ligand_efficiency_sa>  (106) 
-0.190265

>  <r_i_glide_ligand_efficiency_ln>  (106) 
-0.417384

>  <r_i_glide_gscore>  (106) 
-1.83699

>  <r_i_glide_lipo>  (106) 
-0.217188

>  <r_i_glide_hbond>  (106) 
0

>  <r_i_glide_metal>  (106) 
-0

>  <r_i_glide_rewards>  (106) 
-0.555524

>  <r_i_glide_evdw>  (106) 
-18.067

>  <r_i_glide_ecoul>  (106) 
-1.07098

>  <r_i_glide_erotb>  (106) 
0

>  <r_i_glide_esite>  (106) 
-0.000276409

>  <r_i_glide_emodel>  (106) 
-19.3438

>  <r_i_glide_energy>  (106) 
-19.138

>  <r_i_glide_einternal>  (106) 
3.2658

>  <r_i_glide_intrahb_reward>  (106) 
-0

>  <i_i_glide_confnum>  (106) 
2

>  <i_i_glide_posenum>  (106) 
31

>  <r_i_glide_eff_state_penalty>  (106) 
0

>  <ligand_id>  (106) 
28

>  <original_smiles>  (106) 
COC1CC2(O)C(O)C3CC4CC3(C)CC3C5=C(C1C)C(O)(CC3C)C(=O)OCC542

>  <smiles>  (106) 
[H]OC12C(=O)OC([H])([H])C34C5=C1C([H])(C([H])([H])[H])C([H])(OC([H])([H])[H])C([H])([H])C3(O[H])C([H])(O[H])C1([H])C([H])([H])C4([H])C([H])([H])C1(C([H])([H])[H])C([H])([H])C5([H])C([H])(C([H])([H])[H])C2([H])[H]

$$$$
29:0:0
     RDKit          3D

 16 17  0  0  1  0  0  0  0  0999 V2000
   -0.0230    1.7429    1.9143 N   0  0  0  0  0  0  0  0  0  0  0  0
   -0.5875    1.5563    3.1652 C   0  0  0  0  0  0  0  0  0  0  0  0
   -0.9356    2.6603    3.8351 N   0  0  0  0  0  0  0  0  0  0  0  0
   -1.4479    2.5031    5.0651 C   0  0  0  0  0  0  0  0  0  0  0  0
   -1.7926    3.5987    5.7688 N   0  0  0  0  0  0  0  0  0  0  0  0
   -2.2939    3.3980    6.9990 C   0  0  0  0  0  0  0  0  0  0  0  0
   -2.4706    2.1220    7.5461 C   0  0  0  0  0  0  0  0  0  0  0  0
   -2.1438    1.0054    6.8771 N   0  0  0  0  0  0  0  0  0  0  0  0
   -1.6281    1.2008    5.6397 C   0  0  0  0  0  0  0  0  0  0  0  0
   -1.2227    0.1371    4.8048 C   0  0  0  0  0  0  0  0  0  0  0  0
   -1.3901   -1.4839    5.3699 Cl  0  0  0  0  0  0  0  0  0  0  0  0
   -0.7023    0.2920    3.5815 N   0  0  0  0  0  0  0  0  0  0  0  0
    0.0470    2.6837    1.5159 H   0  0  0  0  0  0  0  0  0  0  0  0
   -2.5637    4.2817    7.5546 H   0  0  0  0  0  0  0  0  0  0  0  0
   -2.8819    1.9930    8.5356 H   0  0  0  0  0  0  0  0  0  0  0  0
    0.1975    0.9733    1.2980 H   0  0  0  0  0  0  0  0  0  0  0  0
  1  2  1  0
  1 13  1  0
  1 16  1  0
  2 12  2  0
  2  3  1  0
  3  4  2  0
  4  9  1  0
  4  5  1  0
  5  6  2  0
  6  7  1  0
  6 14  1  0
  7  8  2  0
  7 15  1  0
  8  9  1  0
  9 10  2  0
 10 11  1  0
 10 12  1  0
M  END
>  <i_m_ct_stereo_status>  (107) 
1

>  <s_m_source_file>  (107) 
/var/tmp/pbs.5076255.sched01/tmpp9awzhar/40nweoahkg.sdf

>  <i_m_source_file_index>  (107) 
2

>  <i_lp_mmshare_version>  (107) 
48012

>  <i_f3d_flags>  (107) 
0

>  <s_epik_input>  (107) 
W0hdL049YyhcbjEpW25IXWMoQ2wpYyhjMTIpbltjSF1bY0hdbjI=

>  <s_epik_cmdline>  (107) 
J2VwaWtfcHl0aG9uJywgJy1waHQnLCAnMi4wJywgJy1waCcsICc3LjAnLCAnLXRuJywgJzgnLCAnLW1hJywgJzIwMCcsICctaW1hZScsICc8aW5maWxlLm1hZT4nLCAnLW9tYWUnLCAnPG91dGZpbGUubWFlPic=

>  <r_lp_tautomer_probability>  (107) 
1

>  <r_epik_Ionization_Penalty>  (107) 
2.68507e-05

>  <r_epik_Ionization_Penalty_Charging>  (107) 
0

>  <r_epik_Ionization_Penalty_Neutral>  (107) 
2.68507e-05

>  <r_epik_State_Penalty>  (107) 
-0

>  <r_epik_Charging_Adjusted_Penalty>  (107) 
0

>  <i_epik_Tot_Q>  (107) 
0

>  <i_epik_Tot_abs_Q>  (107) 
0

>  <s_lp_Force_Field>  (107) 
OPLS3e

>  <r_lp_Energy>  (107) 
12.6744

>  <b_lp_Chiralities_Consistent>  (107) 
1

>  <s_lp_Variant>  (107) 
29:0-1

>  <s_i_glide_gridfile>  (107) 
pfpi4k_grid

>  <i_i_glide_lignum>  (107) 
2

>  <i_i_glide_rotatable_bonds>  (107) 
0

>  <r_i_docking_score>  (107) 
-4.18678

>  <r_i_glide_ligand_efficiency>  (107) 
-0.348899

>  <r_i_glide_ligand_efficiency_sa>  (107) 
-0.798778

>  <r_i_glide_ligand_efficiency_ln>  (107) 
-1.2014

>  <r_i_glide_gscore>  (107) 
-4.18678

>  <r_i_glide_lipo>  (107) 
-0.0944587

>  <r_i_glide_hbond>  (107) 
-0.32

>  <r_i_glide_metal>  (107) 
-0

>  <r_i_glide_rewards>  (107) 
-2.17103

>  <r_i_glide_evdw>  (107) 
-15.2502

>  <r_i_glide_ecoul>  (107) 
-4.78328

>  <r_i_glide_erotb>  (107) 
0

>  <r_i_glide_esite>  (107) 
-0.121291

>  <r_i_glide_emodel>  (107) 
-26.5203

>  <r_i_glide_energy>  (107) 
-20.0335

>  <r_i_glide_einternal>  (107) 
0

>  <r_i_glide_intrahb_reward>  (107) 
-0

>  <i_i_glide_confnum>  (107) 
2

>  <i_i_glide_posenum>  (107) 
28

>  <r_i_glide_eff_state_penalty>  (107) 
0

>  <ligand_id>  (107) 
29

>  <original_smiles>  (107) 
N=c1nc2nccnc2c(Cl)[nH]1

>  <smiles>  (107) 
[H]c1nc2nc(N([H])[H])nc(Cl)c2nc1[H]

$$$$
29:0:1
     RDKit          3D

 16 17  0  0  1  0  0  0  0  0999 V2000
   -0.9575    2.5307    2.5410 N   0  0  0  0  0  0  0  0  0  0  0  0
   -0.2396    1.3850    2.8420 C   0  0  0  0  0  0  0  0  0  0  0  0
   -0.7927    0.5610    3.7406 N   0  0  0  0  0  0  0  0  0  0  0  0
   -0.1045   -0.5458    4.0634 C   0  0  0  0  0  0  0  0  0  0  0  0
   -0.6342   -1.4041    4.9642 N   0  0  0  0  0  0  0  0  0  0  0  0
    0.0812   -2.5002    5.2555 C   0  0  0  0  0  0  0  0  0  0  0  0
    1.3261   -2.7690    4.6619 C   0  0  0  0  0  0  0  0  0  0  0  0
    1.8779   -1.9421    3.7625 N   0  0  0  0  0  0  0  0  0  0  0  0
    1.1659   -0.8338    3.4617 C   0  0  0  0  0  0  0  0  0  0  0  0
    1.6166    0.1317    2.5310 C   0  0  0  0  0  0  0  0  0  0  0  0
    3.1393   -0.0808    1.7386 Cl  0  0  0  0  0  0  0  0  0  0  0  0
    0.9312    1.2394    2.2205 N   0  0  0  0  0  0  0  0  0  0  0  0
   -1.8637    2.6946    2.9448 H   0  0  0  0  0  0  0  0  0  0  0  0
   -0.3503   -3.1787    5.9765 H   0  0  0  0  0  0  0  0  0  0  0  0
    1.8900   -3.6559    4.9115 H   0  0  0  0  0  0  0  0  0  0  0  0
   -0.5939    3.2051    1.8588 H   0  0  0  0  0  0  0  0  0  0  0  0
  1  2  1  0
  1 13  1  0
  1 16  1  0
  2 12  2  0
  2  3  1  0
  3  4  2  0
  4  9  1  0
  4  5  1  0
  5  6  2  0
  6  7  1  0
  6 14  1  0
  7  8  2  0
  7 15  1  0
  8  9  1  0
  9 10  2  0
 10 11  1  0
 10 12  1  0
M  END
>  <i_m_ct_stereo_status>  (108) 
1

>  <s_m_source_file>  (108) 
/var/tmp/pbs.5076255.sched01/tmpp9awzhar/40nweoahkg.sdf

>  <i_m_source_file_index>  (108) 
2

>  <i_lp_mmshare_version>  (108) 
48012

>  <i_f3d_flags>  (108) 
0

>  <s_epik_input>  (108) 
W0hdL049YyhcbjEpW25IXWMoQ2wpYyhjMTIpbltjSF1bY0hdbjI=

>  <s_epik_cmdline>  (108) 
J2VwaWtfcHl0aG9uJywgJy1waHQnLCAnMi4wJywgJy1waCcsICc3LjAnLCAnLXRuJywgJzgnLCAnLW1hJywgJzIwMCcsICctaW1hZScsICc8aW5maWxlLm1hZT4nLCAnLW9tYWUnLCAnPG91dGZpbGUubWFlPic=

>  <r_lp_tautomer_probability>  (108) 
1

>  <r_epik_Ionization_Penalty>  (108) 
2.68507e-05

>  <r_epik_Ionization_Penalty_Charging>  (108) 
0

>  <r_epik_Ionization_Penalty_Neutral>  (108) 
2.68507e-05

>  <r_epik_State_Penalty>  (108) 
-0

>  <r_epik_Charging_Adjusted_Penalty>  (108) 
0

>  <i_epik_Tot_Q>  (108) 
0

>  <i_epik_Tot_abs_Q>  (108) 
0

>  <s_lp_Force_Field>  (108) 
OPLS3e

>  <r_lp_Energy>  (108) 
12.6744

>  <b_lp_Chiralities_Consistent>  (108) 
1

>  <s_lp_Variant>  (108) 
29:0-1

>  <s_i_glide_gridfile>  (108) 
pfpi4k_grid

>  <i_i_glide_lignum>  (108) 
2

>  <i_i_glide_rotatable_bonds>  (108) 
0

>  <r_i_docking_score>  (108) 
-3.66086

>  <r_i_glide_ligand_efficiency>  (108) 
-0.305072

>  <r_i_glide_ligand_efficiency_sa>  (108) 
-0.698441

>  <r_i_glide_ligand_efficiency_ln>  (108) 
-1.05049

>  <r_i_glide_gscore>  (108) 
-3.66086

>  <r_i_glide_lipo>  (108) 
-0.00593936

>  <r_i_glide_hbond>  (108) 
-0.16

>  <r_i_glide_metal>  (108) 
-0

>  <r_i_glide_rewards>  (108) 
-2.17103

>  <r_i_glide_evdw>  (108) 
-13.6205

>  <r_i_glide_ecoul>  (108) 
-3.20239

>  <r_i_glide_erotb>  (108) 
0

>  <r_i_glide_esite>  (108) 
-0.162511

>  <r_i_glide_emodel>  (108) 
-22.4991

>  <r_i_glide_energy>  (108) 
-16.8229

>  <r_i_glide_einternal>  (108) 
0

>  <r_i_glide_intrahb_reward>  (108) 
-0

>  <i_i_glide_confnum>  (108) 
2

>  <i_i_glide_posenum>  (108) 
3

>  <r_i_glide_eff_state_penalty>  (108) 
0

>  <ligand_id>  (108) 
29

>  <original_smiles>  (108) 
N=c1nc2nccnc2c(Cl)[nH]1

>  <smiles>  (108) 
[H]c1nc2nc(N([H])[H])nc(Cl)c2nc1[H]

$$$$
29:0:2
     RDKit          3D

 16 17  0  0  1  0  0  0  0  0999 V2000
    0.2861    0.1574    2.4372 N   0  0  0  0  0  0  0  0  0  0  0  0
   -0.4523    0.9550    3.2981 C   0  0  0  0  0  0  0  0  0  0  0  0
   -0.4712    0.5846    4.5825 N   0  0  0  0  0  0  0  0  0  0  0  0
   -1.1725    1.3533    5.4314 C   0  0  0  0  0  0  0  0  0  0  0  0
   -1.2241    1.0035    6.7363 N   0  0  0  0  0  0  0  0  0  0  0  0
   -1.9112    1.8089    7.5574 C   0  0  0  0  0  0  0  0  0  0  0  0
   -2.5904    2.9494    7.1008 C   0  0  0  0  0  0  0  0  0  0  0  0
   -2.5811    3.3163    5.8091 N   0  0  0  0  0  0  0  0  0  0  0  0
   -1.8695    2.5231    4.9768 C   0  0  0  0  0  0  0  0  0  0  0  0
   -1.7694    2.7685    3.5869 C   0  0  0  0  0  0  0  0  0  0  0  0
   -2.5870    4.1208    2.8845 Cl  0  0  0  0  0  0  0  0  0  0  0  0
   -1.0722    1.9961    2.7481 N   0  0  0  0  0  0  0  0  0  0  0  0
    0.7834   -0.6480    2.7766 H   0  0  0  0  0  0  0  0  0  0  0  0
   -1.9219    1.5350    8.6030 H   0  0  0  0  0  0  0  0  0  0  0  0
   -3.1601    3.5706    7.7757 H   0  0  0  0  0  0  0  0  0  0  0  0
    0.3393    0.3679    1.4442 H   0  0  0  0  0  0  0  0  0  0  0  0
  1  2  1  0
  1 13  1  0
  1 16  1  0
  2 12  2  0
  2  3  1  0
  3  4  2  0
  4  9  1  0
  4  5  1  0
  5  6  2  0
  6  7  1  0
  6 14  1  0
  7  8  2  0
  7 15  1  0
  8  9  1  0
  9 10  2  0
 10 11  1  0
 10 12  1  0
M  END
>  <i_m_ct_stereo_status>  (109) 
1

>  <s_m_source_file>  (109) 
/var/tmp/pbs.5076255.sched01/tmpp9awzhar/40nweoahkg.sdf

>  <i_m_source_file_index>  (109) 
2

>  <i_lp_mmshare_version>  (109) 
48012

>  <i_f3d_flags>  (109) 
0

>  <s_epik_input>  (109) 
W0hdL049YyhcbjEpW25IXWMoQ2wpYyhjMTIpbltjSF1bY0hdbjI=

>  <s_epik_cmdline>  (109) 
J2VwaWtfcHl0aG9uJywgJy1waHQnLCAnMi4wJywgJy1waCcsICc3LjAnLCAnLXRuJywgJzgnLCAnLW1hJywgJzIwMCcsICctaW1hZScsICc8aW5maWxlLm1hZT4nLCAnLW9tYWUnLCAnPG91dGZpbGUubWFlPic=

>  <r_lp_tautomer_probability>  (109) 
1

>  <r_epik_Ionization_Penalty>  (109) 
2.68507e-05

>  <r_epik_Ionization_Penalty_Charging>  (109) 
0

>  <r_epik_Ionization_Penalty_Neutral>  (109) 
2.68507e-05

>  <r_epik_State_Penalty>  (109) 
-0

>  <r_epik_Charging_Adjusted_Penalty>  (109) 
0

>  <i_epik_Tot_Q>  (109) 
0

>  <i_epik_Tot_abs_Q>  (109) 
0

>  <s_lp_Force_Field>  (109) 
OPLS3e

>  <r_lp_Energy>  (109) 
12.6744

>  <b_lp_Chiralities_Consistent>  (109) 
1

>  <s_lp_Variant>  (109) 
29:0-1

>  <s_i_glide_gridfile>  (109) 
pfpi4k_grid

>  <i_i_glide_lignum>  (109) 
2

>  <i_i_glide_rotatable_bonds>  (109) 
0

>  <r_i_docking_score>  (109) 
-3.57658

>  <r_i_glide_ligand_efficiency>  (109) 
-0.298048

>  <r_i_glide_ligand_efficiency_sa>  (109) 
-0.68236

>  <r_i_glide_ligand_efficiency_ln>  (109) 
-1.02631

>  <r_i_glide_gscore>  (109) 
-3.57658

>  <r_i_glide_lipo>  (109) 
-0.145185

>  <r_i_glide_hbond>  (109) 
-0.0218745

>  <r_i_glide_metal>  (109) 
-0

>  <r_i_glide_rewards>  (109) 
-2.17103

>  <r_i_glide_evdw>  (109) 
-17.0415

>  <r_i_glide_ecoul>  (109) 
-1.9321

>  <r_i_glide_erotb>  (109) 
0

>  <r_i_glide_esite>  (109) 
-0.0965985

>  <r_i_glide_emodel>  (109) 
-24.5174

>  <r_i_glide_energy>  (109) 
-18.9736

>  <r_i_glide_einternal>  (109) 
0

>  <r_i_glide_intrahb_reward>  (109) 
-0

>  <i_i_glide_confnum>  (109) 
2

>  <i_i_glide_posenum>  (109) 
23

>  <r_i_glide_eff_state_penalty>  (109) 
0

>  <ligand_id>  (109) 
29

>  <original_smiles>  (109) 
N=c1nc2nccnc2c(Cl)[nH]1

>  <smiles>  (109) 
[H]c1nc2nc(N([H])[H])nc(Cl)c2nc1[H]

$$$$
30:0:0
     RDKit          3D

 29 30  0  0  1  0  0  0  0  0999 V2000
    3.0872   -3.1827    0.9000 C   0  0  0  0  0  0  0  0  0  0  0  0
    4.0523   -3.0645   -0.2671 C   0  0  0  0  0  0  0  0  0  0  0  0
    5.3413   -2.6737   -0.0975 C   0  0  0  0  0  0  0  0  0  0  0  0
    6.2428   -2.5358   -1.3117 C   0  0  0  0  0  0  0  0  0  0  0  0
    5.4308   -2.9231   -2.5546 C   0  0  1  0  0  0  0  0  0  0  0  0
    4.6645   -4.2386   -2.4009 C   0  0  0  0  0  0  0  0  0  0  0  0
    3.5677   -3.3859   -1.6965 C   0  0  1  0  0  0  0  0  0  0  0  0
    2.1026   -3.8500   -1.7509 C   0  0  0  0  0  0  0  0  0  0  0  0
    4.0192   -2.2727   -2.7175 C   0  0  0  0  0  0  0  0  0  0  0  0
    3.8556   -0.8090   -2.2866 C   0  0  0  0  0  0  0  0  0  0  0  0
    3.3620   -2.3047   -4.1171 C   0  0  0  0  0  0  0  0  0  0  0  0
    2.7380   -4.2099    1.0260 H   0  0  0  0  0  0  0  0  0  0  0  0
    2.2269   -2.5380    0.7246 H   0  0  0  0  0  0  0  0  0  0  0  0
    3.5503   -2.8698    1.8375 H   0  0  0  0  0  0  0  0  0  0  0  0
    5.7385   -2.4124    0.8706 H   0  0  0  0  0  0  0  0  0  0  0  0
    6.5697   -1.5013   -1.3834 H   0  0  0  0  0  0  0  0  0  0  0  0
    7.1348   -3.1577   -1.2063 H   0  0  0  0  0  0  0  0  0  0  0  0
    6.0131   -2.9055   -3.4721 H   0  0  0  0  0  0  0  0  0  0  0  0
    4.4408   -4.6534   -3.3754 H   0  0  0  0  0  0  0  0  0  0  0  0
    5.1287   -4.9791   -1.7489 H   0  0  0  0  0  0  0  0  0  0  0  0
    1.8177   -4.1829   -2.7423 H   0  0  0  0  0  0  0  0  0  0  0  0
    1.4106   -3.0575   -1.4909 H   0  0  0  0  0  0  0  0  0  0  0  0
    1.8933   -4.6877   -1.0766 H   0  0  0  0  0  0  0  0  0  0  0  0
    2.7992   -0.5365   -2.2936 H   0  0  0  0  0  0  0  0  0  0  0  0
    4.3711   -0.1206   -2.9622 H   0  0  0  0  0  0  0  0  0  0  0  0
    4.2286   -0.5896   -1.2884 H   0  0  0  0  0  0  0  0  0  0  0  0
    2.3215   -1.9721   -4.0766 H   0  0  0  0  0  0  0  0  0  0  0  0
    3.3328   -3.2870   -4.5904 H   0  0  0  0  0  0  0  0  0  0  0  0
    3.8623   -1.6230   -4.8104 H   0  0  0  0  0  0  0  0  0  0  0  0
  1  2  1  0
  1 12  1  0
  1 13  1  0
  1 14  1  0
  2  7  1  0
  2  3  2  0
  3  4  1  0
  3 15  1  0
  4  5  1  0
  4 16  1  0
  4 17  1  0
  5  9  1  0
  5  6  1  0
  5 18  1  6
  6  7  1  0
  6 19  1  0
  6 20  1  0
  7  8  1  1
  7  9  1  0
  8 21  1  0
  8 22  1  0
  8 23  1  0
  9 10  1  0
  9 11  1  0
 10 24  1  0
 10 25  1  0
 10 26  1  0
 11 27  1  0
 11 28  1  0
 11 29  1  0
M  END
>  <i_m_ct_stereo_status>  (110) 
1

>  <s_m_source_file>  (110) 
/var/tmp/pbs.5076255.sched01/tmpp9awzhar/40nweoahkg.sdf

>  <i_m_source_file_index>  (110) 
3

>  <i_lp_mmshare_version>  (110) 
48012

>  <i_f3d_flags>  (110) 
0

>  <s_epik_input>  (110) 
W0NIM11bQ0BAXTEyQyhbQ0gzXSk9W0NIXVtDSDJdW0NAQEhdKFtDSDJdMSlDMihbQ0gzXSlbQ0gzXQ==

>  <s_epik_cmdline>  (110) 
J2VwaWtfcHl0aG9uJywgJy1waHQnLCAnMi4wJywgJy1waCcsICc3LjAnLCAnLXRuJywgJzgnLCAnLW1hJywgJzIwMCcsICctaW1hZScsICc8aW5maWxlLm1hZT4nLCAnLW9tYWUnLCAnPG91dGZpbGUubWFlPic=

>  <r_lp_tautomer_probability>  (110) 
1

>  <r_epik_Ionization_Penalty>  (110) 
0

>  <r_epik_Ionization_Penalty_Charging>  (110) 
0

>  <r_epik_Ionization_Penalty_Neutral>  (110) 
0

>  <r_epik_State_Penalty>  (110) 
-0

>  <r_epik_Charging_Adjusted_Penalty>  (110) 
0

>  <i_epik_Tot_Q>  (110) 
0

>  <i_epik_Tot_abs_Q>  (110) 
0

>  <s_lp_Force_Field>  (110) 
OPLS3e

>  <r_lp_Energy>  (110) 
28.3866

>  <b_lp_Chiralities_Consistent>  (110) 
1

>  <s_lp_Variant>  (110) 
30:0-1

>  <s_i_glide_gridfile>  (110) 
pfpi4k_grid

>  <i_i_glide_lignum>  (110) 
3

>  <i_i_glide_rotatable_bonds>  (110) 
0

>  <r_i_docking_score>  (110) 
-3.15179

>  <r_i_glide_ligand_efficiency>  (110) 
-0.286527

>  <r_i_glide_ligand_efficiency_sa>  (110) 
-0.63723

>  <r_i_glide_ligand_efficiency_ln>  (110) 
-0.927572

>  <r_i_glide_gscore>  (110) 
-3.15179

>  <r_i_glide_lipo>  (110) 
-0.319111

>  <r_i_glide_hbond>  (110) 
0

>  <r_i_glide_metal>  (110) 
-0

>  <r_i_glide_rewards>  (110) 
-2.25

>  <r_i_glide_evdw>  (110) 
-13.6047

>  <r_i_glide_ecoul>  (110) 
0.650337

>  <r_i_glide_erotb>  (110) 
0

>  <r_i_glide_esite>  (110) 
0

>  <r_i_glide_emodel>  (110) 
-15.3655

>  <r_i_glide_energy>  (110) 
-12.9543

>  <r_i_glide_einternal>  (110) 
0

>  <r_i_glide_intrahb_reward>  (110) 
-0

>  <i_i_glide_confnum>  (110) 
2

>  <i_i_glide_posenum>  (110) 
2

>  <r_i_glide_eff_state_penalty>  (110) 
0

>  <ligand_id>  (110) 
30

>  <original_smiles>  (110) 
CC1=CCC2CC1(C)C2(C)C

>  <smiles>  (110) 
[H]C1=C(C([H])([H])[H])C2(C([H])([H])[H])C([H])([H])C([H])(C1([H])[H])C2(C([H])([H])[H])C([H])([H])[H]

$$$$
30:0:1
     RDKit          3D

 29 30  0  0  1  0  0  0  0  0999 V2000
    2.7751   -3.0532   -2.4779 C   0  0  0  0  0  0  0  0  0  0  0  0
    3.6207   -3.1550   -1.2182 C   0  0  0  0  0  0  0  0  0  0  0  0
    3.4850   -4.1722   -0.3349 C   0  0  0  0  0  0  0  0  0  0  0  0
    4.3404   -4.1954    0.9233 C   0  0  0  0  0  0  0  0  0  0  0  0
    5.2530   -2.9552    0.8928 C   0  0  1  0  0  0  0  0  0  0  0  0
    5.9806   -2.7557   -0.4526 C   0  0  0  0  0  0  0  0  0  0  0  0
    4.6644   -2.0699   -0.9113 C   0  0  1  0  0  0  0  0  0  0  0  0
    4.7542   -0.9803   -1.9860 C   0  0  0  0  0  0  0  0  0  0  0  0
    4.5570   -1.6020    0.5830 C   0  0  0  0  0  0  0  0  0  0  0  0
    3.1378   -1.3769    1.1594 C   0  0  0  0  0  0  0  0  0  0  0  0
    5.3294   -0.3259    0.9625 C   0  0  0  0  0  0  0  0  0  0  0  0
    3.3946   -3.1043   -3.3757 H   0  0  0  0  0  0  0  0  0  0  0  0
    2.2235   -2.1172   -2.4821 H   0  0  0  0  0  0  0  0  0  0  0  0
    2.0393   -3.8578   -2.5408 H   0  0  0  0  0  0  0  0  0  0  0  0
    2.7681   -4.9673   -0.4813 H   0  0  0  0  0  0  0  0  0  0  0  0
    3.6908   -4.1789    1.7965 H   0  0  0  0  0  0  0  0  0  0  0  0
    4.9172   -5.1194    0.9655 H   0  0  0  0  0  0  0  0  0  0  0  0
    5.9220   -2.8963    1.7506 H   0  0  0  0  0  0  0  0  0  0  0  0
    6.8517   -2.1099   -0.4009 H   0  0  0  0  0  0  0  0  0  0  0  0
    6.2121   -3.6826   -0.9808 H   0  0  0  0  0  0  0  0  0  0  0  0
    5.5593   -0.2801   -1.7892 H   0  0  0  0  0  0  0  0  0  0  0  0
    3.8336   -0.3921   -2.0231 H   0  0  0  0  0  0  0  0  0  0  0  0
    4.9267   -1.3853   -2.9911 H   0  0  0  0  0  0  0  0  0  0  0  0
    2.6647   -0.4820    0.7512 H   0  0  0  0  0  0  0  0  0  0  0  0
    3.1563   -1.2573    2.2441 H   0  0  0  0  0  0  0  0  0  0  0  0
    2.4451   -2.1872    0.9595 H   0  0  0  0  0  0  0  0  0  0  0  0
    4.8250    0.5569    0.5641 H   0  0  0  0  0  0  0  0  0  0  0  0
    6.3510   -0.3011    0.5813 H   0  0  0  0  0  0  0  0  0  0  0  0
    5.3884   -0.1854    2.0469 H   0  0  0  0  0  0  0  0  0  0  0  0
  1  2  1  0
  1 12  1  0
  1 13  1  0
  1 14  1  0
  2  7  1  0
  2  3  2  0
  3  4  1  0
  3 15  1  0
  4  5  1  0
  4 16  1  0
  4 17  1  0
  5  9  1  0
  5  6  1  0
  5 18  1  1
  6  7  1  0
  6 19  1  0
  6 20  1  0
  7  8  1  6
  7  9  1  0
  8 21  1  0
  8 22  1  0
  8 23  1  0
  9 10  1  0
  9 11  1  0
 10 24  1  0
 10 25  1  0
 10 26  1  0
 11 27  1  0
 11 28  1  0
 11 29  1  0
M  END
>  <i_m_ct_stereo_status>  (111) 
1

>  <s_m_source_file>  (111) 
/var/tmp/pbs.5076255.sched01/tmpp9awzhar/40nweoahkg.sdf

>  <i_m_source_file_index>  (111) 
3

>  <i_lp_mmshare_version>  (111) 
48012

>  <i_f3d_flags>  (111) 
0

>  <s_epik_input>  (111) 
W0NIM11bQ0BAXTEyQyhbQ0gzXSk9W0NIXVtDSDJdW0NAQEhdKFtDSDJdMSlDMihbQ0gzXSlbQ0gzXQ==

>  <s_epik_cmdline>  (111) 
J2VwaWtfcHl0aG9uJywgJy1waHQnLCAnMi4wJywgJy1waCcsICc3LjAnLCAnLXRuJywgJzgnLCAnLW1hJywgJzIwMCcsICctaW1hZScsICc8aW5maWxlLm1hZT4nLCAnLW9tYWUnLCAnPG91dGZpbGUubWFlPic=

>  <r_lp_tautomer_probability>  (111) 
1

>  <r_epik_Ionization_Penalty>  (111) 
0

>  <r_epik_Ionization_Penalty_Charging>  (111) 
0

>  <r_epik_Ionization_Penalty_Neutral>  (111) 
0

>  <r_epik_State_Penalty>  (111) 
-0

>  <r_epik_Charging_Adjusted_Penalty>  (111) 
0

>  <i_epik_Tot_Q>  (111) 
0

>  <i_epik_Tot_abs_Q>  (111) 
0

>  <s_lp_Force_Field>  (111) 
OPLS3e

>  <r_lp_Energy>  (111) 
28.3866

>  <b_lp_Chiralities_Consistent>  (111) 
1

>  <s_lp_Variant>  (111) 
30:0-1

>  <s_i_glide_gridfile>  (111) 
pfpi4k_grid

>  <i_i_glide_lignum>  (111) 
3

>  <i_i_glide_rotatable_bonds>  (111) 
0

>  <r_i_docking_score>  (111) 
-3.14817

>  <r_i_glide_ligand_efficiency>  (111) 
-0.286197

>  <r_i_glide_ligand_efficiency_sa>  (111) 
-0.636496

>  <r_i_glide_ligand_efficiency_ln>  (111) 
-0.926504

>  <r_i_glide_gscore>  (111) 
-3.14817

>  <r_i_glide_lipo>  (111) 
-0.219171

>  <r_i_glide_hbond>  (111) 
0

>  <r_i_glide_metal>  (111) 
-0

>  <r_i_glide_rewards>  (111) 
-2.25

>  <r_i_glide_evdw>  (111) 
-12.8929

>  <r_i_glide_ecoul>  (111) 
-0.228991

>  <r_i_glide_erotb>  (111) 
0

>  <r_i_glide_esite>  (111) 
0

>  <r_i_glide_emodel>  (111) 
-15.5592

>  <r_i_glide_energy>  (111) 
-13.1219

>  <r_i_glide_einternal>  (111) 
0

>  <r_i_glide_intrahb_reward>  (111) 
-0

>  <i_i_glide_confnum>  (111) 
2

>  <i_i_glide_posenum>  (111) 
22

>  <r_i_glide_eff_state_penalty>  (111) 
0

>  <ligand_id>  (111) 
30

>  <original_smiles>  (111) 
CC1=CCC2CC1(C)C2(C)C

>  <smiles>  (111) 
[H]C1=C(C([H])([H])[H])C2(C([H])([H])[H])C([H])([H])C([H])(C1([H])[H])C2(C([H])([H])[H])C([H])([H])[H]

$$$$
30:0:2
     RDKit          3D

 29 30  0  0  1  0  0  0  0  0999 V2000
    3.2707   -0.1710   -3.3617 C   0  0  0  0  0  0  0  0  0  0  0  0
    3.7788   -1.5697   -3.1009 C   0  0  0  0  0  0  0  0  0  0  0  0
    3.8388   -2.4804   -4.1019 C   0  0  0  0  0  0  0  0  0  0  0  0
    4.3373   -3.8838   -3.8036 C   0  0  0  0  0  0  0  0  0  0  0  0
    4.6473   -3.9615   -2.2989 C   0  0  1  0  0  0  0  0  0  0  0  0
    5.5308   -2.8013   -1.7959 C   0  0  0  0  0  0  0  0  0  0  0  0
    4.1978   -2.0114   -1.6969 C   0  0  1  0  0  0  0  0  0  0  0  0
    4.0766   -0.9122   -0.6397 C   0  0  0  0  0  0  0  0  0  0  0  0
    3.5560   -3.4032   -1.3333 C   0  0  0  0  0  0  0  0  0  0  0  0
    2.0662   -3.6159   -1.7134 C   0  0  0  0  0  0  0  0  0  0  0  0
    3.6217   -3.8461    0.1446 C   0  0  0  0  0  0  0  0  0  0  0  0
    4.0350    0.5726   -3.1292 H   0  0  0  0  0  0  0  0  0  0  0  0
    2.3970    0.0097   -2.7327 H   0  0  0  0  0  0  0  0  0  0  0  0
    2.9791   -0.0259   -4.4035 H   0  0  0  0  0  0  0  0  0  0  0  0
    3.4758   -2.2440   -5.0842 H   0  0  0  0  0  0  0  0  0  0  0  0
    3.5567   -4.5823   -4.0931 H   0  0  0  0  0  0  0  0  0  0  0  0
    5.2100   -4.1294   -4.4106 H   0  0  0  0  0  0  0  0  0  0  0  0
    5.0200   -4.9339   -1.9855 H   0  0  0  0  0  0  0  0  0  0  0  0
    6.0470   -2.9837   -0.8588 H   0  0  0  0  0  0  0  0  0  0  0  0
    6.2251   -2.4210   -2.5460 H   0  0  0  0  0  0  0  0  0  0  0  0
    4.4797   -1.2219    0.3187 H   0  0  0  0  0  0  0  0  0  0  0  0
    3.0229   -0.6563   -0.4723 H   0  0  0  0  0  0  0  0  0  0  0  0
    4.6118   -0.0053   -0.9247 H   0  0  0  0  0  0  0  0  0  0  0  0
    1.3857   -3.0563   -1.0778 H   0  0  0  0  0  0  0  0  0  0  0  0
    1.7629   -4.6569   -1.5825 H   0  0  0  0  0  0  0  0  0  0  0  0
    1.8048   -3.3626   -2.7322 H   0  0  0  0  0  0  0  0  0  0  0  0
    2.9160   -3.2822    0.7631 H   0  0  0  0  0  0  0  0  0  0  0  0
    4.5996   -3.7100    0.6018 H   0  0  0  0  0  0  0  0  0  0  0  0
    3.3600   -4.9020    0.2720 H   0  0  0  0  0  0  0  0  0  0  0  0
  1  2  1  0
  1 12  1  0
  1 13  1  0
  1 14  1  0
  2  7  1  0
  2  3  2  0
  3  4  1  0
  3 15  1  0
  4  5  1  0
  4 16  1  0
  4 17  1  0
  5  9  1  0
  5  6  1  0
  5 18  1  1
  6  7  1  0
  6 19  1  0
  6 20  1  0
  7  8  1  1
  7  9  1  0
  8 21  1  0
  8 22  1  0
  8 23  1  0
  9 10  1  0
  9 11  1  0
 10 24  1  0
 10 25  1  0
 10 26  1  0
 11 27  1  0
 11 28  1  0
 11 29  1  0
M  END
>  <i_m_ct_stereo_status>  (112) 
1

>  <s_m_source_file>  (112) 
/var/tmp/pbs.5076255.sched01/tmpp9awzhar/40nweoahkg.sdf

>  <i_m_source_file_index>  (112) 
3

>  <i_lp_mmshare_version>  (112) 
48012

>  <i_f3d_flags>  (112) 
0

>  <s_epik_input>  (112) 
W0NIM11bQ0BAXTEyQyhbQ0gzXSk9W0NIXVtDSDJdW0NAQEhdKFtDSDJdMSlDMihbQ0gzXSlbQ0gzXQ==

>  <s_epik_cmdline>  (112) 
J2VwaWtfcHl0aG9uJywgJy1waHQnLCAnMi4wJywgJy1waCcsICc3LjAnLCAnLXRuJywgJzgnLCAnLW1hJywgJzIwMCcsICctaW1hZScsICc8aW5maWxlLm1hZT4nLCAnLW9tYWUnLCAnPG91dGZpbGUubWFlPic=

>  <r_lp_tautomer_probability>  (112) 
1

>  <r_epik_Ionization_Penalty>  (112) 
0

>  <r_epik_Ionization_Penalty_Charging>  (112) 
0

>  <r_epik_Ionization_Penalty_Neutral>  (112) 
0

>  <r_epik_State_Penalty>  (112) 
-0

>  <r_epik_Charging_Adjusted_Penalty>  (112) 
0

>  <i_epik_Tot_Q>  (112) 
0

>  <i_epik_Tot_abs_Q>  (112) 
0

>  <s_lp_Force_Field>  (112) 
OPLS3e

>  <r_lp_Energy>  (112) 
28.3866

>  <b_lp_Chiralities_Consistent>  (112) 
1

>  <s_lp_Variant>  (112) 
30:0-1

>  <s_i_glide_gridfile>  (112) 
pfpi4k_grid

>  <i_i_glide_lignum>  (112) 
3

>  <i_i_glide_rotatable_bonds>  (112) 
0

>  <r_i_docking_score>  (112) 
-3.05302

>  <r_i_glide_ligand_efficiency>  (112) 
-0.277547

>  <r_i_glide_ligand_efficiency_sa>  (112) 
-0.617259

>  <r_i_glide_ligand_efficiency_ln>  (112) 
-0.898503

>  <r_i_glide_gscore>  (112) 
-3.05302

>  <r_i_glide_lipo>  (112) 
-0.283542

>  <r_i_glide_hbond>  (112) 
0

>  <r_i_glide_metal>  (112) 
-0

>  <r_i_glide_rewards>  (112) 
-2.25

>  <r_i_glide_evdw>  (112) 
-13.6693

>  <r_i_glide_ecoul>  (112) 
1.09325

>  <r_i_glide_erotb>  (112) 
0

>  <r_i_glide_esite>  (112) 
0

>  <r_i_glide_emodel>  (112) 
-14.8817

>  <r_i_glide_energy>  (112) 
-12.576

>  <r_i_glide_einternal>  (112) 
0

>  <r_i_glide_intrahb_reward>  (112) 
-0

>  <i_i_glide_confnum>  (112) 
2

>  <i_i_glide_posenum>  (112) 
19

>  <r_i_glide_eff_state_penalty>  (112) 
0

>  <ligand_id>  (112) 
30

>  <original_smiles>  (112) 
CC1=CCC2CC1(C)C2(C)C

>  <smiles>  (112) 
[H]C1=C(C([H])([H])[H])C2(C([H])([H])[H])C([H])([H])C([H])(C1([H])[H])C2(C([H])([H])[H])C([H])([H])[H]

$$$$
31:0:0
     RDKit          3D

 35 37  0  0  1  0  0  0  0  0999 V2000
    7.8810   -5.4671    1.1512 C   0  0  0  0  0  0  0  0  0  0  0  0
    6.7498   -6.2253    1.0258 N   0  0  0  0  0  0  0  0  0  0  0  0
    5.8891   -5.2982    0.6474 C   0  0  0  0  0  0  0  0  0  0  0  0
    6.4406   -4.0717    0.5496 N   0  0  0  0  0  0  0  0  0  0  0  0
    7.7510   -4.1722    0.8543 N   0  0  0  0  0  0  0  0  0  0  0  0
    5.8392   -2.8381    0.0910 C   0  0  0  0  0  0  0  0  0  0  0  0
    4.2985   -2.9499    0.0323 C   0  0  1  0  0  0  0  0  0  0  0  0
    3.6666   -1.8394   -0.7285 N   0  0  0  0  0  0  0  0  0  0  0  0
    3.8375   -1.9497   -2.1964 C   0  0  0  0  0  0  0  0  0  0  0  0
    3.0782   -0.8815   -2.9559 C   0  0  2  0  0  0  0  0  0  0  0  0
    2.6291   -1.3685   -4.3264 C   0  0  0  0  0  0  0  0  0  0  0  0
    2.5963   -0.0778   -5.1048 C   0  0  0  0  0  0  0  0  0  0  0  0
    3.7900    0.6526   -4.5324 C   0  0  0  0  0  0  0  0  0  0  0  0
    3.9990    0.1572   -3.2135 O   0  0  0  0  0  0  0  0  0  0  0  0
    3.8628   -4.3475   -0.4767 C   0  0  0  0  0  0  0  0  0  0  0  0
    4.4437   -5.4952    0.3502 C   0  0  0  0  0  0  0  0  0  0  0  0
    8.8316   -5.8650    1.4615 H   0  0  0  0  0  0  0  0  0  0  0  0
    6.1580   -2.0206    0.7403 H   0  0  0  0  0  0  0  0  0  0  0  0
    6.2624   -2.6487   -0.8971 H   0  0  0  0  0  0  0  0  0  0  0  0
    3.9424   -2.8474    1.0528 H   0  0  0  0  0  0  0  0  0  0  0  0
    2.6715   -1.8388   -0.5406 H   0  0  0  0  0  0  0  0  0  0  0  0
    4.8863   -1.9255   -2.4828 H   0  0  0  0  0  0  0  0  0  0  0  0
    3.4330   -2.8889   -2.5527 H   0  0  0  0  0  0  0  0  0  0  0  0
    2.2210   -0.5010   -2.3893 H   0  0  0  0  0  0  0  0  0  0  0  0
    3.3683   -2.0601   -4.7342 H   0  0  0  0  0  0  0  0  0  0  0  0
    1.6747   -1.8964   -4.3242 H   0  0  0  0  0  0  0  0  0  0  0  0
    2.6966   -0.2364   -6.1742 H   0  0  0  0  0  0  0  0  0  0  0  0
    1.6917    0.4837   -4.9047 H   0  0  0  0  0  0  0  0  0  0  0  0
    4.6411    0.3581   -5.1193 H   0  0  0  0  0  0  0  0  0  0  0  0
    3.7058    1.7384   -4.5841 H   0  0  0  0  0  0  0  0  0  0  0  0
    2.7765   -4.4339   -0.5629 H   0  0  0  0  0  0  0  0  0  0  0  0
    4.2984   -4.5231   -1.4662 H   0  0  0  0  0  0  0  0  0  0  0  0
    4.3415   -6.4165   -0.2282 H   0  0  0  0  0  0  0  0  0  0  0  0
    3.9046   -5.6031    1.2925 H   0  0  0  0  0  0  0  0  0  0  0  0
    4.0362   -0.9612   -0.3989 H   0  0  0  0  0  0  0  0  0  0  0  0
  1  5  2  0
  1  2  1  0
  1 17  1  0
  2  3  2  0
  3 16  1  0
  3  4  1  0
  4  5  1  0
  4  6  1  0
  6  7  1  0
  6 18  1  0
  6 19  1  0
  7  8  1  0
  7 15  1  0
  7 20  1  1
  8  9  1  0
  8 21  1  0
  8 35  1  0
  9 10  1  0
  9 22  1  0
  9 23  1  0
 10 14  1  0
 10 11  1  0
 10 24  1  1
 11 12  1  0
 11 25  1  0
 11 26  1  0
 12 13  1  0
 12 27  1  0
 12 28  1  0
 13 14  1  0
 13 29  1  0
 13 30  1  0
 15 16  1  0
 15 31  1  0
 15 32  1  0
 16 33  1  0
 16 34  1  0
M  CHG  1   8   1
M  END
>  <i_m_ct_stereo_status>  (113) 
1

>  <s_m_source_file>  (113) 
/var/tmp/pbs.5076255.sched01/tmpp9awzhar/40nweoahkg.sdf

>  <i_m_source_file_index>  (113) 
4

>  <i_lp_mmshare_version>  (113) 
48012

>  <i_f3d_flags>  (113) 
0

>  <s_epik_input>  (113) 
bjFbY0hdbm4oYzEyKVtDSDJdW0NASF0oW0NIMl1bQ0gyXTIpW05IXVtDSDJdW0NAQEhdM1tDSDJdW0NIMl1bQ0gyXU8z

>  <s_epik_cmdline>  (113) 
J2VwaWtfcHl0aG9uJywgJy1waHQnLCAnMi4wJywgJy1waCcsICc3LjAnLCAnLXRuJywgJzgnLCAnLW1hJywgJzIwMCcsICctaW1hZScsICc8aW5maWxlLm1hZT4nLCAnLW9tYWUnLCAnPG91dGZpbGUubWFlPic=

>  <r_lp_tautomer_probability>  (113) 
1

>  <r_epik_Ionization_Penalty>  (113) 
0.0116264

>  <r_epik_Ionization_Penalty_Charging>  (113) 
0.0116247

>  <r_epik_Ionization_Penalty_Neutral>  (113) 
1.74386e-06

>  <r_epik_State_Penalty>  (113) 
0.00895614

>  <r_epik_Charging_Adjusted_Penalty>  (113) 
0.0205808

>  <i_epik_Tot_Q>  (113) 
1

>  <i_epik_Tot_abs_Q>  (113) 
1

>  <s_lp_Force_Field>  (113) 
OPLS3e

>  <r_lp_Energy>  (113) 
13.1934

>  <b_lp_Chiralities_Consistent>  (113) 
1

>  <s_lp_Variant>  (113) 
31:0-1

>  <s_i_glide_gridfile>  (113) 
pfpi4k_grid

>  <i_i_glide_lignum>  (113) 
4

>  <i_i_glide_rotatable_bonds>  (113) 
3

>  <r_i_docking_score>  (113) 
-3.35835

>  <r_i_glide_ligand_efficiency>  (113) 
-0.209897

>  <r_i_glide_ligand_efficiency_sa>  (113) 
-0.528907

>  <r_i_glide_ligand_efficiency_ln>  (113) 
-0.890198

>  <r_i_glide_gscore>  (113) 
-3.35835

>  <r_i_glide_lipo>  (113) 
-0.223037

>  <r_i_glide_hbond>  (113) 
-0.147864

>  <r_i_glide_metal>  (113) 
-0

>  <r_i_glide_rewards>  (113) 
-2.31764

>  <r_i_glide_evdw>  (113) 
-18.7778

>  <r_i_glide_ecoul>  (113) 
-4.50674

>  <r_i_glide_erotb>  (113) 
1.01815

>  <r_i_glide_esite>  (113) 
-0.0730562

>  <r_i_glide_emodel>  (113) 
-25.6819

>  <r_i_glide_energy>  (113) 
-23.2845

>  <r_i_glide_einternal>  (113) 
5.07086

>  <r_i_glide_intrahb_reward>  (113) 
-0

>  <i_i_glide_confnum>  (113) 
2

>  <i_i_glide_posenum>  (113) 
9

>  <r_i_glide_eff_state_penalty>  (113) 
0

>  <ligand_id>  (113) 
31

>  <original_smiles>  (113) 
c1nc2n(n1)CC(NCC1CCCO1)CC2

>  <smiles>  (113) 
[H]c1nc2n(n1)C([H])([H])C([H])([N+]([H])([H])C([H])([H])C1([H])OC([H])([H])C([H])([H])C1([H])[H])C([H])([H])C2([H])[H]

$$$$
31:0:1
     RDKit          3D

 35 37  0  0  1  0  0  0  0  0999 V2000
    1.9492   -6.9428    1.3944 C   0  0  0  0  0  0  0  0  0  0  0  0
    3.2835   -6.8020    1.6608 N   0  0  0  0  0  0  0  0  0  0  0  0
    3.5412   -5.7235    0.9355 C   0  0  0  0  0  0  0  0  0  0  0  0
    2.4776   -5.2618    0.2791 N   0  0  0  0  0  0  0  0  0  0  0  0
    1.4053   -6.0227    0.5868 N   0  0  0  0  0  0  0  0  0  0  0  0
    2.3864   -4.0756   -0.5604 C   0  0  0  0  0  0  0  0  0  0  0  0
    3.7867   -3.5541   -0.9559 C   0  0  1  0  0  0  0  0  0  0  0  0
    3.6982   -2.1760   -1.4757 N   0  0  0  0  0  0  0  0  0  0  0  0
    3.6594   -2.0656   -2.9424 C   0  0  0  0  0  0  0  0  0  0  0  0
    3.1230   -0.6858   -3.3404 C   0  0  2  0  0  0  0  0  0  0  0  0
    2.6495   -0.6349   -4.7757 C   0  0  0  0  0  0  0  0  0  0  0  0
    2.8122    0.8006   -5.1664 C   0  0  0  0  0  0  0  0  0  0  0  0
    4.0986    1.1066   -4.4353 C   0  0  0  0  0  0  0  0  0  0  0  0
    4.2077    0.2275   -3.3151 O   0  0  0  0  0  0  0  0  0  0  0  0
    4.7434   -3.6144    0.2491 C   0  0  0  0  0  0  0  0  0  0  0  0
    4.8712   -5.0534    0.7980 C   0  0  0  0  0  0  0  0  0  0  0  0
    1.3507   -7.7383    1.7991 H   0  0  0  0  0  0  0  0  0  0  0  0
    1.7847   -4.2994   -1.4389 H   0  0  0  0  0  0  0  0  0  0  0  0
    1.8703   -3.3081    0.0160 H   0  0  0  0  0  0  0  0  0  0  0  0
    4.2001   -4.2041   -1.7287 H   0  0  0  0  0  0  0  0  0  0  0  0
    2.8624   -1.7375   -1.1001 H   0  0  0  0  0  0  0  0  0  0  0  0
    4.6590   -2.2183   -3.3610 H   0  0  0  0  0  0  0  0  0  0  0  0
    3.0286   -2.8540   -3.3568 H   0  0  0  0  0  0  0  0  0  0  0  0
    2.3075   -0.3410   -2.6938 H   0  0  0  0  0  0  0  0  0  0  0  0
    3.3356   -1.2345   -5.3760 H   0  0  0  0  0  0  0  0  0  0  0  0
    1.6199   -0.9682   -4.8797 H   0  0  0  0  0  0  0  0  0  0  0  0
    2.8979    0.9232   -6.2458 H   0  0  0  0  0  0  0  0  0  0  0  0
    1.9841    1.4071   -4.8061 H   0  0  0  0  0  0  0  0  0  0  0  0
    4.8982    0.8879   -5.1279 H   0  0  0  0  0  0  0  0  0  0  0  0
    4.1557    2.1469   -4.1317 H   0  0  0  0  0  0  0  0  0  0  0  0
    5.7336   -3.2253   -0.0057 H   0  0  0  0  0  0  0  0  0  0  0  0
    4.3359   -2.9732    1.0377 H   0  0  0  0  0  0  0  0  0  0  0  0
    5.3469   -5.0275    1.7801 H   0  0  0  0  0  0  0  0  0  0  0  0
    5.4897   -5.6579    0.1261 H   0  0  0  0  0  0  0  0  0  0  0  0
    4.5113   -1.6657   -1.1635 H   0  0  0  0  0  0  0  0  0  0  0  0
  1  5  2  0
  1  2  1  0
  1 17  1  0
  2  3  2  0
  3 16  1  0
  3  4  1  0
  4  5  1  0
  4  6  1  0
  6  7  1  0
  6 18  1  0
  6 19  1  0
  7  8  1  0
  7 15  1  0
  7 20  1  6
  8  9  1  0
  8 21  1  0
  8 35  1  0
  9 10  1  0
  9 22  1  0
  9 23  1  0
 10 14  1  0
 10 11  1  0
 10 24  1  1
 11 12  1  0
 11 25  1  0
 11 26  1  0
 12 13  1  0
 12 27  1  0
 12 28  1  0
 13 14  1  0
 13 29  1  0
 13 30  1  0
 15 16  1  0
 15 31  1  0
 15 32  1  0
 16 33  1  0
 16 34  1  0
M  CHG  1   8   1
M  END
>  <i_m_ct_stereo_status>  (114) 
1

>  <s_m_source_file>  (114) 
/var/tmp/pbs.5076255.sched01/tmpp9awzhar/40nweoahkg.sdf

>  <i_m_source_file_index>  (114) 
4

>  <i_lp_mmshare_version>  (114) 
48012

>  <i_f3d_flags>  (114) 
0

>  <s_epik_input>  (114) 
bjFbY0hdbm4oYzEyKVtDSDJdW0NASF0oW0NIMl1bQ0gyXTIpW05IXVtDSDJdW0NAQEhdM1tDSDJdW0NIMl1bQ0gyXU8z

>  <s_epik_cmdline>  (114) 
J2VwaWtfcHl0aG9uJywgJy1waHQnLCAnMi4wJywgJy1waCcsICc3LjAnLCAnLXRuJywgJzgnLCAnLW1hJywgJzIwMCcsICctaW1hZScsICc8aW5maWxlLm1hZT4nLCAnLW9tYWUnLCAnPG91dGZpbGUubWFlPic=

>  <r_lp_tautomer_probability>  (114) 
1

>  <r_epik_Ionization_Penalty>  (114) 
0.0116264

>  <r_epik_Ionization_Penalty_Charging>  (114) 
0.0116247

>  <r_epik_Ionization_Penalty_Neutral>  (114) 
1.74386e-06

>  <r_epik_State_Penalty>  (114) 
0.00895614

>  <r_epik_Charging_Adjusted_Penalty>  (114) 
0.0205808

>  <i_epik_Tot_Q>  (114) 
1

>  <i_epik_Tot_abs_Q>  (114) 
1

>  <s_lp_Force_Field>  (114) 
OPLS3e

>  <r_lp_Energy>  (114) 
13.1934

>  <b_lp_Chiralities_Consistent>  (114) 
1

>  <s_lp_Variant>  (114) 
31:0-1

>  <s_i_glide_gridfile>  (114) 
pfpi4k_grid

>  <i_i_glide_lignum>  (114) 
4

>  <i_i_glide_rotatable_bonds>  (114) 
3

>  <r_i_docking_score>  (114) 
-3.32727

>  <r_i_glide_ligand_efficiency>  (114) 
-0.207954

>  <r_i_glide_ligand_efficiency_sa>  (114) 
-0.524011

>  <r_i_glide_ligand_efficiency_ln>  (114) 
-0.881958

>  <r_i_glide_gscore>  (114) 
-3.32727

>  <r_i_glide_lipo>  (114) 
-0.391054

>  <r_i_glide_hbond>  (114) 
-0.238094

>  <r_i_glide_metal>  (114) 
-0

>  <r_i_glide_rewards>  (114) 
-1.90288

>  <r_i_glide_evdw>  (114) 
-13.2612

>  <r_i_glide_ecoul>  (114) 
-6.77087

>  <r_i_glide_erotb>  (114) 
1.01815

>  <r_i_glide_esite>  (114) 
-0.134689

>  <r_i_glide_emodel>  (114) 
-23.9609

>  <r_i_glide_energy>  (114) 
-20.0321

>  <r_i_glide_einternal>  (114) 
2.31085

>  <r_i_glide_intrahb_reward>  (114) 
-0

>  <i_i_glide_confnum>  (114) 
2

>  <i_i_glide_posenum>  (114) 
6

>  <r_i_glide_eff_state_penalty>  (114) 
0

>  <ligand_id>  (114) 
31

>  <original_smiles>  (114) 
c1nc2n(n1)CC(NCC1CCCO1)CC2

>  <smiles>  (114) 
[H]c1nc2n(n1)C([H])([H])C([H])([N+]([H])([H])C([H])([H])C1([H])OC([H])([H])C([H])([H])C1([H])[H])C([H])([H])C2([H])[H]

$$$$
31:0:2
     RDKit          3D

 35 37  0  0  1  0  0  0  0  0999 V2000
    1.7390   -5.8229    3.3317 C   0  0  0  0  0  0  0  0  0  0  0  0
    2.9256   -5.2378    3.7021 N   0  0  0  0  0  0  0  0  0  0  0  0
    3.3859   -4.8996    2.5116 C   0  0  0  0  0  0  0  0  0  0  0  0
    2.5637   -5.2417    1.5130 N   0  0  0  0  0  0  0  0  0  0  0  0
    1.4620   -5.8319    2.0362 N   0  0  0  0  0  0  0  0  0  0  0  0
    2.6712   -4.9457    0.1085 C   0  0  0  0  0  0  0  0  0  0  0  0
    4.1082   -4.4861   -0.2572 C   0  0  1  0  0  0  0  0  0  0  0  0
    4.2017   -3.8581   -1.6032 N   0  0  0  0  0  0  0  0  0  0  0  0
    3.4099   -2.6217   -1.7917 C   0  0  0  0  0  0  0  0  0  0  0  0
    4.0455   -1.7406   -2.8725 C   0  0  2  0  0  0  0  0  0  0  0  0
    3.5834   -0.3001   -2.7270 C   0  0  0  0  0  0  0  0  0  0  0  0
    3.6204    0.2030   -4.1294 C   0  0  0  0  0  0  0  0  0  0  0  0
    3.1586   -1.0254   -4.8440 C   0  0  0  0  0  0  0  0  0  0  0  0
    3.6518   -2.1665   -4.1646 O   0  0  0  0  0  0  0  0  0  0  0  0
    4.7212   -3.5751    0.8417 C   0  0  0  0  0  0  0  0  0  0  0  0
    4.7003   -4.2419    2.2213 C   0  0  0  0  0  0  0  0  0  0  0  0
    1.0526   -6.2431    4.0387 H   0  0  0  0  0  0  0  0  0  0  0  0
    2.3631   -5.8306   -0.4453 H   0  0  0  0  0  0  0  0  0  0  0  0
    1.9549   -4.1488   -0.1205 H   0  0  0  0  0  0  0  0  0  0  0  0
    4.7205   -5.3972   -0.3184 H   0  0  0  0  0  0  0  0  0  0  0  0
    5.1835   -3.6972   -1.7841 H   0  0  0  0  0  0  0  0  0  0  0  0
    2.3686   -2.8870   -2.0307 H   0  0  0  0  0  0  0  0  0  0  0  0
    3.3800   -2.0385   -0.8731 H   0  0  0  0  0  0  0  0  0  0  0  0
    5.1393   -1.7679   -2.8163 H   0  0  0  0  0  0  0  0  0  0  0  0
    2.5498   -0.2604   -2.3704 H   0  0  0  0  0  0  0  0  0  0  0  0
    4.2316    0.2362   -2.0403 H   0  0  0  0  0  0  0  0  0  0  0  0
    2.9799    1.0521   -4.3508 H   0  0  0  0  0  0  0  0  0  0  0  0
    4.6057    0.4521   -4.4515 H   0  0  0  0  0  0  0  0  0  0  0  0
    2.0737   -1.0146   -4.7679 H   0  0  0  0  0  0  0  0  0  0  0  0
    3.5048   -0.9981   -5.8708 H   0  0  0  0  0  0  0  0  0  0  0  0
    5.7342   -3.2502    0.5763 H   0  0  0  0  0  0  0  0  0  0  0  0
    4.0977   -2.6850    0.9637 H   0  0  0  0  0  0  0  0  0  0  0  0
    4.8415   -3.4591    2.9685 H   0  0  0  0  0  0  0  0  0  0  0  0
    5.5013   -4.9888    2.3157 H   0  0  0  0  0  0  0  0  0  0  0  0
    3.8787   -4.5608   -2.2670 H   0  0  0  0  0  0  0  0  0  0  0  0
  1  5  2  0
  1  2  1  0
  1 17  1  0
  2  3  2  0
  3 16  1  0
  3  4  1  0
  4  5  1  0
  4  6  1  0
  6  7  1  0
  6 18  1  0
  6 19  1  0
  7  8  1  0
  7 15  1  0
  7 20  1  6
  8  9  1  0
  8 21  1  0
  8 35  1  0
  9 10  1  0
  9 22  1  0
  9 23  1  0
 10 14  1  0
 10 11  1  0
 10 24  1  6
 11 12  1  0
 11 25  1  0
 11 26  1  0
 12 13  1  0
 12 27  1  0
 12 28  1  0
 13 14  1  0
 13 29  1  0
 13 30  1  0
 15 16  1  0
 15 31  1  0
 15 32  1  0
 16 33  1  0
 16 34  1  0
M  CHG  1   8   1
M  END
>  <i_m_ct_stereo_status>  (115) 
1

>  <s_m_source_file>  (115) 
/var/tmp/pbs.5076255.sched01/tmpp9awzhar/40nweoahkg.sdf

>  <i_m_source_file_index>  (115) 
4

>  <i_lp_mmshare_version>  (115) 
48012

>  <i_f3d_flags>  (115) 
0

>  <s_epik_input>  (115) 
bjFbY0hdbm4oYzEyKVtDSDJdW0NASF0oW0NIMl1bQ0gyXTIpW05IXVtDSDJdW0NAQEhdM1tDSDJdW0NIMl1bQ0gyXU8z

>  <s_epik_cmdline>  (115) 
J2VwaWtfcHl0aG9uJywgJy1waHQnLCAnMi4wJywgJy1waCcsICc3LjAnLCAnLXRuJywgJzgnLCAnLW1hJywgJzIwMCcsICctaW1hZScsICc8aW5maWxlLm1hZT4nLCAnLW9tYWUnLCAnPG91dGZpbGUubWFlPic=

>  <r_lp_tautomer_probability>  (115) 
1

>  <r_epik_Ionization_Penalty>  (115) 
0.0116264

>  <r_epik_Ionization_Penalty_Charging>  (115) 
0.0116247

>  <r_epik_Ionization_Penalty_Neutral>  (115) 
1.74386e-06

>  <r_epik_State_Penalty>  (115) 
0.00895614

>  <r_epik_Charging_Adjusted_Penalty>  (115) 
0.0205808

>  <i_epik_Tot_Q>  (115) 
1

>  <i_epik_Tot_abs_Q>  (115) 
1

>  <s_lp_Force_Field>  (115) 
OPLS3e

>  <r_lp_Energy>  (115) 
13.1934

>  <b_lp_Chiralities_Consistent>  (115) 
1

>  <s_lp_Variant>  (115) 
31:0-1

>  <s_i_glide_gridfile>  (115) 
pfpi4k_grid

>  <i_i_glide_lignum>  (115) 
4

>  <i_i_glide_rotatable_bonds>  (115) 
3

>  <r_i_docking_score>  (115) 
-3.17724

>  <r_i_glide_ligand_efficiency>  (115) 
-0.198577

>  <r_i_glide_ligand_efficiency_sa>  (115) 
-0.500384

>  <r_i_glide_ligand_efficiency_ln>  (115) 
-0.84219

>  <r_i_glide_gscore>  (115) 
-3.17724

>  <r_i_glide_lipo>  (115) 
-0.174199

>  <r_i_glide_hbond>  (115) 
-0.321555

>  <r_i_glide_metal>  (115) 
-0

>  <r_i_glide_rewards>  (115) 
-1.88663

>  <r_i_glide_evdw>  (115) 
-12.5186

>  <r_i_glide_ecoul>  (115) 
-7.43787

>  <r_i_glide_erotb>  (115) 
1.01815

>  <r_i_glide_esite>  (115) 
-0.0713914

>  <r_i_glide_emodel>  (115) 
-21.7185

>  <r_i_glide_energy>  (115) 
-19.9565

>  <r_i_glide_einternal>  (115) 
6.06574

>  <r_i_glide_intrahb_reward>  (115) 
-0

>  <i_i_glide_confnum>  (115) 
2

>  <i_i_glide_posenum>  (115) 
4

>  <r_i_glide_eff_state_penalty>  (115) 
0

>  <ligand_id>  (115) 
31

>  <original_smiles>  (115) 
c1nc2n(n1)CC(NCC1CCCO1)CC2

>  <smiles>  (115) 
[H]c1nc2n(n1)C([H])([H])C([H])([N+]([H])([H])C([H])([H])C1([H])OC([H])([H])C([H])([H])C1([H])[H])C([H])([H])C2([H])[H]

$$$$
31:1:0
     RDKit          3D

 34 36  0  0  1  0  0  0  0  0999 V2000
    0.7415   -7.2555    1.8633 C   0  0  0  0  0  0  0  0  0  0  0  0
    1.9631   -7.5379    2.4108 N   0  0  0  0  0  0  0  0  0  0  0  0
    2.7153   -6.6650    1.7634 C   0  0  0  0  0  0  0  0  0  0  0  0
    2.0180   -5.9111    0.9072 N   0  0  0  0  0  0  0  0  0  0  0  0
    0.7153   -6.2610    0.9711 N   0  0  0  0  0  0  0  0  0  0  0  0
    2.4964   -4.8419    0.0671 C   0  0  0  0  0  0  0  0  0  0  0  0
    4.0318   -4.9418   -0.1028 C   0  0  1  0  0  0  0  0  0  0  0  0
    4.5821   -3.7716   -0.7803 N   0  0  0  0  0  0  0  0  0  0  0  0
    4.1764   -3.6814   -2.1841 C   0  0  0  0  0  0  0  0  0  0  0  0
    4.5579   -2.3380   -2.7938 C   0  0  2  0  0  0  0  0  0  0  0  0
    3.7718   -1.1876   -2.1659 C   0  0  0  0  0  0  0  0  0  0  0  0
    3.6958   -0.2126   -3.3081 C   0  0  0  0  0  0  0  0  0  0  0  0
    3.5400   -1.1238   -4.5121 C   0  0  0  0  0  0  0  0  0  0  0  0
    4.2186   -2.3273   -4.1823 O   0  0  0  0  0  0  0  0  0  0  0  0
    4.7015   -5.1755    1.2674 C   0  0  0  0  0  0  0  0  0  0  0  0
    4.2017   -6.5037    1.8789 C   0  0  0  0  0  0  0  0  0  0  0  0
   -0.1621   -7.7622    2.1603 H   0  0  0  0  0  0  0  0  0  0  0  0
    1.9582   -4.8966   -0.8734 H   0  0  0  0  0  0  0  0  0  0  0  0
    2.2287   -3.8966    0.5390 H   0  0  0  0  0  0  0  0  0  0  0  0
    4.2553   -5.8218   -0.7080 H   0  0  0  0  0  0  0  0  0  0  0  0
    5.5972   -3.7840   -0.7197 H   0  0  0  0  0  0  0  0  0  0  0  0
    4.6289   -4.4957   -2.7515 H   0  0  0  0  0  0  0  0  0  0  0  0
    3.0990   -3.7980   -2.3033 H   0  0  0  0  0  0  0  0  0  0  0  0
    5.6313   -2.1619   -2.7096 H   0  0  0  0  0  0  0  0  0  0  0  0
    2.7640   -1.5082   -1.8946 H   0  0  0  0  0  0  0  0  0  0  0  0
    4.2508   -0.7814   -1.2721 H   0  0  0  0  0  0  0  0  0  0  0  0
    2.8679    0.4789   -3.2192 H   0  0  0  0  0  0  0  0  0  0  0  0
    4.6157    0.3655   -3.3674 H   0  0  0  0  0  0  0  0  0  0  0  0
    2.4872   -1.3512   -4.6627 H   0  0  0  0  0  0  0  0  0  0  0  0
    3.9245   -0.6717   -5.4257 H   0  0  0  0  0  0  0  0  0  0  0  0
    5.7915   -5.1738    1.1897 H   0  0  0  0  0  0  0  0  0  0  0  0
    4.4411   -4.3522    1.9391 H   0  0  0  0  0  0  0  0  0  0  0  0
    4.4853   -6.5747    2.9326 H   0  0  0  0  0  0  0  0  0  0  0  0
    4.6702   -7.3370    1.3447 H   0  0  0  0  0  0  0  0  0  0  0  0
  1  5  2  0
  1  2  1  0
  1 17  1  0
  2  3  2  0
  3 16  1  0
  3  4  1  0
  4  5  1  0
  4  6  1  0
  6  7  1  0
  6 18  1  0
  6 19  1  0
  7  8  1  0
  7 15  1  0
  7 20  1  6
  8  9  1  0
  8 21  1  0
  9 10  1  0
  9 22  1  0
  9 23  1  0
 10 14  1  0
 10 11  1  0
 10 24  1  6
 11 12  1  0
 11 25  1  0
 11 26  1  0
 12 13  1  0
 12 27  1  0
 12 28  1  0
 13 14  1  0
 13 29  1  0
 13 30  1  0
 15 16  1  0
 15 31  1  0
 15 32  1  0
 16 33  1  0
 16 34  1  0
M  END
>  <i_m_ct_stereo_status>  (116) 
1

>  <s_m_source_file>  (116) 
/var/tmp/pbs.5076255.sched01/tmpp9awzhar/40nweoahkg.sdf

>  <i_m_source_file_index>  (116) 
5

>  <i_lp_mmshare_version>  (116) 
48012

>  <i_f3d_flags>  (116) 
0

>  <s_epik_input>  (116) 
bjFbY0hdbm4oYzEyKVtDSDJdW0NASF0oW0NIMl1bQ0gyXTIpW05IXVtDSDJdW0NAQEhdM1tDSDJdW0NIMl1bQ0gyXU8z

>  <s_epik_cmdline>  (116) 
J2VwaWtfcHl0aG9uJywgJy1waHQnLCAnMi4wJywgJy1waCcsICc3LjAnLCAnLXRuJywgJzgnLCAnLW1hJywgJzIwMCcsICctaW1hZScsICc8aW5maWxlLm1hZT4nLCAnLW9tYWUnLCAnPG91dGZpbGUubWFlPic=

>  <r_lp_tautomer_probability>  (116) 
1

>  <r_epik_Ionization_Penalty>  (116) 
2.33786

>  <r_epik_Ionization_Penalty_Charging>  (116) 
0

>  <r_epik_Ionization_Penalty_Neutral>  (116) 
2.33786

>  <r_epik_State_Penalty>  (116) 
2.48817

>  <r_epik_Charging_Adjusted_Penalty>  (116) 
2.48817

>  <i_epik_Tot_Q>  (116) 
0

>  <i_epik_Tot_abs_Q>  (116) 
0

>  <s_lp_Force_Field>  (116) 
OPLS3e

>  <r_lp_Energy>  (116) 
22.9825

>  <b_lp_Chiralities_Consistent>  (116) 
1

>  <s_lp_Variant>  (116) 
31:0-2

>  <s_i_glide_gridfile>  (116) 
pfpi4k_grid

>  <i_i_glide_lignum>  (116) 
5

>  <i_i_glide_rotatable_bonds>  (116) 
3

>  <r_i_docking_score>  (116) 
-3.76193

>  <r_i_glide_ligand_efficiency>  (116) 
-0.23512

>  <r_i_glide_ligand_efficiency_sa>  (116) 
-0.592466

>  <r_i_glide_ligand_efficiency_ln>  (116) 
-0.997173

>  <r_i_glide_gscore>  (116) 
-3.76193

>  <r_i_glide_lipo>  (116) 
-0.346818

>  <r_i_glide_hbond>  (116) 
-0.48

>  <r_i_glide_metal>  (116) 
-0

>  <r_i_glide_rewards>  (116) 
-1.8935

>  <r_i_glide_evdw>  (116) 
-18.5645

>  <r_i_glide_ecoul>  (116) 
-6.88198

>  <r_i_glide_erotb>  (116) 
1.02596

>  <r_i_glide_esite>  (116) 
-0.107047

>  <r_i_glide_emodel>  (116) 
-30.9332

>  <r_i_glide_energy>  (116) 
-25.4465

>  <r_i_glide_einternal>  (116) 
0.869806

>  <r_i_glide_intrahb_reward>  (116) 
-0

>  <i_i_glide_confnum>  (116) 
6

>  <i_i_glide_posenum>  (116) 
7

>  <r_i_glide_eff_state_penalty>  (116) 
0

>  <ligand_id>  (116) 
31

>  <original_smiles>  (116) 
c1nc2n(n1)CC(NCC1CCCO1)CC2

>  <smiles>  (116) 
[H]c1nc2n(n1)C([H])([H])C([H])(N([H])C([H])([H])C1([H])OC([H])([H])C([H])([H])C1([H])[H])C([H])([H])C2([H])[H]

$$$$
31:1:1
     RDKit          3D

 34 36  0  0  1  0  0  0  0  0999 V2000
    1.8260   -6.2278    3.0784 C   0  0  0  0  0  0  0  0  0  0  0  0
    3.1160   -5.9638    3.4446 N   0  0  0  0  0  0  0  0  0  0  0  0
    3.5706   -5.4169    2.3265 C   0  0  0  0  0  0  0  0  0  0  0  0
    2.6428   -5.3543    1.3676 N   0  0  0  0  0  0  0  0  0  0  0  0
    1.4829   -5.8613    1.8406 N   0  0  0  0  0  0  0  0  0  0  0  0
    2.7512   -4.7696    0.0549 C   0  0  0  0  0  0  0  0  0  0  0  0
    4.2415   -4.6060   -0.3297 C   0  0  1  0  0  0  0  0  0  0  0  0
    4.4229   -3.8378   -1.5496 N   0  0  0  0  0  0  0  0  0  0  0  0
    3.9460   -2.4559   -1.5005 C   0  0  0  0  0  0  0  0  0  0  0  0
    4.3433   -1.7038   -2.7637 C   0  0  2  0  0  0  0  0  0  0  0  0
    3.8192   -0.2761   -2.7407 C   0  0  0  0  0  0  0  0  0  0  0  0
    3.6178    0.0520   -4.1773 C   0  0  0  0  0  0  0  0  0  0  0  0
    3.1337   -1.2840   -4.6774 C   0  0  0  0  0  0  0  0  0  0  0  0
    3.7634   -2.2979   -3.9109 O   0  0  0  0  0  0  0  0  0  0  0  0
    5.0558   -4.0175    0.8458 C   0  0  0  0  0  0  0  0  0  0  0  0
    4.9670   -4.9357    2.0753 C   0  0  0  0  0  0  0  0  0  0  0  0
    1.1087   -6.6864    3.7297 H   0  0  0  0  0  0  0  0  0  0  0  0
    2.2170   -5.3921   -0.6582 H   0  0  0  0  0  0  0  0  0  0  0  0
    2.2334   -3.8145    0.1070 H   0  0  0  0  0  0  0  0  0  0  0  0
    4.6350   -5.6074   -0.5143 H   0  0  0  0  0  0  0  0  0  0  0  0
    3.9250   -4.3286   -2.2946 H   0  0  0  0  0  0  0  0  0  0  0  0
    2.8623   -2.4174   -1.3790 H   0  0  0  0  0  0  0  0  0  0  0  0
    4.3800   -1.9095   -0.6600 H   0  0  0  0  0  0  0  0  0  0  0  0
    5.4129   -1.6986   -2.8853 H   0  0  0  0  0  0  0  0  0  0  0  0
    2.8269   -0.2539   -2.2794 H   0  0  0  0  0  0  0  0  0  0  0  0
    4.5029    0.4109   -2.2526 H   0  0  0  0  0  0  0  0  0  0  0  0
    2.8925    0.8478   -4.3360 H   0  0  0  0  0  0  0  0  0  0  0  0
    4.5625    0.3170   -4.6596 H   0  0  0  0  0  0  0  0  0  0  0  0
    2.0620   -1.3882   -4.5679 H   0  0  0  0  0  0  0  0  0  0  0  0
    3.4264   -1.3576   -5.7197 H   0  0  0  0  0  0  0  0  0  0  0  0
    6.0924   -3.8292    0.5538 H   0  0  0  0  0  0  0  0  0  0  0  0
    4.6318   -3.0586    1.1465 H   0  0  0  0  0  0  0  0  0  0  0  0
    5.3094   -4.3994    2.9572 H   0  0  0  0  0  0  0  0  0  0  0  0
    5.6007   -5.8042    1.9165 H   0  0  0  0  0  0  0  0  0  0  0  0
  1  5  2  0
  1  2  1  0
  1 17  1  0
  2  3  2  0
  3 16  1  0
  3  4  1  0
  4  5  1  0
  4  6  1  0
  6  7  1  0
  6 18  1  0
  6 19  1  0
  7  8  1  0
  7 15  1  0
  7 20  1  6
  8  9  1  0
  8 21  1  0
  9 10  1  0
  9 22  1  0
  9 23  1  0
 10 14  1  0
 10 11  1  0
 10 24  1  6
 11 12  1  0
 11 25  1  0
 11 26  1  0
 12 13  1  0
 12 27  1  0
 12 28  1  0
 13 14  1  0
 13 29  1  0
 13 30  1  0
 15 16  1  0
 15 31  1  0
 15 32  1  0
 16 33  1  0
 16 34  1  0
M  END
>  <i_m_ct_stereo_status>  (117) 
1

>  <s_m_source_file>  (117) 
/var/tmp/pbs.5076255.sched01/tmpp9awzhar/40nweoahkg.sdf

>  <i_m_source_file_index>  (117) 
5

>  <i_lp_mmshare_version>  (117) 
48012

>  <i_f3d_flags>  (117) 
0

>  <s_epik_input>  (117) 
bjFbY0hdbm4oYzEyKVtDSDJdW0NASF0oW0NIMl1bQ0gyXTIpW05IXVtDSDJdW0NAQEhdM1tDSDJdW0NIMl1bQ0gyXU8z

>  <s_epik_cmdline>  (117) 
J2VwaWtfcHl0aG9uJywgJy1waHQnLCAnMi4wJywgJy1waCcsICc3LjAnLCAnLXRuJywgJzgnLCAnLW1hJywgJzIwMCcsICctaW1hZScsICc8aW5maWxlLm1hZT4nLCAnLW9tYWUnLCAnPG91dGZpbGUubWFlPic=

>  <r_lp_tautomer_probability>  (117) 
1

>  <r_epik_Ionization_Penalty>  (117) 
2.33786

>  <r_epik_Ionization_Penalty_Charging>  (117) 
0

>  <r_epik_Ionization_Penalty_Neutral>  (117) 
2.33786

>  <r_epik_State_Penalty>  (117) 
2.48817

>  <r_epik_Charging_Adjusted_Penalty>  (117) 
2.48817

>  <i_epik_Tot_Q>  (117) 
0

>  <i_epik_Tot_abs_Q>  (117) 
0

>  <s_lp_Force_Field>  (117) 
OPLS3e

>  <r_lp_Energy>  (117) 
22.9825

>  <b_lp_Chiralities_Consistent>  (117) 
1

>  <s_lp_Variant>  (117) 
31:0-2

>  <s_i_glide_gridfile>  (117) 
pfpi4k_grid

>  <i_i_glide_lignum>  (117) 
5

>  <i_i_glide_rotatable_bonds>  (117) 
3

>  <r_i_docking_score>  (117) 
-2.99815

>  <r_i_glide_ligand_efficiency>  (117) 
-0.187385

>  <r_i_glide_ligand_efficiency_sa>  (117) 
-0.47218

>  <r_i_glide_ligand_efficiency_ln>  (117) 
-0.794721

>  <r_i_glide_gscore>  (117) 
-2.99815

>  <r_i_glide_lipo>  (117) 
-0.315815

>  <r_i_glide_hbond>  (117) 
-0.426545

>  <r_i_glide_metal>  (117) 
-0

>  <r_i_glide_rewards>  (117) 
-1.89466

>  <r_i_glide_evdw>  (117) 
-12.4951

>  <r_i_glide_ecoul>  (117) 
-4.87108

>  <r_i_glide_erotb>  (117) 
1.02596

>  <r_i_glide_esite>  (117) 
-0.0316842

>  <r_i_glide_emodel>  (117) 
-20.7825

>  <r_i_glide_energy>  (117) 
-17.3662

>  <r_i_glide_einternal>  (117) 
2.08668

>  <r_i_glide_intrahb_reward>  (117) 
-0

>  <i_i_glide_confnum>  (117) 
2

>  <i_i_glide_posenum>  (117) 
11

>  <r_i_glide_eff_state_penalty>  (117) 
0

>  <ligand_id>  (117) 
31

>  <original_smiles>  (117) 
c1nc2n(n1)CC(NCC1CCCO1)CC2

>  <smiles>  (117) 
[H]c1nc2n(n1)C([H])([H])C([H])(N([H])C([H])([H])C1([H])OC([H])([H])C([H])([H])C1([H])[H])C([H])([H])C2([H])[H]

$$$$
31:1:2
     RDKit          3D

 34 36  0  0  1  0  0  0  0  0999 V2000
    1.4007   -7.6336    1.9987 C   0  0  0  0  0  0  0  0  0  0  0  0
    2.7369   -7.8633    2.2305 N   0  0  0  0  0  0  0  0  0  0  0  0
    3.2464   -6.7888    1.6206 C   0  0  0  0  0  0  0  0  0  0  0  0
    2.3204   -5.9914    1.1011 N   0  0  0  0  0  0  0  0  0  0  0  0
    1.0944   -6.5245    1.3340 N   0  0  0  0  0  0  0  0  0  0  0  0
    2.4943   -4.7523    0.4051 C   0  0  0  0  0  0  0  0  0  0  0  0
    3.9596   -4.5998   -0.0597 C   0  0  1  0  0  0  0  0  0  0  0  0
    4.2453   -3.2784   -0.5852 N   0  0  0  0  0  0  0  0  0  0  0  0
    3.3677   -2.9229   -1.6967 C   0  0  0  0  0  0  0  0  0  0  0  0
    3.8153   -1.6294   -2.3697 C   0  0  2  0  0  0  0  0  0  0  0  0
    2.6495   -0.9258   -3.0073 C   0  0  0  0  0  0  0  0  0  0  0  0
    3.2363   -0.1344   -4.1285 C   0  0  0  0  0  0  0  0  0  0  0  0
    4.2094   -1.1730   -4.6006 C   0  0  0  0  0  0  0  0  0  0  0  0
    4.6444   -1.9241   -3.4738 O   0  0  0  0  0  0  0  0  0  0  0  0
    4.9322   -4.9773    1.0708 C   0  0  0  0  0  0  0  0  0  0  0  0
    4.6948   -6.4474    1.4858 C   0  0  0  0  0  0  0  0  0  0  0  0
    0.6192   -8.3091    2.3584 H   0  0  0  0  0  0  0  0  0  0  0  0
    1.8053   -4.7372   -0.4345 H   0  0  0  0  0  0  0  0  0  0  0  0
    2.2295   -3.9451    1.0833 H   0  0  0  0  0  0  0  0  0  0  0  0
    4.1469   -5.3234   -0.8508 H   0  0  0  0  0  0  0  0  0  0  0  0
    5.2093   -3.2247   -0.9021 H   0  0  0  0  0  0  0  0  0  0  0  0
    3.3229   -3.7207   -2.4418 H   0  0  0  0  0  0  0  0  0  0  0  0
    2.3401   -2.7874   -1.3516 H   0  0  0  0  0  0  0  0  0  0  0  0
    4.3329   -0.9437   -1.6958 H   0  0  0  0  0  0  0  0  0  0  0  0
    1.9672   -1.7060   -3.3533 H   0  0  0  0  0  0  0  0  0  0  0  0
    2.1887   -0.2643   -2.3213 H   0  0  0  0  0  0  0  0  0  0  0  0
    2.5144    0.1525   -4.8928 H   0  0  0  0  0  0  0  0  0  0  0  0
    3.7729    0.7486   -3.7785 H   0  0  0  0  0  0  0  0  0  0  0  0
    3.6478   -1.8460   -5.2213 H   0  0  0  0  0  0  0  0  0  0  0  0
    5.0110   -0.7099   -5.1165 H   0  0  0  0  0  0  0  0  0  0  0  0
    5.9764   -4.8197    0.7838 H   0  0  0  0  0  0  0  0  0  0  0  0
    4.7380   -4.3383    1.9345 H   0  0  0  0  0  0  0  0  0  0  0  0
    5.1955   -6.6673    2.4258 H   0  0  0  0  0  0  0  0  0  0  0  0
    5.1156   -7.1057    0.7310 H   0  0  0  0  0  0  0  0  0  0  0  0
  1  5  2  0
  1  2  1  0
  1 17  1  0
  2  3  2  0
  3 16  1  0
  3  4  1  0
  4  5  1  0
  4  6  1  0
  6  7  1  0
  6 18  1  0
  6 19  1  0
  7  8  1  0
  7 15  1  0
  7 20  1  6
  8  9  1  0
  8 21  1  0
  9 10  1  0
  9 22  1  0
  9 23  1  0
 10 14  1  0
 10 11  1  0
 10 24  1  1
 11 12  1  0
 11 25  1  0
 11 26  1  0
 12 13  1  0
 12 27  1  0
 12 28  1  0
 13 14  1  0
 13 29  1  0
 13 30  1  0
 15 16  1  0
 15 31  1  0
 15 32  1  0
 16 33  1  0
 16 34  1  0
M  END
>  <i_m_ct_stereo_status>  (118) 
1

>  <s_m_source_file>  (118) 
/var/tmp/pbs.5076255.sched01/tmpp9awzhar/40nweoahkg.sdf

>  <i_m_source_file_index>  (118) 
5

>  <i_lp_mmshare_version>  (118) 
48012

>  <i_f3d_flags>  (118) 
0

>  <s_epik_input>  (118) 
bjFbY0hdbm4oYzEyKVtDSDJdW0NASF0oW0NIMl1bQ0gyXTIpW05IXVtDSDJdW0NAQEhdM1tDSDJdW0NIMl1bQ0gyXU8z

>  <s_epik_cmdline>  (118) 
J2VwaWtfcHl0aG9uJywgJy1waHQnLCAnMi4wJywgJy1waCcsICc3LjAnLCAnLXRuJywgJzgnLCAnLW1hJywgJzIwMCcsICctaW1hZScsICc8aW5maWxlLm1hZT4nLCAnLW9tYWUnLCAnPG91dGZpbGUubWFlPic=

>  <r_lp_tautomer_probability>  (118) 
1

>  <r_epik_Ionization_Penalty>  (118) 
2.33786

>  <r_epik_Ionization_Penalty_Charging>  (118) 
0

>  <r_epik_Ionization_Penalty_Neutral>  (118) 
2.33786

>  <r_epik_State_Penalty>  (118) 
2.48817

>  <r_epik_Charging_Adjusted_Penalty>  (118) 
2.48817

>  <i_epik_Tot_Q>  (118) 
0

>  <i_epik_Tot_abs_Q>  (118) 
0

>  <s_lp_Force_Field>  (118) 
OPLS3e

>  <r_lp_Energy>  (118) 
22.9825

>  <b_lp_Chiralities_Consistent>  (118) 
1

>  <s_lp_Variant>  (118) 
31:0-2

>  <s_i_glide_gridfile>  (118) 
pfpi4k_grid

>  <i_i_glide_lignum>  (118) 
5

>  <i_i_glide_rotatable_bonds>  (118) 
3

>  <r_i_docking_score>  (118) 
-2.50939

>  <r_i_glide_ligand_efficiency>  (118) 
-0.156837

>  <r_i_glide_ligand_efficiency_sa>  (118) 
-0.395203

>  <r_i_glide_ligand_efficiency_ln>  (118) 
-0.665163

>  <r_i_glide_gscore>  (118) 
-2.50939

>  <r_i_glide_lipo>  (118) 
-0.318731

>  <r_i_glide_hbond>  (118) 
-0.0559732

>  <r_i_glide_metal>  (118) 
-0

>  <r_i_glide_rewards>  (118) 
-1.95966

>  <r_i_glide_evdw>  (118) 
-14.8986

>  <r_i_glide_ecoul>  (118) 
-2.64436

>  <r_i_glide_erotb>  (118) 
1.02596

>  <r_i_glide_esite>  (118) 
-0.059401

>  <r_i_glide_emodel>  (118) 
-20.3556

>  <r_i_glide_energy>  (118) 
-17.5429

>  <r_i_glide_einternal>  (118) 
1.35207

>  <r_i_glide_intrahb_reward>  (118) 
-0

>  <i_i_glide_confnum>  (118) 
1

>  <i_i_glide_posenum>  (118) 
21

>  <r_i_glide_eff_state_penalty>  (118) 
0

>  <ligand_id>  (118) 
31

>  <original_smiles>  (118) 
c1nc2n(n1)CC(NCC1CCCO1)CC2

>  <smiles>  (118) 
[H]c1nc2n(n1)C([H])([H])C([H])(N([H])C([H])([H])C1([H])OC([H])([H])C([H])([H])C1([H])[H])C([H])([H])C2([H])[H]

$$$$
32:0:0
     RDKit          3D

 24 25  0  0  1  0  0  0  0  0999 V2000
    6.2843   -1.9383   -1.3508 O   0  0  0  0  0  0  0  0  0  0  0  0
    4.9136   -2.4406   -1.4529 S   0  0  0  0  0  0  0  0  0  0  0  0
    4.1250   -3.0206   -0.2117 N   0  0  0  0  0  0  0  0  0  0  0  0
    3.6823   -2.1716    0.8078 C   0  0  0  0  0  0  0  0  0  0  0  0
    4.0403   -0.8108    0.9293 C   0  0  0  0  0  0  0  0  0  0  0  0
    3.3991   -0.0534    1.9166 C   0  0  0  0  0  0  0  0  0  0  0  0
    2.5085   -0.5961    2.7659 N   0  0  0  0  0  0  0  0  0  0  0  0
    2.2711   -1.8921    2.6000 C   0  0  0  0  0  0  0  0  0  0  0  0
    2.7976   -2.7053    1.6877 N   0  0  0  0  0  0  0  0  0  0  0  0
    3.8979   -1.1502   -2.2094 C   0  0  0  0  0  0  0  0  0  0  0  0
    3.6867   -1.5659   -3.6730 C   0  0  0  0  0  0  0  0  0  0  0  0
    3.6752   -3.0853   -3.7131 C   0  0  0  0  0  0  0  0  0  0  0  0
    4.8065   -3.6173   -2.8168 C   0  0  0  0  0  0  0  0  0  0  0  0
    4.7576   -0.3292    0.2741 H   0  0  0  0  0  0  0  0  0  0  0  0
    3.6111    1.0012    2.0092 H   0  0  0  0  0  0  0  0  0  0  0  0
    1.5570   -2.2668    3.3053 H   0  0  0  0  0  0  0  0  0  0  0  0
    2.9457   -1.1244   -1.6753 H   0  0  0  0  0  0  0  0  0  0  0  0
    4.3764   -0.1576   -2.1265 H   0  0  0  0  0  0  0  0  0  0  0  0
    2.7670   -1.1430   -4.0600 H   0  0  0  0  0  0  0  0  0  0  0  0
    4.4993   -1.1831   -4.2834 H   0  0  0  0  0  0  0  0  0  0  0  0
    2.7236   -3.4569   -3.3392 H   0  0  0  0  0  0  0  0  0  0  0  0
    3.7712   -3.4623   -4.7177 H   0  0  0  0  0  0  0  0  0  0  0  0
    5.7632   -3.6246   -3.3680 H   0  0  0  0  0  0  0  0  0  0  0  0
    4.6143   -4.6287   -2.4561 H   0  0  0  0  0  0  0  0  0  0  0  0
  1  2  2  0
  2 13  1  0
  2  3  2  0
  2 10  1  0
  3  4  1  0
  4  9  1  0
  4  5  2  0
  5  6  1  0
  5 14  1  0
  6  7  2  0
  6 15  1  0
  7  8  1  0
  8  9  2  0
  8 16  1  0
 10 11  1  0
 10 17  1  0
 10 18  1  0
 11 12  1  0
 11 19  1  0
 11 20  1  0
 12 13  1  0
 12 21  1  0
 12 22  1  0
 13 23  1  0
 13 24  1  0
M  END
>  <i_m_ct_stereo_status>  (119) 
1

>  <s_m_source_file>  (119) 
/var/tmp/pbs.5076255.sched01/tmpp9awzhar/40nweoahkg.sdf

>  <i_m_source_file_index>  (119) 
6

>  <i_lp_mmshare_version>  (119) 
48012

>  <i_f3d_flags>  (119) 
0

>  <s_epik_input>  (119) 
W0NIMl0xW0NIMl1bQ0gyXVtDSDJdUzEoPU8pPU5jMltjSF1bY0hdbltjSF1uMg==

>  <s_epik_cmdline>  (119) 
J2VwaWtfcHl0aG9uJywgJy1waHQnLCAnMi4wJywgJy1waCcsICc3LjAnLCAnLXRuJywgJzgnLCAnLW1hJywgJzIwMCcsICctaW1hZScsICc8aW5maWxlLm1hZT4nLCAnLW9tYWUnLCAnPG91dGZpbGUubWFlPic=

>  <r_epik_Ionization_Penalty>  (119) 
0.00121692

>  <r_epik_Ionization_Penalty_Charging>  (119) 
0

>  <r_epik_Ionization_Penalty_Neutral>  (119) 
0.00121692

>  <r_epik_State_Penalty>  (119) 
0.000767161

>  <r_epik_Charging_Adjusted_Penalty>  (119) 
0.000767161

>  <i_epik_Tot_Q>  (119) 
0

>  <i_epik_Tot_abs_Q>  (119) 
0

>  <s_lp_Force_Field>  (119) 
OPLS3e

>  <r_lp_Energy>  (119) 
7.48687

>  <b_lp_Chiralities_Consistent>  (119) 
1

>  <s_lp_Variant>  (119) 
32:0-1

>  <s_i_glide_gridfile>  (119) 
pfpi4k_grid

>  <i_i_glide_lignum>  (119) 
6

>  <i_i_glide_rotatable_bonds>  (119) 
1

>  <r_i_docking_score>  (119) 
-4.32208

>  <r_i_glide_ligand_efficiency>  (119) 
-0.332468

>  <r_i_glide_ligand_efficiency_sa>  (119) 
-0.781743

>  <r_i_glide_ligand_efficiency_ln>  (119) 
-1.21238

>  <r_i_glide_gscore>  (119) 
-4.32208

>  <r_i_glide_lipo>  (119) 
-0.482869

>  <r_i_glide_hbond>  (119) 
-0.155879

>  <r_i_glide_metal>  (119) 
-0

>  <r_i_glide_rewards>  (119) 
-2.06415

>  <r_i_glide_evdw>  (119) 
-22.3009

>  <r_i_glide_ecoul>  (119) 
-3.16452

>  <r_i_glide_erotb>  (119) 
0

>  <r_i_glide_esite>  (119) 
-0.0294632

>  <r_i_glide_emodel>  (119) 
-32.4082

>  <r_i_glide_energy>  (119) 
-25.4654

>  <r_i_glide_einternal>  (119) 
0.744819

>  <r_i_glide_intrahb_reward>  (119) 
-0

>  <i_i_glide_confnum>  (119) 
1

>  <i_i_glide_posenum>  (119) 
34

>  <r_i_glide_eff_state_penalty>  (119) 
0

>  <ligand_id>  (119) 
32

>  <original_smiles>  (119) 
O=S1(=Nc2ccncn2)CCCC1

>  <smiles>  (119) 
[H]c1nc([H])c([H])c(N=S2(=O)C([H])([H])C([H])([H])C([H])([H])C2([H])[H])n1

$$$$
32:0:1
     RDKit          3D

 24 25  0  0  1  0  0  0  0  0999 V2000
    6.4472   -2.0040   -1.1206 O   0  0  0  0  0  0  0  0  0  0  0  0
    5.1325   -2.6018   -1.2591 S   0  0  0  0  0  0  0  0  0  0  0  0
    4.5321   -3.5744   -0.1539 N   0  0  0  0  0  0  0  0  0  0  0  0
    3.9958   -3.0872    1.0568 C   0  0  0  0  0  0  0  0  0  0  0  0
    2.7161   -2.5016    1.0629 C   0  0  0  0  0  0  0  0  0  0  0  0
    2.2312   -2.0239    2.2783 C   0  0  0  0  0  0  0  0  0  0  0  0
    2.8697   -2.2605    3.4410 N   0  0  0  0  0  0  0  0  0  0  0  0
    3.9854   -2.9851    3.3322 C   0  0  0  0  0  0  0  0  0  0  0  0
    4.6056   -3.3653    2.2256 N   0  0  0  0  0  0  0  0  0  0  0  0
    3.9365   -1.3007   -1.7084 C   0  0  0  0  0  0  0  0  0  0  0  0
    3.6835   -1.4225   -3.2170 C   0  0  0  0  0  0  0  0  0  0  0  0
    3.8163   -2.9001   -3.5934 C   0  0  0  0  0  0  0  0  0  0  0  0
    5.0481   -3.4783   -2.8679 C   0  0  0  0  0  0  0  0  0  0  0  0
    2.0691   -2.4260    0.2113 H   0  0  0  0  0  0  0  0  0  0  0  0
    1.3096   -1.4591    2.3023 H   0  0  0  0  0  0  0  0  0  0  0  0
    4.4172   -3.1982    4.3016 H   0  0  0  0  0  0  0  0  0  0  0  0
    2.9502   -1.4740   -1.3007 H   0  0  0  0  0  0  0  0  0  0  0  0
    4.3083   -0.2989   -1.3896 H   0  0  0  0  0  0  0  0  0  0  0  0
    2.6688   -1.0779   -3.4131 H   0  0  0  0  0  0  0  0  0  0  0  0
    4.3725   -0.7994   -3.7824 H   0  0  0  0  0  0  0  0  0  0  0  0
    2.9350   -3.4668   -3.2811 H   0  0  0  0  0  0  0  0  0  0  0  0
    3.8772   -3.0130   -4.6741 H   0  0  0  0  0  0  0  0  0  0  0  0
    5.9603   -3.2298   -3.4415 H   0  0  0  0  0  0  0  0  0  0  0  0
    5.0086   -4.5692   -2.7572 H   0  0  0  0  0  0  0  0  0  0  0  0
  1  2  2  0
  2 13  1  0
  2  3  2  0
  2 10  1  0
  3  4  1  0
  4  9  1  0
  4  5  2  0
  5  6  1  0
  5 14  1  0
  6  7  2  0
  6 15  1  0
  7  8  1  0
  8  9  2  0
  8 16  1  0
 10 11  1  0
 10 17  1  0
 10 18  1  0
 11 12  1  0
 11 19  1  0
 11 20  1  0
 12 13  1  0
 12 21  1  0
 12 22  1  0
 13 23  1  0
 13 24  1  0
M  END
>  <i_m_ct_stereo_status>  (120) 
1

>  <s_m_source_file>  (120) 
/var/tmp/pbs.5076255.sched01/tmpp9awzhar/40nweoahkg.sdf

>  <i_m_source_file_index>  (120) 
6

>  <i_lp_mmshare_version>  (120) 
48012

>  <i_f3d_flags>  (120) 
0

>  <s_epik_input>  (120) 
W0NIMl0xW0NIMl1bQ0gyXVtDSDJdUzEoPU8pPU5jMltjSF1bY0hdbltjSF1uMg==

>  <s_epik_cmdline>  (120) 
J2VwaWtfcHl0aG9uJywgJy1waHQnLCAnMi4wJywgJy1waCcsICc3LjAnLCAnLXRuJywgJzgnLCAnLW1hJywgJzIwMCcsICctaW1hZScsICc8aW5maWxlLm1hZT4nLCAnLW9tYWUnLCAnPG91dGZpbGUubWFlPic=

>  <r_epik_Ionization_Penalty>  (120) 
0.00121692

>  <r_epik_Ionization_Penalty_Charging>  (120) 
0

>  <r_epik_Ionization_Penalty_Neutral>  (120) 
0.00121692

>  <r_epik_State_Penalty>  (120) 
0.000767161

>  <r_epik_Charging_Adjusted_Penalty>  (120) 
0.000767161

>  <i_epik_Tot_Q>  (120) 
0

>  <i_epik_Tot_abs_Q>  (120) 
0

>  <s_lp_Force_Field>  (120) 
OPLS3e

>  <r_lp_Energy>  (120) 
7.48687

>  <b_lp_Chiralities_Consistent>  (120) 
1

>  <s_lp_Variant>  (120) 
32:0-1

>  <s_i_glide_gridfile>  (120) 
pfpi4k_grid

>  <i_i_glide_lignum>  (120) 
6

>  <i_i_glide_rotatable_bonds>  (120) 
1

>  <r_i_docking_score>  (120) 
-4.30074

>  <r_i_glide_ligand_efficiency>  (120) 
-0.330826

>  <r_i_glide_ligand_efficiency_sa>  (120) 
-0.777883

>  <r_i_glide_ligand_efficiency_ln>  (120) 
-1.2064

>  <r_i_glide_gscore>  (120) 
-4.30074

>  <r_i_glide_lipo>  (120) 
-0.4618

>  <r_i_glide_hbond>  (120) 
-0.16

>  <r_i_glide_metal>  (120) 
-0

>  <r_i_glide_rewards>  (120) 
-2.06425

>  <r_i_glide_evdw>  (120) 
-19.3728

>  <r_i_glide_ecoul>  (120) 
-4.25182

>  <r_i_glide_erotb>  (120) 
0

>  <r_i_glide_esite>  (120) 
-0.00828218

>  <r_i_glide_emodel>  (120) 
-26.8167

>  <r_i_glide_energy>  (120) 
-23.6246

>  <r_i_glide_einternal>  (120) 
3.34545

>  <r_i_glide_intrahb_reward>  (120) 
-0

>  <i_i_glide_confnum>  (120) 
1

>  <i_i_glide_posenum>  (120) 
1

>  <r_i_glide_eff_state_penalty>  (120) 
0

>  <ligand_id>  (120) 
32

>  <original_smiles>  (120) 
O=S1(=Nc2ccncn2)CCCC1

>  <smiles>  (120) 
[H]c1nc([H])c([H])c(N=S2(=O)C([H])([H])C([H])([H])C([H])([H])C2([H])[H])n1

$$$$
32:0:2
     RDKit          3D

 24 25  0  0  1  0  0  0  0  0999 V2000
   -1.6628   -0.2485    4.9764 O   0  0  0  0  0  0  0  0  0  0  0  0
   -0.8036    0.9224    4.7014 S   0  0  0  0  0  0  0  0  0  0  0  0
    0.7508    0.8981    4.8390 N   0  0  0  0  0  0  0  0  0  0  0  0
    1.5771    0.2477    3.9118 C   0  0  0  0  0  0  0  0  0  0  0  0
    2.9668    0.5474    3.9012 C   0  0  0  0  0  0  0  0  0  0  0  0
    3.7538   -0.0415    2.9019 C   0  0  0  0  0  0  0  0  0  0  0  0
    3.2296   -0.8725    1.9956 N   0  0  0  0  0  0  0  0  0  0  0  0
    1.9205   -1.0986    2.0859 C   0  0  0  0  0  0  0  0  0  0  0  0
    1.0811   -0.6063    2.9902 N   0  0  0  0  0  0  0  0  0  0  0  0
   -1.2264    1.6184    3.0754 C   0  0  0  0  0  0  0  0  0  0  0  0
   -2.1216    2.8426    3.3367 C   0  0  0  0  0  0  0  0  0  0  0  0
   -1.7033    3.4568    4.6666 C   0  0  0  0  0  0  0  0  0  0  0  0
   -1.4554    2.3226    5.6773 C   0  0  0  0  0  0  0  0  0  0  0  0
    3.4375    1.2240    4.6022 H   0  0  0  0  0  0  0  0  0  0  0  0
    4.8134    0.1403    2.7974 H   0  0  0  0  0  0  0  0  0  0  0  0
    1.5061   -1.7870    1.3728 H   0  0  0  0  0  0  0  0  0  0  0  0
   -0.2902    1.9241    2.5976 H   0  0  0  0  0  0  0  0  0  0  0  0
   -1.7181    0.8717    2.4365 H   0  0  0  0  0  0  0  0  0  0  0  0
   -2.0494    3.5523    2.5189 H   0  0  0  0  0  0  0  0  0  0  0  0
   -3.1621    2.5327    3.3949 H   0  0  0  0  0  0  0  0  0  0  0  0
   -0.7805    4.0161    4.5305 H   0  0  0  0  0  0  0  0  0  0  0  0
   -2.4491    4.1565    5.0265 H   0  0  0  0  0  0  0  0  0  0  0  0
   -2.4080    2.0352    6.1411 H   0  0  0  0  0  0  0  0  0  0  0  0
   -0.7624    2.6074    6.4709 H   0  0  0  0  0  0  0  0  0  0  0  0
  1  2  2  0
  2 13  1  0
  2  3  2  0
  2 10  1  0
  3  4  1  0
  4  9  1  0
  4  5  2  0
  5  6  1  0
  5 14  1  0
  6  7  2  0
  6 15  1  0
  7  8  1  0
  8  9  2  0
  8 16  1  0
 10 11  1  0
 10 17  1  0
 10 18  1  0
 11 12  1  0
 11 19  1  0
 11 20  1  0
 12 13  1  0
 12 21  1  0
 12 22  1  0
 13 23  1  0
 13 24  1  0
M  END
>  <i_m_ct_stereo_status>  (121) 
1

>  <s_m_source_file>  (121) 
/var/tmp/pbs.5076255.sched01/tmpp9awzhar/40nweoahkg.sdf

>  <i_m_source_file_index>  (121) 
6

>  <i_lp_mmshare_version>  (121) 
48012

>  <i_f3d_flags>  (121) 
0

>  <s_epik_input>  (121) 
W0NIMl0xW0NIMl1bQ0gyXVtDSDJdUzEoPU8pPU5jMltjSF1bY0hdbltjSF1uMg==

>  <s_epik_cmdline>  (121) 
J2VwaWtfcHl0aG9uJywgJy1waHQnLCAnMi4wJywgJy1waCcsICc3LjAnLCAnLXRuJywgJzgnLCAnLW1hJywgJzIwMCcsICctaW1hZScsICc8aW5maWxlLm1hZT4nLCAnLW9tYWUnLCAnPG91dGZpbGUubWFlPic=

>  <r_epik_Ionization_Penalty>  (121) 
0.00121692

>  <r_epik_Ionization_Penalty_Charging>  (121) 
0

>  <r_epik_Ionization_Penalty_Neutral>  (121) 
0.00121692

>  <r_epik_State_Penalty>  (121) 
0.000767161

>  <r_epik_Charging_Adjusted_Penalty>  (121) 
0.000767161

>  <i_epik_Tot_Q>  (121) 
0

>  <i_epik_Tot_abs_Q>  (121) 
0

>  <s_lp_Force_Field>  (121) 
OPLS3e

>  <r_lp_Energy>  (121) 
7.48687

>  <b_lp_Chiralities_Consistent>  (121) 
1

>  <s_lp_Variant>  (121) 
32:0-1

>  <s_i_glide_gridfile>  (121) 
pfpi4k_grid

>  <i_i_glide_lignum>  (121) 
6

>  <i_i_glide_rotatable_bonds>  (121) 
1

>  <r_i_docking_score>  (121) 
-3.02711

>  <r_i_glide_ligand_efficiency>  (121) 
-0.232855

>  <r_i_glide_ligand_efficiency_sa>  (121) 
-0.547519

>  <r_i_glide_ligand_efficiency_ln>  (121) 
-0.849132

>  <r_i_glide_gscore>  (121) 
-3.02711

>  <r_i_glide_lipo>  (121) 
-0.0142029

>  <r_i_glide_hbond>  (121) 
0

>  <r_i_glide_metal>  (121) 
-0

>  <r_i_glide_rewards>  (121) 
-2.06415

>  <r_i_glide_evdw>  (121) 
-16.7775

>  <r_i_glide_ecoul>  (121) 
-0.25737

>  <r_i_glide_erotb>  (121) 
0

>  <r_i_glide_esite>  (121) 
-0.0712827

>  <r_i_glide_emodel>  (121) 
-22.0505

>  <r_i_glide_energy>  (121) 
-17.0348

>  <r_i_glide_einternal>  (121) 
0.177995

>  <r_i_glide_intrahb_reward>  (121) 
-0

>  <i_i_glide_confnum>  (121) 
1

>  <i_i_glide_posenum>  (121) 
10

>  <r_i_glide_eff_state_penalty>  (121) 
0

>  <ligand_id>  (121) 
32

>  <original_smiles>  (121) 
O=S1(=Nc2ccncn2)CCCC1

>  <smiles>  (121) 
[H]c1nc([H])c([H])c(N=S2(=O)C([H])([H])C([H])([H])C([H])([H])C2([H])[H])n1

$$$$
33:0:0
     RDKit          3D

 30 34  0  0  1  0  0  0  0  0999 V2000
   -2.3929    2.8797    3.9700 C   0  0  0  0  0  0  0  0  0  0  0  0
   -1.7254    3.1289    5.1924 C   0  0  0  0  0  0  0  0  0  0  0  0
   -0.4393    2.7808    5.4411 N   0  0  0  0  0  0  0  0  0  0  0  0
    0.1917    2.1671    4.4197 C   0  0  0  0  0  0  0  0  0  0  0  0
   -0.3777    1.8629    3.1793 C   0  0  0  0  0  0  0  0  0  0  0  0
   -1.7073    2.2227    2.9266 C   0  0  0  0  0  0  0  0  0  0  0  0
    0.6141    1.1646    2.2573 C   0  0  0  0  0  0  0  0  0  0  0  0
    1.7481    1.1382    3.1632 N   0  0  0  0  0  0  0  0  0  0  0  0
    3.0254    0.7159    3.2082 C   0  0  0  0  0  0  0  0  0  0  0  0
    3.7131    0.0295    2.1000 C   0  0  0  0  0  0  0  0  0  0  0  0
    3.2056   -0.3622    0.8894 C   0  0  0  0  0  0  0  0  0  0  0  0
    4.2277   -0.9554    0.1739 N   0  0  0  0  0  0  0  0  0  0  0  0
    4.2678   -1.5088   -1.0667 C   0  0  0  0  0  0  0  0  0  0  0  0
    5.4707   -2.0223   -1.4731 C   0  0  0  0  0  0  0  0  0  0  0  0
    6.6169   -1.9905   -0.7179 N   0  0  0  0  0  0  0  0  0  0  0  0
    6.5657   -1.4699    0.4772 C   0  0  0  0  0  0  0  0  0  0  0  0
    5.3686   -0.9088    1.0072 C   0  0  0  0  0  0  0  0  0  0  0  0
    5.0663   -0.3203    2.1636 N   0  0  0  0  0  0  0  0  0  0  0  0
    3.5742    0.9951    4.4092 N   0  0  0  0  0  0  0  0  0  0  0  0
    2.5941    1.6391    5.1723 N   0  0  0  0  0  0  0  0  0  0  0  0
    1.5454    1.6823    4.3541 C   0  0  0  0  0  0  0  0  0  0  0  0
   -3.4226    3.1671    3.8327 H   0  0  0  0  0  0  0  0  0  0  0  0
   -2.2550    3.6222    5.9917 H   0  0  0  0  0  0  0  0  0  0  0  0
   -2.1874    1.9979    1.9890 H   0  0  0  0  0  0  0  0  0  0  0  0
    0.3039    0.1521    2.0014 H   0  0  0  0  0  0  0  0  0  0  0  0
    0.8448    1.7539    1.3711 H   0  0  0  0  0  0  0  0  0  0  0  0
    2.2152   -0.2808    0.4650 H   0  0  0  0  0  0  0  0  0  0  0  0
    3.3499   -1.5197   -1.6545 H   0  0  0  0  0  0  0  0  0  0  0  0
    5.5730   -2.4860   -2.4514 H   0  0  0  0  0  0  0  0  0  0  0  0
    7.4658   -1.4506    1.0819 H   0  0  0  0  0  0  0  0  0  0  0  0
  1  6  2  0
  1  2  1  0
  1 22  1  0
  2  3  2  0
  2 23  1  0
  3  4  1  0
  4 21  1  0
  4  5  2  0
  5  6  1  0
  5  7  1  0
  6 24  1  0
  7  8  1  0
  7 25  1  0
  7 26  1  0
  8 21  1  0
  8  9  1  0
  9 10  1  0
  9 19  2  0
 10 18  1  0
 10 11  2  0
 11 12  1  0
 11 27  1  0
 12 17  1  0
 12 13  1  0
 13 14  2  0
 13 28  1  0
 14 15  1  0
 14 29  1  0
 15 16  2  0
 16 17  1  0
 16 30  1  0
 17 18  2  0
 19 20  1  0
 20 21  2  0
M  END
>  <i_m_ct_stereo_status>  (122) 
1

>  <s_m_source_file>  (122) 
/var/tmp/pbs.5076255.sched01/tmpp9awzhar/40nweoahkg.sdf

>  <i_m_source_file_index>  (122) 
7

>  <i_lp_mmshare_version>  (122) 
48012

>  <i_f3d_flags>  (122) 
0

>  <s_epik_input>  (122) 
bjFbY0hdW2NIXVtjSF1jKGMxMilbQ0gyXW4zYzJubmMzLWMoW2NIXTQpbmMobjQ1KVtjSF1uW2NIXVtjSF01

>  <s_epik_cmdline>  (122) 
J2VwaWtfcHl0aG9uJywgJy1waHQnLCAnMi4wJywgJy1waCcsICc3LjAnLCAnLXRuJywgJzgnLCAnLW1hJywgJzIwMCcsICctaW1hZScsICc8aW5maWxlLm1hZT4nLCAnLW9tYWUnLCAnPG91dGZpbGUubWFlPic=

>  <r_lp_tautomer_probability>  (122) 
1

>  <r_epik_Ionization_Penalty>  (122) 
0.000438517

>  <r_epik_Ionization_Penalty_Charging>  (122) 
0.000282912

>  <r_epik_Ionization_Penalty_Neutral>  (122) 
0.000155605

>  <r_epik_State_Penalty>  (122) 
-0

>  <r_epik_Charging_Adjusted_Penalty>  (122) 
0.000282912

>  <i_epik_Tot_Q>  (122) 
0

>  <i_epik_Tot_abs_Q>  (122) 
0

>  <s_lp_Force_Field>  (122) 
OPLS3e

>  <r_lp_Energy>  (122) 
27.3165

>  <b_lp_Chiralities_Consistent>  (122) 
1

>  <s_lp_Variant>  (122) 
33:0-1

>  <s_i_glide_gridfile>  (122) 
pfpi4k_grid

>  <i_i_glide_lignum>  (122) 
7

>  <i_i_glide_rotatable_bonds>  (122) 
1

>  <r_i_docking_score>  (122) 
-3.94332

>  <r_i_glide_ligand_efficiency>  (122) 
-0.187777

>  <r_i_glide_ligand_efficiency_sa>  (122) 
-0.518062

>  <r_i_glide_ligand_efficiency_ln>  (122) 
-0.974977

>  <r_i_glide_gscore>  (122) 
-3.94332

>  <r_i_glide_lipo>  (122) 
-0.0298837

>  <r_i_glide_hbond>  (122) 
-0.234783

>  <r_i_glide_metal>  (122) 
-0

>  <r_i_glide_rewards>  (122) 
-1.7045

>  <r_i_glide_evdw>  (122) 
-25.528

>  <r_i_glide_ecoul>  (122) 
-6.08567

>  <r_i_glide_erotb>  (122) 
0.237175

>  <r_i_glide_esite>  (122) 
-0.0220753

>  <r_i_glide_emodel>  (122) 
-38.783

>  <r_i_glide_energy>  (122) 
-31.6137

>  <r_i_glide_einternal>  (122) 
2.45592

>  <r_i_glide_intrahb_reward>  (122) 
-0

>  <i_i_glide_confnum>  (122) 
2

>  <i_i_glide_posenum>  (122) 
14

>  <r_i_glide_eff_state_penalty>  (122) 
0

>  <ligand_id>  (122) 
33

>  <original_smiles>  (122) 
c1cnc2c(c1)Cn1c(-c3cn4ccncc4n3)nnc1-2

>  <smiles>  (122) 
[H]c1nc2c(c([H])c1[H])C([H])([H])n1c-2nnc1-c1nc2c([H])nc([H])c([H])n2c1[H]

$$$$
33:0:1
     RDKit          3D

 30 34  0  0  1  0  0  0  0  0999 V2000
    0.7971  -10.5238    3.5478 C   0  0  0  0  0  0  0  0  0  0  0  0
    1.9816  -11.2728    3.7542 C   0  0  0  0  0  0  0  0  0  0  0  0
    3.2181  -10.8520    3.3877 N   0  0  0  0  0  0  0  0  0  0  0  0
    3.2568   -9.6485    2.7854 C   0  0  0  0  0  0  0  0  0  0  0  0
    2.1501   -8.8267    2.5461 C   0  0  0  0  0  0  0  0  0  0  0  0
    0.8716   -9.2612    2.9244 C   0  0  0  0  0  0  0  0  0  0  0  0
    2.5553   -7.5235    1.8736 C   0  0  0  0  0  0  0  0  0  0  0  0
    3.9825   -7.7677    1.7851 N   0  0  0  0  0  0  0  0  0  0  0  0
    5.1062   -7.1649    1.3534 C   0  0  0  0  0  0  0  0  0  0  0  0
    5.1383   -5.8437    0.6908 C   0  0  0  0  0  0  0  0  0  0  0  0
    4.0929   -5.1031    0.1992 C   0  0  0  0  0  0  0  0  0  0  0  0
    4.6191   -3.9405   -0.3350 N   0  0  0  0  0  0  0  0  0  0  0  0
    4.0358   -2.8752   -0.9460 C   0  0  0  0  0  0  0  0  0  0  0  0
    4.8687   -1.8669   -1.3564 C   0  0  0  0  0  0  0  0  0  0  0  0
    6.2315   -1.8731   -1.1937 N   0  0  0  0  0  0  0  0  0  0  0  0
    6.7826   -2.9037   -0.6106 C   0  0  0  0  0  0  0  0  0  0  0  0
    6.0147   -4.0068   -0.1308 C   0  0  0  0  0  0  0  0  0  0  0  0
    6.3328   -5.1446    0.4894 N   0  0  0  0  0  0  0  0  0  0  0  0
    6.1794   -7.9464    1.5924 N   0  0  0  0  0  0  0  0  0  0  0  0
    5.7132   -9.1166    2.2040 N   0  0  0  0  0  0  0  0  0  0  0  0
    4.3990   -8.9248    2.2806 C   0  0  0  0  0  0  0  0  0  0  0  0
   -0.1577  -10.9100    3.8737 H   0  0  0  0  0  0  0  0  0  0  0  0
    1.9198  -12.2382    4.2310 H   0  0  0  0  0  0  0  0  0  0  0  0
   -0.0076   -8.6590    2.7537 H   0  0  0  0  0  0  0  0  0  0  0  0
    2.1152   -7.4290    0.8813 H   0  0  0  0  0  0  0  0  0  0  0  0
    2.3533   -6.6460    2.4872 H   0  0  0  0  0  0  0  0  0  0  0  0
    3.0300   -5.2803    0.1503 H   0  0  0  0  0  0  0  0  0  0  0  0
    2.9568   -2.8625   -1.0737 H   0  0  0  0  0  0  0  0  0  0  0  0
    4.4621   -0.9864   -1.8446 H   0  0  0  0  0  0  0  0  0  0  0  0
    7.8597   -2.9230   -0.4840 H   0  0  0  0  0  0  0  0  0  0  0  0
  1  6  2  0
  1  2  1  0
  1 22  1  0
  2  3  2  0
  2 23  1  0
  3  4  1  0
  4 21  1  0
  4  5  2  0
  5  6  1  0
  5  7  1  0
  6 24  1  0
  7  8  1  0
  7 25  1  0
  7 26  1  0
  8 21  1  0
  8  9  1  0
  9 10  1  0
  9 19  2  0
 10 18  1  0
 10 11  2  0
 11 12  1  0
 11 27  1  0
 12 17  1  0
 12 13  1  0
 13 14  2  0
 13 28  1  0
 14 15  1  0
 14 29  1  0
 15 16  2  0
 16 17  1  0
 16 30  1  0
 17 18  2  0
 19 20  1  0
 20 21  2  0
M  END
>  <i_m_ct_stereo_status>  (123) 
1

>  <s_m_source_file>  (123) 
/var/tmp/pbs.5076255.sched01/tmpp9awzhar/40nweoahkg.sdf

>  <i_m_source_file_index>  (123) 
7

>  <i_lp_mmshare_version>  (123) 
48012

>  <i_f3d_flags>  (123) 
0

>  <s_epik_input>  (123) 
bjFbY0hdW2NIXVtjSF1jKGMxMilbQ0gyXW4zYzJubmMzLWMoW2NIXTQpbmMobjQ1KVtjSF1uW2NIXVtjSF01

>  <s_epik_cmdline>  (123) 
J2VwaWtfcHl0aG9uJywgJy1waHQnLCAnMi4wJywgJy1waCcsICc3LjAnLCAnLXRuJywgJzgnLCAnLW1hJywgJzIwMCcsICctaW1hZScsICc8aW5maWxlLm1hZT4nLCAnLW9tYWUnLCAnPG91dGZpbGUubWFlPic=

>  <r_lp_tautomer_probability>  (123) 
1

>  <r_epik_Ionization_Penalty>  (123) 
0.000438517

>  <r_epik_Ionization_Penalty_Charging>  (123) 
0.000282912

>  <r_epik_Ionization_Penalty_Neutral>  (123) 
0.000155605

>  <r_epik_State_Penalty>  (123) 
-0

>  <r_epik_Charging_Adjusted_Penalty>  (123) 
0.000282912

>  <i_epik_Tot_Q>  (123) 
0

>  <i_epik_Tot_abs_Q>  (123) 
0

>  <s_lp_Force_Field>  (123) 
OPLS3e

>  <r_lp_Energy>  (123) 
27.3165

>  <b_lp_Chiralities_Consistent>  (123) 
1

>  <s_lp_Variant>  (123) 
33:0-1

>  <s_i_glide_gridfile>  (123) 
pfpi4k_grid

>  <i_i_glide_lignum>  (123) 
7

>  <i_i_glide_rotatable_bonds>  (123) 
1

>  <r_i_docking_score>  (123) 
-3.74994

>  <r_i_glide_ligand_efficiency>  (123) 
-0.178569

>  <r_i_glide_ligand_efficiency_sa>  (123) 
-0.492657

>  <r_i_glide_ligand_efficiency_ln>  (123) 
-0.927165

>  <r_i_glide_gscore>  (123) 
-3.74994

>  <r_i_glide_lipo>  (123) 
-0.22712

>  <r_i_glide_hbond>  (123) 
-0.14703

>  <r_i_glide_metal>  (123) 
-0

>  <r_i_glide_rewards>  (123) 
-1.78002

>  <r_i_glide_evdw>  (123) 
-26.4746

>  <r_i_glide_ecoul>  (123) 
-3.21708

>  <r_i_glide_erotb>  (123) 
0.237175

>  <r_i_glide_esite>  (123) 
-0.0266573

>  <r_i_glide_emodel>  (123) 
-36.3855

>  <r_i_glide_energy>  (123) 
-29.6916

>  <r_i_glide_einternal>  (123) 
2.56566

>  <r_i_glide_intrahb_reward>  (123) 
-0

>  <i_i_glide_confnum>  (123) 
4

>  <i_i_glide_posenum>  (123) 
17

>  <r_i_glide_eff_state_penalty>  (123) 
0

>  <ligand_id>  (123) 
33

>  <original_smiles>  (123) 
c1cnc2c(c1)Cn1c(-c3cn4ccncc4n3)nnc1-2

>  <smiles>  (123) 
[H]c1nc2c(c([H])c1[H])C([H])([H])n1c-2nnc1-c1nc2c([H])nc([H])c([H])n2c1[H]

$$$$
33:0:2
     RDKit          3D

 30 34  0  0  1  0  0  0  0  0999 V2000
   -0.6692   -9.4392    2.9315 C   0  0  0  0  0  0  0  0  0  0  0  0
    0.4186  -10.3001    3.2300 C   0  0  0  0  0  0  0  0  0  0  0  0
    1.7145  -10.0118    2.9587 N   0  0  0  0  0  0  0  0  0  0  0  0
    1.9160   -8.8191    2.3732 C   0  0  0  0  0  0  0  0  0  0  0  0
    0.9189   -7.8885    2.0507 C   0  0  0  0  0  0  0  0  0  0  0  0
   -0.4239   -8.1900    2.3253 C   0  0  0  0  0  0  0  0  0  0  0  0
    1.5040   -6.6488    1.3921 C   0  0  0  0  0  0  0  0  0  0  0  0
    2.9008   -7.0388    1.4240 N   0  0  0  0  0  0  0  0  0  0  0  0
    4.1084   -6.5653    1.0699 C   0  0  0  0  0  0  0  0  0  0  0  0
    4.3298   -5.2548    0.4318 C   0  0  0  0  0  0  0  0  0  0  0  0
    3.4074   -4.3006    0.0801 C   0  0  0  0  0  0  0  0  0  0  0  0
    4.0978   -3.2520   -0.4982 N   0  0  0  0  0  0  0  0  0  0  0  0
    3.6741   -2.0717   -1.0165 C   0  0  0  0  0  0  0  0  0  0  0  0
    4.6373   -1.2363   -1.5103 C   0  0  0  0  0  0  0  0  0  0  0  0
    5.9773   -1.5219   -1.5145 N   0  0  0  0  0  0  0  0  0  0  0  0
    6.3767   -2.6598   -1.0186 C   0  0  0  0  0  0  0  0  0  0  0  0
    5.4633   -3.6065   -0.4707 C   0  0  0  0  0  0  0  0  0  0  0  0
    5.6110   -4.8066    0.0904 N   0  0  0  0  0  0  0  0  0  0  0  0
    5.0750   -7.4557    1.3842 N   0  0  0  0  0  0  0  0  0  0  0  0
    4.4453   -8.5579    1.9732 N   0  0  0  0  0  0  0  0  0  0  0  0
    3.1588   -8.2251    1.9536 C   0  0  0  0  0  0  0  0  0  0  0  0
   -1.6752   -9.7386    3.1829 H   0  0  0  0  0  0  0  0  0  0  0  0
    0.2230  -11.2494    3.7038 H   0  0  0  0  0  0  0  0  0  0  0  0
   -1.2266   -7.5104    2.0805 H   0  0  0  0  0  0  0  0  0  0  0  0
    1.1694   -6.5323    0.3610 H   0  0  0  0  0  0  0  0  0  0  0  0
    1.3459   -5.7517    1.9910 H   0  0  0  0  0  0  0  0  0  0  0  0
    2.3357   -4.2434    0.1591 H   0  0  0  0  0  0  0  0  0  0  0  0
    2.6198   -1.8419   -1.0138 H   0  0  0  0  0  0  0  0  0  0  0  0
    4.3669   -0.2733   -1.9333 H   0  0  0  0  0  0  0  0  0  0  0  0
    7.4358   -2.8906   -1.0132 H   0  0  0  0  0  0  0  0  0  0  0  0
  1  6  2  0
  1  2  1  0
  1 22  1  0
  2  3  2  0
  2 23  1  0
  3  4  1  0
  4 21  1  0
  4  5  2  0
  5  6  1  0
  5  7  1  0
  6 24  1  0
  7  8  1  0
  7 25  1  0
  7 26  1  0
  8 21  1  0
  8  9  1  0
  9 10  1  0
  9 19  2  0
 10 18  1  0
 10 11  2  0
 11 12  1  0
 11 27  1  0
 12 17  1  0
 12 13  1  0
 13 14  2  0
 13 28  1  0
 14 15  1  0
 14 29  1  0
 15 16  2  0
 16 17  1  0
 16 30  1  0
 17 18  2  0
 19 20  1  0
 20 21  2  0
M  END
>  <i_m_ct_stereo_status>  (124) 
1

>  <s_m_source_file>  (124) 
/var/tmp/pbs.5076255.sched01/tmpp9awzhar/40nweoahkg.sdf

>  <i_m_source_file_index>  (124) 
7

>  <i_lp_mmshare_version>  (124) 
48012

>  <i_f3d_flags>  (124) 
0

>  <s_epik_input>  (124) 
bjFbY0hdW2NIXVtjSF1jKGMxMilbQ0gyXW4zYzJubmMzLWMoW2NIXTQpbmMobjQ1KVtjSF1uW2NIXVtjSF01

>  <s_epik_cmdline>  (124) 
J2VwaWtfcHl0aG9uJywgJy1waHQnLCAnMi4wJywgJy1waCcsICc3LjAnLCAnLXRuJywgJzgnLCAnLW1hJywgJzIwMCcsICctaW1hZScsICc8aW5maWxlLm1hZT4nLCAnLW9tYWUnLCAnPG91dGZpbGUubWFlPic=

>  <r_lp_tautomer_probability>  (124) 
1

>  <r_epik_Ionization_Penalty>  (124) 
0.000438517

>  <r_epik_Ionization_Penalty_Charging>  (124) 
0.000282912

>  <r_epik_Ionization_Penalty_Neutral>  (124) 
0.000155605

>  <r_epik_State_Penalty>  (124) 
-0

>  <r_epik_Charging_Adjusted_Penalty>  (124) 
0.000282912

>  <i_epik_Tot_Q>  (124) 
0

>  <i_epik_Tot_abs_Q>  (124) 
0

>  <s_lp_Force_Field>  (124) 
OPLS3e

>  <r_lp_Energy>  (124) 
27.3165

>  <b_lp_Chiralities_Consistent>  (124) 
1

>  <s_lp_Variant>  (124) 
33:0-1

>  <s_i_glide_gridfile>  (124) 
pfpi4k_grid

>  <i_i_glide_lignum>  (124) 
7

>  <i_i_glide_rotatable_bonds>  (124) 
1

>  <r_i_docking_score>  (124) 
-3.56529

>  <r_i_glide_ligand_efficiency>  (124) 
-0.169776

>  <r_i_glide_ligand_efficiency_sa>  (124) 
-0.468399

>  <r_i_glide_ligand_efficiency_ln>  (124) 
-0.881512

>  <r_i_glide_gscore>  (124) 
-3.56529

>  <r_i_glide_lipo>  (124) 
-0.0587388

>  <r_i_glide_hbond>  (124) 
-0.108142

>  <r_i_glide_metal>  (124) 
-0

>  <r_i_glide_rewards>  (124) 
-1.8437

>  <r_i_glide_evdw>  (124) 
-27.5463

>  <r_i_glide_ecoul>  (124) 
-2.61425

>  <r_i_glide_erotb>  (124) 
0.237175

>  <r_i_glide_esite>  (124) 
-0.0224306

>  <r_i_glide_emodel>  (124) 
-36.528

>  <r_i_glide_energy>  (124) 
-30.1606

>  <r_i_glide_einternal>  (124) 
2.44454

>  <r_i_glide_intrahb_reward>  (124) 
-0

>  <i_i_glide_confnum>  (124) 
2

>  <i_i_glide_posenum>  (124) 
3

>  <r_i_glide_eff_state_penalty>  (124) 
0

>  <ligand_id>  (124) 
33

>  <original_smiles>  (124) 
c1cnc2c(c1)Cn1c(-c3cn4ccncc4n3)nnc1-2

>  <smiles>  (124) 
[H]c1nc2c(c([H])c1[H])C([H])([H])n1c-2nnc1-c1nc2c([H])nc([H])c([H])n2c1[H]

$$$$
34:0:0
     RDKit          3D

 60 63  0  0  1  0  0  0  0  0999 V2000
    3.8016   -1.5662   -1.7980 C   0  0  0  0  0  0  0  0  0  0  0  0
    3.2327   -2.9947   -1.9115 C   0  0  2  0  0  0  0  0  0  0  0  0
    1.8453   -3.0125   -2.4129 N   0  0  0  0  0  0  0  0  0  0  0  0
    3.1613   -3.6423   -0.5632 C   0  0  0  0  0  0  0  0  0  0  0  0
    2.1918   -4.3434   -0.2620 O   0  0  0  0  0  0  0  0  0  0  0  0
    4.2755   -3.3850    0.1545 O   0  0  0  0  0  0  0  0  0  0  0  0
    4.9925   -4.2959    1.0002 C   0  0  2  0  0  0  0  0  0  0  0  0
    5.4332   -5.4879    0.1362 C   0  0  0  0  0  0  0  0  0  0  0  0
    4.6187   -6.6970    0.6287 C   0  0  0  0  0  0  0  0  0  0  0  0
    3.6007   -6.1427    1.6453 C   0  0  1  0  0  0  0  0  0  0  0  0
    3.0299   -7.1138    2.6230 C   0  0  0  0  0  0  0  0  0  0  0  0
    1.9448   -7.8258    2.2498 C   0  0  0  0  0  0  0  0  0  0  0  0
    1.2490   -8.8272    3.1027 C   0  0  0  0  0  0  0  0  0  0  0  0
    2.1480   -9.2910    4.2655 C   0  0  2  0  0  0  0  0  0  0  0  0
    1.3442  -10.1879    5.2279 C   0  0  0  0  0  0  0  0  0  0  0  0
    0.3635   -9.3919    6.1124 C   0  0  1  0  0  0  0  0  0  0  0  0
   -0.1692  -10.2478    7.1005 O   0  0  0  0  0  0  0  0  0  0  0  0
    1.0310   -8.1783    6.7895 C   0  0  0  0  0  0  0  0  0  0  0  0
    1.8368   -7.3094    5.8024 C   0  0  0  0  0  0  0  0  0  0  0  0
    2.8868   -8.1198    4.9965 C   0  0  1  0  0  0  0  0  0  0  0  0
    3.9747   -8.6864    5.9393 C   0  0  0  0  0  0  0  0  0  0  0  0
    3.5578   -7.1991    3.9716 C   0  0  0  0  0  0  0  0  0  0  0  0
    4.6306   -6.4074    4.2714 C   0  0  0  0  0  0  0  0  0  0  0  0
    5.2672   -5.3981    3.3142 C   0  0  0  0  0  0  0  0  0  0  0  0
    4.2629   -4.8930    2.2358 C   0  0  1  0  0  0  0  0  0  0  0  0
    3.2926   -3.8771    2.8824 C   0  0  0  0  0  0  0  0  0  0  0  0
    4.8410   -1.5896   -1.4485 H   0  0  0  0  0  0  0  0  0  0  0  0
    3.2294   -0.9948   -1.0559 H   0  0  0  0  0  0  0  0  0  0  0  0
    3.7847   -1.0455   -2.7635 H   0  0  0  0  0  0  0  0  0  0  0  0
    3.8578   -3.5996   -2.5687 H   0  0  0  0  0  0  0  0  0  0  0  0
    1.5292   -3.9712   -2.3779 H   0  0  0  0  0  0  0  0  0  0  0  0
    1.7569   -2.6117   -3.3394 H   0  0  0  0  0  0  0  0  0  0  0  0
    5.8840   -3.7695    1.3422 H   0  0  0  0  0  0  0  0  0  0  0  0
    5.2848   -5.2857   -0.9275 H   0  0  0  0  0  0  0  0  0  0  0  0
    6.5034   -5.6852    0.2162 H   0  0  0  0  0  0  0  0  0  0  0  0
    4.1239   -7.1634   -0.2164 H   0  0  0  0  0  0  0  0  0  0  0  0
    5.2907   -7.4328    1.0829 H   0  0  0  0  0  0  0  0  0  0  0  0
    2.6827   -5.8752    1.1927 H   0  0  0  0  0  0  0  0  0  0  0  0
    1.5020   -7.6635    1.2753 H   0  0  0  0  0  0  0  0  0  0  0  0
    0.3001   -8.4041    3.4376 H   0  0  0  0  0  0  0  0  0  0  0  0
    1.0040   -9.6684    2.4546 H   0  0  0  0  0  0  0  0  0  0  0  0
    2.9166   -9.9032    3.7951 H   0  0  0  0  0  0  0  0  0  0  0  0
    0.7945  -10.9371    4.6569 H   0  0  0  0  0  0  0  0  0  0  0  0
    2.0390  -10.7499    5.8457 H   0  0  0  0  0  0  0  0  0  0  0  0
   -0.4644   -9.0345    5.4970 H   0  0  0  0  0  0  0  0  0  0  0  0
    0.4429  -10.9503    7.2869 H   0  0  0  0  0  0  0  0  0  0  0  0
    0.2649   -7.5579    7.2500 H   0  0  0  0  0  0  0  0  0  0  0  0
    1.6845   -8.5019    7.5987 H   0  0  0  0  0  0  0  0  0  0  0  0
    1.1529   -6.8050    5.1173 H   0  0  0  0  0  0  0  0  0  0  0  0
    2.3417   -6.5095    6.3447 H   0  0  0  0  0  0  0  0  0  0  0  0
    3.5915   -9.4584    6.6000 H   0  0  0  0  0  0  0  0  0  0  0  0
    4.3918   -7.9163    6.5866 H   0  0  0  0  0  0  0  0  0  0  0  0
    4.7944   -9.1239    5.3677 H   0  0  0  0  0  0  0  0  0  0  0  0
    5.0980   -6.4346    5.2486 H   0  0  0  0  0  0  0  0  0  0  0  0
    5.6757   -4.5607    3.8851 H   0  0  0  0  0  0  0  0  0  0  0  0
    6.1344   -5.8790    2.8493 H   0  0  0  0  0  0  0  0  0  0  0  0
    2.7838   -4.3040    3.7447 H   0  0  0  0  0  0  0  0  0  0  0  0
    2.5177   -3.5601    2.1908 H   0  0  0  0  0  0  0  0  0  0  0  0
    3.8086   -2.9711    3.2147 H   0  0  0  0  0  0  0  0  0  0  0  0
    1.3118   -2.4531   -1.7377 H   0  0  0  0  0  0  0  0  0  0  0  0
  1  2  1  0
  1 27  1  0
  1 28  1  0
  1 29  1  0
  2  3  1  0
  2  4  1  0
  2 30  1  6
  3 31  1  0
  3 32  1  0
  3 60  1  0
  4  5  2  0
  4  6  1  0
  6  7  1  0
  7 25  1  0
  7  8  1  0
  7 33  1  1
  8  9  1  0
  8 34  1  0
  8 35  1  0
  9 10  1  0
  9 36  1  0
  9 37  1  0
 10 25  1  0
 10 11  1  0
 10 38  1  6
 11 22  1  0
 11 12  2  0
 12 13  1  0
 12 39  1  0
 13 14  1  0
 13 40  1  0
 13 41  1  0
 14 20  1  0
 14 15  1  0
 14 42  1  6
 15 16  1  0
 15 43  1  0
 15 44  1  0
 16 17  1  0
 16 18  1  0
 16 45  1  6
 17 46  1  0
 18 19  1  0
 18 47  1  0
 18 48  1  0
 19 20  1  0
 19 49  1  0
 19 50  1  0
 20 21  1  1
 20 22  1  0
 21 51  1  0
 21 52  1  0
 21 53  1  0
 22 23  2  0
 23 24  1  0
 23 54  1  0
 24 25  1  0
 24 55  1  0
 24 56  1  0
 25 26  1  1
 26 57  1  0
 26 58  1  0
 26 59  1  0
M  CHG  1   3   1
M  END
>  <i_m_ct_stereo_status>  (125) 
1

>  <s_m_source_file>  (125) 
/var/tmp/pbs.5076255.sched01/tmpp9awzhar/40nweoahkg.sdf

>  <i_m_source_file_index>  (125) 
8

>  <i_lp_mmshare_version>  (125) 
48012

>  <i_f3d_flags>  (125) 
0

>  <s_epik_input>  (125) 
W0NIM11bQ0BIXShbTkgyXSlDKD1PKU9bQ0BIXShbQ0gyXVtDSDJdMSlbQ0BdKFtDSDNdKShbQ0gyXVtDSF09QzIzKVtDQEBIXTFDMj1bQ0hdW0NIMl1bQ0BASF0oW0NAQF0zNFtDSDNdKVtDSDJdW0NAQEhdKFtPSF0pW0NIMl1bQ0gyXTQ=

>  <s_epik_cmdline>  (125) 
J2VwaWtfcHl0aG9uJywgJy1waHQnLCAnMi4wJywgJy1waCcsICc3LjAnLCAnLXRuJywgJzgnLCAnLW1hJywgJzIwMCcsICctaW1hZScsICc8aW5maWxlLm1hZT4nLCAnLW9tYWUnLCAnPG91dGZpbGUubWFlPic=

>  <r_epik_Ionization_Penalty>  (125) 
0.275494

>  <r_epik_Ionization_Penalty_Charging>  (125) 
0.275493

>  <r_epik_Ionization_Penalty_Neutral>  (125) 
1.72973e-06

>  <r_epik_State_Penalty>  (125) 
0.26783

>  <r_epik_Charging_Adjusted_Penalty>  (125) 
0.543322

>  <i_epik_Tot_Q>  (125) 
1

>  <i_epik_Tot_abs_Q>  (125) 
1

>  <s_epik_Chemistry_Notes>  (125) 
This compound has an ester and may undergo hydrolysis at high or low pH.

>  <s_lp_Force_Field>  (125) 
OPLS3e

>  <r_lp_Energy>  (125) 
39.4392

>  <b_lp_Chiralities_Consistent>  (125) 
1

>  <s_lp_Variant>  (125) 
34:0-1

>  <s_i_glide_gridfile>  (125) 
pfpi4k_grid

>  <i_i_glide_lignum>  (125) 
8

>  <i_i_glide_rotatable_bonds>  (125) 
4

>  <r_i_docking_score>  (125) 
-4.18938

>  <r_i_glide_ligand_efficiency>  (125) 
-0.16113

>  <r_i_glide_ligand_efficiency_sa>  (125) 
-0.477347

>  <r_i_glide_ligand_efficiency_ln>  (125) 
-0.983863

>  <r_i_glide_gscore>  (125) 
-4.18938

>  <r_i_glide_lipo>  (125) 
-0.275494

>  <r_i_glide_hbond>  (125) 
-0.36

>  <r_i_glide_metal>  (125) 
-0

>  <r_i_glide_rewards>  (125) 
-0.962589

>  <r_i_glide_evdw>  (125) 
-22.0555

>  <r_i_glide_ecoul>  (125) 
-11.8911

>  <r_i_glide_erotb>  (125) 
0.295148

>  <r_i_glide_esite>  (125) 
0

>  <r_i_glide_emodel>  (125) 
-32.7298

>  <r_i_glide_energy>  (125) 
-33.9467

>  <r_i_glide_einternal>  (125) 
20.1623

>  <r_i_glide_intrahb_reward>  (125) 
-0

>  <i_i_glide_confnum>  (125) 
2

>  <i_i_glide_posenum>  (125) 
29

>  <r_i_glide_eff_state_penalty>  (125) 
0

>  <ligand_id>  (125) 
34

>  <original_smiles>  (125) 
CC(N)C(=O)OC1CCC2C3=CCC4CC(O)CCC4(C)C3=CCC12C

>  <smiles>  (125) 
[H]OC1([H])C([H])([H])C([H])([H])C2(C([H])([H])[H])C3=C([H])C([H])([H])C4(C([H])([H])[H])C([H])(OC(=O)C([H])(C([H])([H])[H])[N+]([H])([H])[H])C([H])([H])C([H])([H])C4([H])C3=C([H])C([H])([H])C2([H])C1([H])[H]

$$$$
34:0:1
     RDKit          3D

 60 63  0  0  1  0  0  0  0  0999 V2000
   -1.2174    1.4662    3.2834 C   0  0  0  0  0  0  0  0  0  0  0  0
    0.2992    1.6785    3.0871 C   0  0  2  0  0  0  0  0  0  0  0  0
    0.6174    1.8203    1.6606 N   0  0  0  0  0  0  0  0  0  0  0  0
    1.1148    0.4673    3.5519 C   0  0  0  0  0  0  0  0  0  0  0  0
    1.8135   -0.1933    2.7888 O   0  0  0  0  0  0  0  0  0  0  0  0
    0.9750    0.2673    4.8790 O   0  0  0  0  0  0  0  0  0  0  0  0
    1.6839   -0.7570    5.6255 C   0  0  2  0  0  0  0  0  0  0  0  0
    3.1780   -0.8413    5.2161 C   0  0  0  0  0  0  0  0  0  0  0  0
    3.2985   -2.1395    4.3854 C   0  0  0  0  0  0  0  0  0  0  0  0
    1.8437   -2.6653    4.1738 C   0  0  1  0  0  0  0  0  0  0  0  0
    1.7629   -4.1579    3.9125 C   0  0  0  0  0  0  0  0  0  0  0  0
    1.8716   -4.5576    2.6336 C   0  0  0  0  0  0  0  0  0  0  0  0
    1.7891   -5.9762    2.1669 C   0  0  0  0  0  0  0  0  0  0  0  0
    2.0424   -6.9614    3.3253 C   0  0  2  0  0  0  0  0  0  0  0  0
    1.7673   -8.4077    2.8533 C   0  0  0  0  0  0  0  0  0  0  0  0
    0.2625   -8.7051    2.7187 C   0  0  1  0  0  0  0  0  0  0  0  0
    0.0811  -10.0782    2.4828 O   0  0  0  0  0  0  0  0  0  0  0  0
   -0.5452   -8.2958    3.9661 C   0  0  0  0  0  0  0  0  0  0  0  0
   -0.2370   -6.8609    4.4205 C   0  0  0  0  0  0  0  0  0  0  0  0
    1.2760   -6.5975    4.6371 C   0  0  1  0  0  0  0  0  0  0  0  0
    1.8052   -7.4582    5.8126 C   0  0  0  0  0  0  0  0  0  0  0  0
    1.4806   -5.1127    4.9749 C   0  0  0  0  0  0  0  0  0  0  0  0
    1.3778   -4.6186    6.2376 C   0  0  0  0  0  0  0  0  0  0  0  0
    1.4896   -3.1429    6.6125 C   0  0  0  0  0  0  0  0  0  0  0  0
    1.1086   -2.1963    5.4384 C   0  0  1  0  0  0  0  0  0  0  0  0
   -0.4271   -2.1900    5.2688 C   0  0  0  0  0  0  0  0  0  0  0  0
   -1.4707    1.3467    4.3373 H   0  0  0  0  0  0  0  0  0  0  0  0
   -1.5779    0.5751    2.7561 H   0  0  0  0  0  0  0  0  0  0  0  0
   -1.7604    2.3377    2.8958 H   0  0  0  0  0  0  0  0  0  0  0  0
    0.6387    2.5538    3.6525 H   0  0  0  0  0  0  0  0  0  0  0  0
    1.6240    1.8287    1.6221 H   0  0  0  0  0  0  0  0  0  0  0  0
    0.2542    2.7017    1.2579 H   0  0  0  0  0  0  0  0  0  0  0  0
    1.6384   -0.5000    6.6793 H   0  0  0  0  0  0  0  0  0  0  0  0
    3.4949    0.0447    4.6709 H   0  0  0  0  0  0  0  0  0  0  0  0
    3.8538   -0.8480    6.0714 H   0  0  0  0  0  0  0  0  0  0  0  0
    3.7667   -1.9377    3.4232 H   0  0  0  0  0  0  0  0  0  0  0  0
    3.9363   -2.8457    4.9208 H   0  0  0  0  0  0  0  0  0  0  0  0
    1.3382   -2.2286    3.3418 H   0  0  0  0  0  0  0  0  0  0  0  0
    1.9881   -3.8170    1.8546 H   0  0  0  0  0  0  0  0  0  0  0  0
    0.8279   -6.1309    1.6863 H   0  0  0  0  0  0  0  0  0  0  0  0
    2.5484   -6.1039    1.3941 H   0  0  0  0  0  0  0  0  0  0  0  0
    3.1055   -6.8782    3.5380 H   0  0  0  0  0  0  0  0  0  0  0  0
    2.2613   -8.5813    1.8961 H   0  0  0  0  0  0  0  0  0  0  0  0
    2.2304   -9.1054    3.5447 H   0  0  0  0  0  0  0  0  0  0  0  0
   -0.1428   -8.1802    1.8514 H   0  0  0  0  0  0  0  0  0  0  0  0
    0.2155  -10.2523    1.5407 H   0  0  0  0  0  0  0  0  0  0  0  0
   -1.6085   -8.3821    3.7493 H   0  0  0  0  0  0  0  0  0  0  0  0
   -0.3559   -8.9880    4.7886 H   0  0  0  0  0  0  0  0  0  0  0  0
   -0.6217   -6.1607    3.6785 H   0  0  0  0  0  0  0  0  0  0  0  0
   -0.7784   -6.6393    5.3381 H   0  0  0  0  0  0  0  0  0  0  0  0
    1.8156   -8.5173    5.5788 H   0  0  0  0  0  0  0  0  0  0  0  0
    1.1848   -7.3587    6.7009 H   0  0  0  0  0  0  0  0  0  0  0  0
    2.8252   -7.1740    6.0752 H   0  0  0  0  0  0  0  0  0  0  0  0
    1.1976   -5.2679    7.0835 H   0  0  0  0  0  0  0  0  0  0  0  0
    0.8607   -2.9440    7.4773 H   0  0  0  0  0  0  0  0  0  0  0  0
    2.5130   -2.9550    6.9513 H   0  0  0  0  0  0  0  0  0  0  0  0
   -0.8048   -3.1995    5.1378 H   0  0  0  0  0  0  0  0  0  0  0  0
   -0.7338   -1.6313    4.3848 H   0  0  0  0  0  0  0  0  0  0  0  0
   -0.9397   -1.7526    6.1269 H   0  0  0  0  0  0  0  0  0  0  0  0
    0.3414    1.0015    1.1397 H   0  0  0  0  0  0  0  0  0  0  0  0
  1  2  1  0
  1 27  1  0
  1 28  1  0
  1 29  1  0
  2  3  1  0
  2  4  1  0
  2 30  1  1
  3 31  1  0
  3 32  1  0
  3 60  1  0
  4  5  2  0
  4  6  1  0
  6  7  1  0
  7 25  1  0
  7  8  1  0
  7 33  1  1
  8  9  1  0
  8 34  1  0
  8 35  1  0
  9 10  1  0
  9 36  1  0
  9 37  1  0
 10 25  1  0
 10 11  1  0
 10 38  1  6
 11 22  1  0
 11 12  2  0
 12 13  1  0
 12 39  1  0
 13 14  1  0
 13 40  1  0
 13 41  1  0
 14 20  1  0
 14 15  1  0
 14 42  1  1
 15 16  1  0
 15 43  1  0
 15 44  1  0
 16 17  1  0
 16 18  1  0
 16 45  1  6
 17 46  1  0
 18 19  1  0
 18 47  1  0
 18 48  1  0
 19 20  1  0
 19 49  1  0
 19 50  1  0
 20 21  1  1
 20 22  1  0
 21 51  1  0
 21 52  1  0
 21 53  1  0
 22 23  2  0
 23 24  1  0
 23 54  1  0
 24 25  1  0
 24 55  1  0
 24 56  1  0
 25 26  1  6
 26 57  1  0
 26 58  1  0
 26 59  1  0
M  CHG  1   3   1
M  END
>  <i_m_ct_stereo_status>  (126) 
1

>  <s_m_source_file>  (126) 
/var/tmp/pbs.5076255.sched01/tmpp9awzhar/40nweoahkg.sdf

>  <i_m_source_file_index>  (126) 
8

>  <i_lp_mmshare_version>  (126) 
48012

>  <i_f3d_flags>  (126) 
0

>  <s_epik_input>  (126) 
W0NIM11bQ0BIXShbTkgyXSlDKD1PKU9bQ0BIXShbQ0gyXVtDSDJdMSlbQ0BdKFtDSDNdKShbQ0gyXVtDSF09QzIzKVtDQEBIXTFDMj1bQ0hdW0NIMl1bQ0BASF0oW0NAQF0zNFtDSDNdKVtDSDJdW0NAQEhdKFtPSF0pW0NIMl1bQ0gyXTQ=

>  <s_epik_cmdline>  (126) 
J2VwaWtfcHl0aG9uJywgJy1waHQnLCAnMi4wJywgJy1waCcsICc3LjAnLCAnLXRuJywgJzgnLCAnLW1hJywgJzIwMCcsICctaW1hZScsICc8aW5maWxlLm1hZT4nLCAnLW9tYWUnLCAnPG91dGZpbGUubWFlPic=

>  <r_epik_Ionization_Penalty>  (126) 
0.275494

>  <r_epik_Ionization_Penalty_Charging>  (126) 
0.275493

>  <r_epik_Ionization_Penalty_Neutral>  (126) 
1.72973e-06

>  <r_epik_State_Penalty>  (126) 
0.26783

>  <r_epik_Charging_Adjusted_Penalty>  (126) 
0.543322

>  <i_epik_Tot_Q>  (126) 
1

>  <i_epik_Tot_abs_Q>  (126) 
1

>  <s_epik_Chemistry_Notes>  (126) 
This compound has an ester and may undergo hydrolysis at high or low pH.

>  <s_lp_Force_Field>  (126) 
OPLS3e

>  <r_lp_Energy>  (126) 
39.4392

>  <b_lp_Chiralities_Consistent>  (126) 
1

>  <s_lp_Variant>  (126) 
34:0-1

>  <s_i_glide_gridfile>  (126) 
pfpi4k_grid

>  <i_i_glide_lignum>  (126) 
8

>  <i_i_glide_rotatable_bonds>  (126) 
4

>  <r_i_docking_score>  (126) 
-3.51966

>  <r_i_glide_ligand_efficiency>  (126) 
-0.135372

>  <r_i_glide_ligand_efficiency_sa>  (126) 
-0.401038

>  <r_i_glide_ligand_efficiency_ln>  (126) 
-0.826581

>  <r_i_glide_gscore>  (126) 
-3.51966

>  <r_i_glide_lipo>  (126) 
-0.00572988

>  <r_i_glide_hbond>  (126) 
-0.52

>  <r_i_glide_metal>  (126) 
-0

>  <r_i_glide_rewards>  (126) 
-0.951066

>  <r_i_glide_evdw>  (126) 
-22.0952

>  <r_i_glide_ecoul>  (126) 
-7.64766

>  <r_i_glide_erotb>  (126) 
0.295148

>  <r_i_glide_esite>  (126) 
-0.0861044

>  <r_i_glide_emodel>  (126) 
-31.3225

>  <r_i_glide_energy>  (126) 
-29.7428

>  <r_i_glide_einternal>  (126) 
12.0017

>  <r_i_glide_intrahb_reward>  (126) 
-0

>  <i_i_glide_confnum>  (126) 
3

>  <i_i_glide_posenum>  (126) 
32

>  <r_i_glide_eff_state_penalty>  (126) 
0

>  <ligand_id>  (126) 
34

>  <original_smiles>  (126) 
CC(N)C(=O)OC1CCC2C3=CCC4CC(O)CCC4(C)C3=CCC12C

>  <smiles>  (126) 
[H]OC1([H])C([H])([H])C([H])([H])C2(C([H])([H])[H])C3=C([H])C([H])([H])C4(C([H])([H])[H])C([H])(OC(=O)C([H])(C([H])([H])[H])[N+]([H])([H])[H])C([H])([H])C([H])([H])C4([H])C3=C([H])C([H])([H])C2([H])C1([H])[H]

$$$$
34:0:2
     RDKit          3D

 60 63  0  0  1  0  0  0  0  0999 V2000
    2.1074    2.7649    2.9236 C   0  0  0  0  0  0  0  0  0  0  0  0
    1.8231    1.5584    2.0049 C   0  0  2  0  0  0  0  0  0  0  0  0
    0.3774    1.4156    1.6856 N   0  0  0  0  0  0  0  0  0  0  0  0
    2.3058    0.2575    2.5984 C   0  0  0  0  0  0  0  0  0  0  0  0
    2.9068   -0.5448    1.9101 O   0  0  0  0  0  0  0  0  0  0  0  0
    2.0127    0.1847    3.9111 O   0  0  0  0  0  0  0  0  0  0  0  0
    2.5070   -0.8240    4.8129 C   0  0  2  0  0  0  0  0  0  0  0  0
    3.9965   -1.1400    4.5649 C   0  0  0  0  0  0  0  0  0  0  0  0
    3.9948   -2.5266    3.8856 C   0  0  0  0  0  0  0  0  0  0  0  0
    2.5032   -2.8649    3.5808 C   0  0  1  0  0  0  0  0  0  0  0  0
    2.2195   -4.3438    3.4641 C   0  0  0  0  0  0  0  0  0  0  0  0
    2.3767   -4.9021    2.2463 C   0  0  0  0  0  0  0  0  0  0  0  0
    2.1289   -6.3439    1.9267 C   0  0  0  0  0  0  0  0  0  0  0  0
    2.1411   -7.2195    3.1978 C   0  0  2  0  0  0  0  0  0  0  0  0
    1.7001   -8.6527    2.8438 C   0  0  0  0  0  0  0  0  0  0  0  0
    0.1836   -8.7490    2.5970 C   0  0  1  0  0  0  0  0  0  0  0  0
   -0.1742  -10.1107    2.4728 O   0  0  0  0  0  0  0  0  0  0  0  0
   -0.6566   -8.1084    3.7107 C   0  0  0  0  0  0  0  0  0  0  0  0
   -0.1794   -6.6878    4.0532 C   0  0  0  0  0  0  0  0  0  0  0  0
    1.3338   -6.6048    4.3853 C   0  0  1  0  0  0  0  0  0  0  0  0
    1.6287   -7.3975    5.6872 C   0  0  0  0  0  0  0  0  0  0  0  0
    1.7263   -5.1315    4.5789 C   0  0  0  0  0  0  0  0  0  0  0  0
    1.5910   -4.4959    5.7847 C   0  0  0  0  0  0  0  0  0  0  0  0
    1.8813   -3.0144    6.0120 C   0  0  0  0  0  0  0  0  0  0  0  0
    1.7429   -2.1736    4.7149 C   0  0  1  0  0  0  0  0  0  0  0  0
    0.2413   -1.9732    4.4030 C   0  0  0  0  0  0  0  0  0  0  0  0
    3.1843    2.7837    3.1350 H   0  0  0  0  0  0  0  0  0  0  0  0
    1.5921    2.6896    3.8835 H   0  0  0  0  0  0  0  0  0  0  0  0
    1.8285    3.7144    2.4360 H   0  0  0  0  0  0  0  0  0  0  0  0
    2.3596    1.6934    1.0816 H   0  0  0  0  0  0  0  0  0  0  0  0
    0.2720    0.6169    1.0562 H   0  0  0  0  0  0  0  0  0  0  0  0
    0.0862    2.2536    1.1935 H   0  0  0  0  0  0  0  0  0  0  0  0
    2.4097   -0.4321    5.8244 H   0  0  0  0  0  0  0  0  0  0  0  0
    4.4860   -0.3710    3.9701 H   0  0  0  0  0  0  0  0  0  0  0  0
    4.5869   -1.1467    5.4848 H   0  0  0  0  0  0  0  0  0  0  0  0
    4.5660   -2.4965    2.9560 H   0  0  0  0  0  0  0  0  0  0  0  0
    4.4776   -3.2425    4.5457 H   0  0  0  0  0  0  0  0  0  0  0  0
    2.1507   -2.4214    2.6657 H   0  0  0  0  0  0  0  0  0  0  0  0
    2.6632   -4.2821    1.4193 H   0  0  0  0  0  0  0  0  0  0  0  0
    1.1948   -6.4117    1.3649 H   0  0  0  0  0  0  0  0  0  0  0  0
    2.9247   -6.6567    1.2450 H   0  0  0  0  0  0  0  0  0  0  0  0
    3.1828   -7.2547    3.4999 H   0  0  0  0  0  0  0  0  0  0  0  0
    2.2383   -9.0004    1.9617 H   0  0  0  0  0  0  0  0  0  0  0  0
    1.9952   -9.3276    3.6441 H   0  0  0  0  0  0  0  0  0  0  0  0
   -0.0681   -8.2677    1.6508 H   0  0  0  0  0  0  0  0  0  0  0  0
    0.0324  -10.3874    1.5915 H   0  0  0  0  0  0  0  0  0  0  0  0
   -1.7001   -8.0695    3.3985 H   0  0  0  0  0  0  0  0  0  0  0  0
   -0.6374   -8.7255    4.6131 H   0  0  0  0  0  0  0  0  0  0  0  0
   -0.3791   -6.0325    3.2070 H   0  0  0  0  0  0  0  0  0  0  0  0
   -0.7602   -6.2882    4.8842 H   0  0  0  0  0  0  0  0  0  0  0  0
    1.5033   -8.4683    5.5595 H   0  0  0  0  0  0  0  0  0  0  0  0
    0.9566   -7.1109    6.4936 H   0  0  0  0  0  0  0  0  0  0  0  0
    2.6546   -7.2232    6.0153 H   0  0  0  0  0  0  0  0  0  0  0  0
    1.2382   -5.0185    6.6753 H   0  0  0  0  0  0  0  0  0  0  0  0
    1.2143   -2.6383    6.7909 H   0  0  0  0  0  0  0  0  0  0  0  0
    2.8894   -2.9323    6.4359 H   0  0  0  0  0  0  0  0  0  0  0  0
   -0.2762   -2.9277    4.3299 H   0  0  0  0  0  0  0  0  0  0  0  0
    0.1050   -1.4736    3.4482 H   0  0  0  0  0  0  0  0  0  0  0  0
   -0.2692   -1.3711    5.1628 H   0  0  0  0  0  0  0  0  0  0  0  0
   -0.1521    1.2764    2.5270 H   0  0  0  0  0  0  0  0  0  0  0  0
  1  2  1  0
  1 27  1  0
  1 28  1  0
  1 29  1  0
  2  3  1  0
  2  4  1  0
  2 30  1  6
  3 31  1  0
  3 32  1  0
  3 60  1  0
  4  5  2  0
  4  6  1  0
  6  7  1  0
  7 25  1  0
  7  8  1  0
  7 33  1  1
  8  9  1  0
  8 34  1  0
  8 35  1  0
  9 10  1  0
  9 36  1  0
  9 37  1  0
 10 25  1  0
 10 11  1  0
 10 38  1  6
 11 22  1  0
 11 12  2  0
 12 13  1  0
 12 39  1  0
 13 14  1  0
 13 40  1  0
 13 41  1  0
 14 20  1  0
 14 15  1  0
 14 42  1  1
 15 16  1  0
 15 43  1  0
 15 44  1  0
 16 17  1  0
 16 18  1  0
 16 45  1  6
 17 46  1  0
 18 19  1  0
 18 47  1  0
 18 48  1  0
 19 20  1  0
 19 49  1  0
 19 50  1  0
 20 21  1  1
 20 22  1  0
 21 51  1  0
 21 52  1  0
 21 53  1  0
 22 23  2  0
 23 24  1  0
 23 54  1  0
 24 25  1  0
 24 55  1  0
 24 56  1  0
 25 26  1  6
 26 57  1  0
 26 58  1  0
 26 59  1  0
M  CHG  1   3   1
M  END
>  <i_m_ct_stereo_status>  (127) 
1

>  <s_m_source_file>  (127) 
/var/tmp/pbs.5076255.sched01/tmpp9awzhar/40nweoahkg.sdf

>  <i_m_source_file_index>  (127) 
8

>  <i_lp_mmshare_version>  (127) 
48012

>  <i_f3d_flags>  (127) 
0

>  <s_epik_input>  (127) 
W0NIM11bQ0BIXShbTkgyXSlDKD1PKU9bQ0BIXShbQ0gyXVtDSDJdMSlbQ0BdKFtDSDNdKShbQ0gyXVtDSF09QzIzKVtDQEBIXTFDMj1bQ0hdW0NIMl1bQ0BASF0oW0NAQF0zNFtDSDNdKVtDSDJdW0NAQEhdKFtPSF0pW0NIMl1bQ0gyXTQ=

>  <s_epik_cmdline>  (127) 
J2VwaWtfcHl0aG9uJywgJy1waHQnLCAnMi4wJywgJy1waCcsICc3LjAnLCAnLXRuJywgJzgnLCAnLW1hJywgJzIwMCcsICctaW1hZScsICc8aW5maWxlLm1hZT4nLCAnLW9tYWUnLCAnPG91dGZpbGUubWFlPic=

>  <r_epik_Ionization_Penalty>  (127) 
0.275494

>  <r_epik_Ionization_Penalty_Charging>  (127) 
0.275493

>  <r_epik_Ionization_Penalty_Neutral>  (127) 
1.72973e-06

>  <r_epik_State_Penalty>  (127) 
0.26783

>  <r_epik_Charging_Adjusted_Penalty>  (127) 
0.543322

>  <i_epik_Tot_Q>  (127) 
1

>  <i_epik_Tot_abs_Q>  (127) 
1

>  <s_epik_Chemistry_Notes>  (127) 
This compound has an ester and may undergo hydrolysis at high or low pH.

>  <s_lp_Force_Field>  (127) 
OPLS3e

>  <r_lp_Energy>  (127) 
39.4392

>  <b_lp_Chiralities_Consistent>  (127) 
1

>  <s_lp_Variant>  (127) 
34:0-1

>  <s_i_glide_gridfile>  (127) 
pfpi4k_grid

>  <i_i_glide_lignum>  (127) 
8

>  <i_i_glide_rotatable_bonds>  (127) 
4

>  <r_i_docking_score>  (127) 
-3.3781

>  <r_i_glide_ligand_efficiency>  (127) 
-0.129927

>  <r_i_glide_ligand_efficiency_sa>  (127) 
-0.384908

>  <r_i_glide_ligand_efficiency_ln>  (127) 
-0.793335

>  <r_i_glide_gscore>  (127) 
-3.3781

>  <r_i_glide_lipo>  (127) 
-0.035298

>  <r_i_glide_hbond>  (127) 
-0.483319

>  <r_i_glide_metal>  (127) 
-0

>  <r_i_glide_rewards>  (127) 
-0.951066

>  <r_i_glide_evdw>  (127) 
-23.5383

>  <r_i_glide_ecoul>  (127) 
-6.22887

>  <r_i_glide_erotb>  (127) 
0.295148

>  <r_i_glide_esite>  (127) 
-0.0923133

>  <r_i_glide_emodel>  (127) 
-31.3503

>  <r_i_glide_energy>  (127) 
-29.7672

>  <r_i_glide_einternal>  (127) 
12.7514

>  <r_i_glide_intrahb_reward>  (127) 
-0

>  <i_i_glide_confnum>  (127) 
3

>  <i_i_glide_posenum>  (127) 
19

>  <r_i_glide_eff_state_penalty>  (127) 
0

>  <ligand_id>  (127) 
34

>  <original_smiles>  (127) 
CC(N)C(=O)OC1CCC2C3=CCC4CC(O)CCC4(C)C3=CCC12C

>  <smiles>  (127) 
[H]OC1([H])C([H])([H])C([H])([H])C2(C([H])([H])[H])C3=C([H])C([H])([H])C4(C([H])([H])[H])C([H])(OC(=O)C([H])(C([H])([H])[H])[N+]([H])([H])[H])C([H])([H])C([H])([H])C4([H])C3=C([H])C([H])([H])C2([H])C1([H])[H]

$$$$
34:1:0
     RDKit          3D

 59 62  0  0  1  0  0  0  0  0999 V2000
    4.5675   -0.8469   -1.8056 C   0  0  0  0  0  0  0  0  0  0  0  0
    4.9762   -1.1143   -0.3422 C   0  0  2  0  0  0  0  0  0  0  0  0
    6.0678   -0.2611    0.0741 N   0  0  0  0  0  0  0  0  0  0  0  0
    5.3763   -2.5762   -0.2363 C   0  0  0  0  0  0  0  0  0  0  0  0
    5.1076   -3.4192   -1.0978 O   0  0  0  0  0  0  0  0  0  0  0  0
    6.0506   -2.7880    0.9304 O   0  0  0  0  0  0  0  0  0  0  0  0
    6.2774   -4.0752    1.5100 C   0  0  2  0  0  0  0  0  0  0  0  0
    6.6391   -5.1692    0.5100 C   0  0  0  0  0  0  0  0  0  0  0  0
    5.3240   -5.9799    0.3755 C   0  0  0  0  0  0  0  0  0  0  0  0
    4.2461   -5.2407    1.2124 C   0  0  1  0  0  0  0  0  0  0  0  0
    3.1099   -6.1013    1.7008 C   0  0  0  0  0  0  0  0  0  0  0  0
    2.0633   -6.2669    0.8912 C   0  0  0  0  0  0  0  0  0  0  0  0
    0.8688   -7.1245    1.2064 C   0  0  0  0  0  0  0  0  0  0  0  0
    1.1569   -8.1245    2.3483 C   0  0  2  0  0  0  0  0  0  0  0  0
   -0.1493   -8.8250    2.7660 C   0  0  0  0  0  0  0  0  0  0  0  0
   -1.0802   -7.8986    3.5551 C   0  0  1  0  0  0  0  0  0  0  0  0
   -2.1705   -8.6536    4.0181 O   0  0  0  0  0  0  0  0  0  0  0  0
   -0.3702   -7.1792    4.7164 C   0  0  0  0  0  0  0  0  0  0  0  0
    0.9434   -6.5017    4.2717 C   0  0  0  0  0  0  0  0  0  0  0  0
    1.9132   -7.4747    3.5475 C   0  0  1  0  0  0  0  0  0  0  0  0
    2.3848   -8.5795    4.5257 C   0  0  0  0  0  0  0  0  0  0  0  0
    3.1326   -6.6771    3.0438 C   0  0  0  0  0  0  0  0  0  0  0  0
    4.2262   -6.4571    3.8034 C   0  0  0  0  0  0  0  0  0  0  0  0
    5.4206   -5.6051    3.3812 C   0  0  0  0  0  0  0  0  0  0  0  0
    5.0420   -4.5516    2.3111 C   0  0  1  0  0  0  0  0  0  0  0  0
    4.2724   -3.3884    2.9934 C   0  0  0  0  0  0  0  0  0  0  0  0
    3.7330   -1.5015   -2.0782 H   0  0  0  0  0  0  0  0  0  0  0  0
    5.3831   -1.0903   -2.4926 H   0  0  0  0  0  0  0  0  0  0  0  0
    4.2325    0.1710   -1.9918 H   0  0  0  0  0  0  0  0  0  0  0  0
    4.1229   -0.9321    0.3186 H   0  0  0  0  0  0  0  0  0  0  0  0
    5.8297    0.7233   -0.0806 H   0  0  0  0  0  0  0  0  0  0  0  0
    6.2811   -0.3649    1.0627 H   0  0  0  0  0  0  0  0  0  0  0  0
    7.1324   -3.9922    2.1585 H   0  0  0  0  0  0  0  0  0  0  0  0
    7.0035   -4.6661   -0.3852 H   0  0  0  0  0  0  0  0  0  0  0  0
    7.4639   -5.8033    0.8469 H   0  0  0  0  0  0  0  0  0  0  0  0
    5.0101   -6.0594   -0.6627 H   0  0  0  0  0  0  0  0  0  0  0  0
    5.4907   -6.9937    0.7542 H   0  0  0  0  0  0  0  0  0  0  0  0
    3.7498   -4.4662    0.6329 H   0  0  0  0  0  0  0  0  0  0  0  0
    2.0576   -5.7967   -0.0832 H   0  0  0  0  0  0  0  0  0  0  0  0
    0.0246   -6.4673    1.4079 H   0  0  0  0  0  0  0  0  0  0  0  0
    0.6205   -7.6790    0.3031 H   0  0  0  0  0  0  0  0  0  0  0  0
    1.8149   -8.8826    1.9170 H   0  0  0  0  0  0  0  0  0  0  0  0
   -0.6789   -9.1853    1.8865 H   0  0  0  0  0  0  0  0  0  0  0  0
    0.0780   -9.7131    3.3469 H   0  0  0  0  0  0  0  0  0  0  0  0
   -1.4886   -7.1419    2.8948 H   0  0  0  0  0  0  0  0  0  0  0  0
   -1.8965   -9.4807    4.4227 H   0  0  0  0  0  0  0  0  0  0  0  0
   -1.0297   -6.4152    5.1348 H   0  0  0  0  0  0  0  0  0  0  0  0
   -0.1588   -7.8735    5.5301 H   0  0  0  0  0  0  0  0  0  0  0  0
    0.7126   -5.6549    3.6185 H   0  0  0  0  0  0  0  0  0  0  0  0
    1.4475   -6.0688    5.1398 H   0  0  0  0  0  0  0  0  0  0  0  0
    1.5861   -9.2610    4.8153 H   0  0  0  0  0  0  0  0  0  0  0  0
    2.7679   -8.1630    5.4562 H   0  0  0  0  0  0  0  0  0  0  0  0
    3.1737   -9.1853    4.0763 H   0  0  0  0  0  0  0  0  0  0  0  0
    4.3136   -6.8585    4.8043 H   0  0  0  0  0  0  0  0  0  0  0  0
    5.8372   -5.1174    4.2637 H   0  0  0  0  0  0  0  0  0  0  0  0
    6.1975   -6.2812    3.0190 H   0  0  0  0  0  0  0  0  0  0  0  0
    3.4024   -3.7552    3.5369 H   0  0  0  0  0  0  0  0  0  0  0  0
    3.8975   -2.6638    2.2722 H   0  0  0  0  0  0  0  0  0  0  0  0
    4.8998   -2.8442    3.7042 H   0  0  0  0  0  0  0  0  0  0  0  0
  1  2  1  0
  1 27  1  0
  1 28  1  0
  1 29  1  0
  2  3  1  0
  2  4  1  0
  2 30  1  1
  3 31  1  0
  3 32  1  0
  4  5  2  0
  4  6  1  0
  6  7  1  0
  7 25  1  0
  7  8  1  0
  7 33  1  1
  8  9  1  0
  8 34  1  0
  8 35  1  0
  9 10  1  0
  9 36  1  0
  9 37  1  0
 10 25  1  0
 10 11  1  0
 10 38  1  6
 11 22  1  0
 11 12  2  0
 12 13  1  0
 12 39  1  0
 13 14  1  0
 13 40  1  0
 13 41  1  0
 14 20  1  0
 14 15  1  0
 14 42  1  6
 15 16  1  0
 15 43  1  0
 15 44  1  0
 16 17  1  0
 16 18  1  0
 16 45  1  6
 17 46  1  0
 18 19  1  0
 18 47  1  0
 18 48  1  0
 19 20  1  0
 19 49  1  0
 19 50  1  0
 20 21  1  1
 20 22  1  0
 21 51  1  0
 21 52  1  0
 21 53  1  0
 22 23  2  0
 23 24  1  0
 23 54  1  0
 24 25  1  0
 24 55  1  0
 24 56  1  0
 25 26  1  1
 26 57  1  0
 26 58  1  0
 26 59  1  0
M  END
>  <i_m_ct_stereo_status>  (128) 
1

>  <s_m_source_file>  (128) 
/var/tmp/pbs.5076255.sched01/tmpp9awzhar/40nweoahkg.sdf

>  <i_m_source_file_index>  (128) 
9

>  <i_lp_mmshare_version>  (128) 
48012

>  <i_f3d_flags>  (128) 
0

>  <s_epik_input>  (128) 
W0NIM11bQ0BIXShbTkgyXSlDKD1PKU9bQ0BIXShbQ0gyXVtDSDJdMSlbQ0BdKFtDSDNdKShbQ0gyXVtDSF09QzIzKVtDQEBIXTFDMj1bQ0hdW0NIMl1bQ0BASF0oW0NAQF0zNFtDSDNdKVtDSDJdW0NAQEhdKFtPSF0pW0NIMl1bQ0gyXTQ=

>  <s_epik_cmdline>  (128) 
J2VwaWtfcHl0aG9uJywgJy1waHQnLCAnMi4wJywgJy1waCcsICc3LjAnLCAnLXRuJywgJzgnLCAnLW1hJywgJzIwMCcsICctaW1hZScsICc8aW5maWxlLm1hZT4nLCAnLW9tYWUnLCAnPG91dGZpbGUubWFlPic=

>  <r_epik_Ionization_Penalty>  (128) 
0.586126

>  <r_epik_Ionization_Penalty_Charging>  (128) 
0

>  <r_epik_Ionization_Penalty_Neutral>  (128) 
0.586126

>  <r_epik_State_Penalty>  (128) 
0.599298

>  <r_epik_Charging_Adjusted_Penalty>  (128) 
0.599298

>  <i_epik_Tot_Q>  (128) 
0

>  <i_epik_Tot_abs_Q>  (128) 
0

>  <s_epik_Chemistry_Notes>  (128) 
This compound has an ester and may undergo hydrolysis at high or low pH.

>  <s_lp_Force_Field>  (128) 
OPLS3e

>  <r_lp_Energy>  (128) 
42.9742

>  <b_lp_Chiralities_Consistent>  (128) 
1

>  <s_lp_Variant>  (128) 
34:0-2

>  <s_i_glide_gridfile>  (128) 
pfpi4k_grid

>  <i_i_glide_lignum>  (128) 
9

>  <i_i_glide_rotatable_bonds>  (128) 
4

>  <r_i_docking_score>  (128) 
-3.70353

>  <r_i_glide_ligand_efficiency>  (128) 
-0.142444

>  <r_i_glide_ligand_efficiency_sa>  (128) 
-0.421989

>  <r_i_glide_ligand_efficiency_ln>  (128) 
-0.869763

>  <r_i_glide_gscore>  (128) 
-3.70353

>  <r_i_glide_lipo>  (128) 
-0.402709

>  <r_i_glide_hbond>  (128) 
-0.456

>  <r_i_glide_metal>  (128) 
-0

>  <r_i_glide_rewards>  (128) 
-0.957939

>  <r_i_glide_evdw>  (128) 
-20.5286

>  <r_i_glide_ecoul>  (128) 
-7.70996

>  <r_i_glide_erotb>  (128) 
0.296624

>  <r_i_glide_esite>  (128) 
-0.000583858

>  <r_i_glide_emodel>  (128) 
-26.5702

>  <r_i_glide_energy>  (128) 
-28.2386

>  <r_i_glide_einternal>  (128) 
14.5171

>  <r_i_glide_intrahb_reward>  (128) 
-0

>  <i_i_glide_confnum>  (128) 
3

>  <i_i_glide_posenum>  (128) 
4

>  <r_i_glide_eff_state_penalty>  (128) 
0

>  <ligand_id>  (128) 
34

>  <original_smiles>  (128) 
CC(N)C(=O)OC1CCC2C3=CCC4CC(O)CCC4(C)C3=CCC12C

>  <smiles>  (128) 
[H]OC1([H])C([H])([H])C([H])([H])C2(C([H])([H])[H])C3=C([H])C([H])([H])C4(C([H])([H])[H])C([H])(OC(=O)C([H])(N([H])[H])C([H])([H])[H])C([H])([H])C([H])([H])C4([H])C3=C([H])C([H])([H])C2([H])C1([H])[H]

$$$$
34:1:1
     RDKit          3D

 59 62  0  0  1  0  0  0  0  0999 V2000
    3.0217   -2.6236    0.7744 C   0  0  0  0  0  0  0  0  0  0  0  0
    3.1669   -3.7158   -0.3121 C   0  0  2  0  0  0  0  0  0  0  0  0
    1.9862   -3.7182   -1.1657 N   0  0  0  0  0  0  0  0  0  0  0  0
    3.2685   -5.0979    0.3631 C   0  0  0  0  0  0  0  0  0  0  0  0
    2.3386   -5.8867    0.4611 O   0  0  0  0  0  0  0  0  0  0  0  0
    4.5064   -5.2734    0.8552 O   0  0  0  0  0  0  0  0  0  0  0  0
    4.9470   -6.4452    1.5805 C   0  0  2  0  0  0  0  0  0  0  0  0
    4.4615   -7.7653    0.9485 C   0  0  0  0  0  0  0  0  0  0  0  0
    3.3221   -8.2444    1.8798 C   0  0  0  0  0  0  0  0  0  0  0  0
    3.0976   -7.1149    2.9277 C   0  0  1  0  0  0  0  0  0  0  0  0
    2.4977   -7.5939    4.2330 C   0  0  0  0  0  0  0  0  0  0  0  0
    1.1564   -7.6571    4.3068 C   0  0  0  0  0  0  0  0  0  0  0  0
    0.3802   -8.0954    5.5073 C   0  0  0  0  0  0  0  0  0  0  0  0
    1.2541   -8.8956    6.4886 C   0  0  2  0  0  0  0  0  0  0  0  0
    0.4780   -9.1502    7.7933 C   0  0  0  0  0  0  0  0  0  0  0  0
    0.3732   -7.8900    8.6714 C   0  0  1  0  0  0  0  0  0  0  0  0
   -0.1681   -8.2347    9.9283 O   0  0  0  0  0  0  0  0  0  0  0  0
    1.7262   -7.1932    8.8851 C   0  0  0  0  0  0  0  0  0  0  0  0
    2.4788   -6.9640    7.5646 C   0  0  0  0  0  0  0  0  0  0  0  0
    2.6631   -8.2624    6.7383 C   0  0  1  0  0  0  0  0  0  0  0  0
    3.5634   -9.2649    7.4977 C   0  0  0  0  0  0  0  0  0  0  0  0
    3.3225   -7.9083    5.3919 C   0  0  0  0  0  0  0  0  0  0  0  0
    4.6791   -7.8339    5.2346 C   0  0  0  0  0  0  0  0  0  0  0  0
    5.3689   -7.3994    3.9452 C   0  0  0  0  0  0  0  0  0  0  0  0
    4.4785   -6.4726    3.0654 C   0  0  1  0  0  0  0  0  0  0  0  0
    4.4455   -5.0618    3.6998 C   0  0  0  0  0  0  0  0  0  0  0  0
    3.9071   -2.5936    1.4153 H   0  0  0  0  0  0  0  0  0  0  0  0
    2.1618   -2.7927    1.4387 H   0  0  0  0  0  0  0  0  0  0  0  0
    2.9077   -1.6337    0.3162 H   0  0  0  0  0  0  0  0  0  0  0  0
    4.0651   -3.5281   -0.9294 H   0  0  0  0  0  0  0  0  0  0  0  0
    1.7954   -2.8451   -1.6558 H   0  0  0  0  0  0  0  0  0  0  0  0
    2.0930   -4.4710   -1.8364 H   0  0  0  0  0  0  0  0  0  0  0  0
    6.0362   -6.4542    1.5465 H   0  0  0  0  0  0  0  0  0  0  0  0
    4.1788   -7.6029   -0.0887 H   0  0  0  0  0  0  0  0  0  0  0  0
    5.2390   -8.5227    0.8505 H   0  0  0  0  0  0  0  0  0  0  0  0
    2.4037   -8.4152    1.3259 H   0  0  0  0  0  0  0  0  0  0  0  0
    3.6097   -9.2018    2.3293 H   0  0  0  0  0  0  0  0  0  0  0  0
    2.4354   -6.3275    2.5589 H   0  0  0  0  0  0  0  0  0  0  0  0
    0.5676   -7.3387    3.4671 H   0  0  0  0  0  0  0  0  0  0  0  0
   -0.0585   -7.2018    5.9517 H   0  0  0  0  0  0  0  0  0  0  0  0
   -0.4415   -8.7142    5.1465 H   0  0  0  0  0  0  0  0  0  0  0  0
    1.4136   -9.8570    6.0001 H   0  0  0  0  0  0  0  0  0  0  0  0
   -0.5205   -9.5215    7.5575 H   0  0  0  0  0  0  0  0  0  0  0  0
    0.9612   -9.9556    8.3434 H   0  0  0  0  0  0  0  0  0  0  0  0
   -0.3113   -7.1842    8.2016 H   0  0  0  0  0  0  0  0  0  0  0  0
    0.4423   -8.8241   10.3566 H   0  0  0  0  0  0  0  0  0  0  0  0
    1.5610   -6.2324    9.3686 H   0  0  0  0  0  0  0  0  0  0  0  0
    2.3553   -7.7712    9.5620 H   0  0  0  0  0  0  0  0  0  0  0  0
    1.9536   -6.2176    6.9655 H   0  0  0  0  0  0  0  0  0  0  0  0
    3.4567   -6.5327    7.7712 H   0  0  0  0  0  0  0  0  0  0  0  0
    3.0869   -9.6628    8.3879 H   0  0  0  0  0  0  0  0  0  0  0  0
    4.4930   -8.8025    7.8254 H   0  0  0  0  0  0  0  0  0  0  0  0
    3.8179  -10.1125    6.8587 H   0  0  0  0  0  0  0  0  0  0  0  0
    5.3633   -8.0638    6.0380 H   0  0  0  0  0  0  0  0  0  0  0  0
    6.3006   -6.8910    4.2067 H   0  0  0  0  0  0  0  0  0  0  0  0
    5.6694   -8.2966    3.3967 H   0  0  0  0  0  0  0  0  0  0  0  0
    4.1027   -5.1008    4.7338 H   0  0  0  0  0  0  0  0  0  0  0  0
    3.7491   -4.4134    3.1750 H   0  0  0  0  0  0  0  0  0  0  0  0
    5.4236   -4.5710    3.6792 H   0  0  0  0  0  0  0  0  0  0  0  0
  1  2  1  0
  1 27  1  0
  1 28  1  0
  1 29  1  0
  2  3  1  0
  2  4  1  0
  2 30  1  6
  3 31  1  0
  3 32  1  0
  4  5  2  0
  4  6  1  0
  6  7  1  0
  7 25  1  0
  7  8  1  0
  7 33  1  1
  8  9  1  0
  8 34  1  0
  8 35  1  0
  9 10  1  0
  9 36  1  0
  9 37  1  0
 10 25  1  0
 10 11  1  0
 10 38  1  6
 11 22  1  0
 11 12  2  0
 12 13  1  0
 12 39  1  0
 13 14  1  0
 13 40  1  0
 13 41  1  0
 14 20  1  0
 14 15  1  0
 14 42  1  6
 15 16  1  0
 15 43  1  0
 15 44  1  0
 16 17  1  0
 16 18  1  0
 16 45  1  6
 17 46  1  0
 18 19  1  0
 18 47  1  0
 18 48  1  0
 19 20  1  0
 19 49  1  0
 19 50  1  0
 20 21  1  1
 20 22  1  0
 21 51  1  0
 21 52  1  0
 21 53  1  0
 22 23  2  0
 23 24  1  0
 23 54  1  0
 24 25  1  0
 24 55  1  0
 24 56  1  0
 25 26  1  1
 26 57  1  0
 26 58  1  0
 26 59  1  0
M  END
>  <i_m_ct_stereo_status>  (129) 
1

>  <s_m_source_file>  (129) 
/var/tmp/pbs.5076255.sched01/tmpp9awzhar/40nweoahkg.sdf

>  <i_m_source_file_index>  (129) 
9

>  <i_lp_mmshare_version>  (129) 
48012

>  <i_f3d_flags>  (129) 
0

>  <s_epik_input>  (129) 
W0NIM11bQ0BIXShbTkgyXSlDKD1PKU9bQ0BIXShbQ0gyXVtDSDJdMSlbQ0BdKFtDSDNdKShbQ0gyXVtDSF09QzIzKVtDQEBIXTFDMj1bQ0hdW0NIMl1bQ0BASF0oW0NAQF0zNFtDSDNdKVtDSDJdW0NAQEhdKFtPSF0pW0NIMl1bQ0gyXTQ=

>  <s_epik_cmdline>  (129) 
J2VwaWtfcHl0aG9uJywgJy1waHQnLCAnMi4wJywgJy1waCcsICc3LjAnLCAnLXRuJywgJzgnLCAnLW1hJywgJzIwMCcsICctaW1hZScsICc8aW5maWxlLm1hZT4nLCAnLW9tYWUnLCAnPG91dGZpbGUubWFlPic=

>  <r_epik_Ionization_Penalty>  (129) 
0.586126

>  <r_epik_Ionization_Penalty_Charging>  (129) 
0

>  <r_epik_Ionization_Penalty_Neutral>  (129) 
0.586126

>  <r_epik_State_Penalty>  (129) 
0.599298

>  <r_epik_Charging_Adjusted_Penalty>  (129) 
0.599298

>  <i_epik_Tot_Q>  (129) 
0

>  <i_epik_Tot_abs_Q>  (129) 
0

>  <s_epik_Chemistry_Notes>  (129) 
This compound has an ester and may undergo hydrolysis at high or low pH.

>  <s_lp_Force_Field>  (129) 
OPLS3e

>  <r_lp_Energy>  (129) 
42.9742

>  <b_lp_Chiralities_Consistent>  (129) 
1

>  <s_lp_Variant>  (129) 
34:0-2

>  <s_i_glide_gridfile>  (129) 
pfpi4k_grid

>  <i_i_glide_lignum>  (129) 
9

>  <i_i_glide_rotatable_bonds>  (129) 
4

>  <r_i_docking_score>  (129) 
-3.51652

>  <r_i_glide_ligand_efficiency>  (129) 
-0.135251

>  <r_i_glide_ligand_efficiency_sa>  (129) 
-0.40068

>  <r_i_glide_ligand_efficiency_ln>  (129) 
-0.825843

>  <r_i_glide_gscore>  (129) 
-3.51652

>  <r_i_glide_lipo>  (129) 
-0.115523

>  <r_i_glide_hbond>  (129) 
-0.589172

>  <r_i_glide_metal>  (129) 
-0

>  <r_i_glide_rewards>  (129) 
-0.957939

>  <r_i_glide_evdw>  (129) 
-20.4064

>  <r_i_glide_ecoul>  (129) 
-7.40619

>  <r_i_glide_erotb>  (129) 
0.296624

>  <r_i_glide_esite>  (129) 
-0.0192591

>  <r_i_glide_emodel>  (129) 
-27.2199

>  <r_i_glide_energy>  (129) 
-27.8126

>  <r_i_glide_einternal>  (129) 
11.4105

>  <r_i_glide_intrahb_reward>  (129) 
-0

>  <i_i_glide_confnum>  (129) 
4

>  <i_i_glide_posenum>  (129) 
2

>  <r_i_glide_eff_state_penalty>  (129) 
0

>  <ligand_id>  (129) 
34

>  <original_smiles>  (129) 
CC(N)C(=O)OC1CCC2C3=CCC4CC(O)CCC4(C)C3=CCC12C

>  <smiles>  (129) 
[H]OC1([H])C([H])([H])C([H])([H])C2(C([H])([H])[H])C3=C([H])C([H])([H])C4(C([H])([H])[H])C([H])(OC(=O)C([H])(N([H])[H])C([H])([H])[H])C([H])([H])C([H])([H])C4([H])C3=C([H])C([H])([H])C2([H])C1([H])[H]

$$$$
34:1:2
     RDKit          3D

 59 62  0  0  1  0  0  0  0  0999 V2000
    2.1507    2.6965    2.9641 C   0  0  0  0  0  0  0  0  0  0  0  0
    1.7926    1.4813    2.0830 C   0  0  2  0  0  0  0  0  0  0  0  0
    0.3623    1.3926    1.7834 N   0  0  0  0  0  0  0  0  0  0  0  0
    2.3582    0.2086    2.6728 C   0  0  0  0  0  0  0  0  0  0  0  0
    3.0062   -0.5900    2.0037 O   0  0  0  0  0  0  0  0  0  0  0  0
    2.0469    0.1184    3.9875 O   0  0  0  0  0  0  0  0  0  0  0  0
    2.5331   -0.8818    4.8964 C   0  0  2  0  0  0  0  0  0  0  0  0
    4.0205   -1.2038    4.6560 C   0  0  0  0  0  0  0  0  0  0  0  0
    4.0040   -2.5771    3.9553 C   0  0  0  0  0  0  0  0  0  0  0  0
    2.5085   -2.9126    3.6621 C   0  0  1  0  0  0  0  0  0  0  0  0
    2.2214   -4.3879    3.5297 C   0  0  0  0  0  0  0  0  0  0  0  0
    2.3835   -4.9361    2.3105 C   0  0  0  0  0  0  0  0  0  0  0  0
    2.1421   -6.3748    1.9790 C   0  0  0  0  0  0  0  0  0  0  0  0
    2.1349   -7.2565    3.2430 C   0  0  2  0  0  0  0  0  0  0  0  0
    1.6880   -8.6838    2.8783 C   0  0  0  0  0  0  0  0  0  0  0  0
    0.1748   -8.7672    2.6181 C   0  0  1  0  0  0  0  0  0  0  0  0
   -0.1765  -10.1214    2.5201 O   0  0  0  0  0  0  0  0  0  0  0  0
   -0.6744   -8.1271    3.7252 C   0  0  0  0  0  0  0  0  0  0  0  0
   -0.1885   -6.7106    4.0781 C   0  0  0  0  0  0  0  0  0  0  0  0
    1.3190   -6.6475    4.4304 C   0  0  1  0  0  0  0  0  0  0  0  0
    1.5933   -7.4500    5.7262 C   0  0  0  0  0  0  0  0  0  0  0  0
    1.7212   -5.1787    4.6417 C   0  0  0  0  0  0  0  0  0  0  0  0
    1.5956   -4.5535    5.8493 C   0  0  0  0  0  0  0  0  0  0  0  0
    1.8989   -3.0746    6.0871 C   0  0  0  0  0  0  0  0  0  0  0  0
    1.7557   -2.2221    4.7999 C   0  0  1  0  0  0  0  0  0  0  0  0
    0.2518   -2.0118    4.4961 C   0  0  0  0  0  0  0  0  0  0  0  0
    3.2303    2.6840    3.1476 H   0  0  0  0  0  0  0  0  0  0  0  0
    1.6625    2.6525    3.9424 H   0  0  0  0  0  0  0  0  0  0  0  0
    1.8926    3.6431    2.4692 H   0  0  0  0  0  0  0  0  0  0  0  0
    2.3017    1.6028    1.1353 H   0  0  0  0  0  0  0  0  0  0  0  0
    0.0577    2.2506    1.3262 H   0  0  0  0  0  0  0  0  0  0  0  0
    0.2108    0.6741    1.0816 H   0  0  0  0  0  0  0  0  0  0  0  0
    2.4321   -0.4842    5.9080 H   0  0  0  0  0  0  0  0  0  0  0  0
    4.5192   -0.4239    4.0791 H   0  0  0  0  0  0  0  0  0  0  0  0
    4.6058   -1.2265    5.5771 H   0  0  0  0  0  0  0  0  0  0  0  0
    4.5628   -2.5367    3.0227 H   0  0  0  0  0  0  0  0  0  0  0  0
    4.4892   -3.3066    4.6008 H   0  0  0  0  0  0  0  0  0  0  0  0
    2.1438   -2.4504    2.7368 H   0  0  0  0  0  0  0  0  0  0  0  0
    2.6736   -4.3111    1.4863 H   0  0  0  0  0  0  0  0  0  0  0  0
    1.2143   -6.4342    1.4050 H   0  0  0  0  0  0  0  0  0  0  0  0
    2.9453   -6.6840    1.3081 H   0  0  0  0  0  0  0  0  0  0  0  0
    3.1759   -7.2993    3.5582 H   0  0  0  0  0  0  0  0  0  0  0  0
    2.2339   -9.0336    2.0016 H   0  0  0  0  0  0  0  0  0  0  0  0
    1.9656   -9.3658    3.6795 H   0  0  0  0  0  0  0  0  0  0  0  0
   -0.0646   -8.2817    1.6735 H   0  0  0  0  0  0  0  0  0  0  0  0
   -0.0179  -10.3835    1.6166 H   0  0  0  0  0  0  0  0  0  0  0  0
   -1.7122   -8.0797    3.3988 H   0  0  0  0  0  0  0  0  0  0  0  0
   -0.6695   -8.7509    4.6192 H   0  0  0  0  0  0  0  0  0  0  0  0
   -0.3749   -6.0473    3.2374 H   0  0  0  0  0  0  0  0  0  0  0  0
   -0.7754   -6.3154    4.9053 H   0  0  0  0  0  0  0  0  0  0  0  0
    1.4552   -8.5193    5.5907 H   0  0  0  0  0  0  0  0  0  0  0  0
    0.9205   -7.1570    6.5301 H   0  0  0  0  0  0  0  0  0  0  0  0
    2.6162   -7.2876    6.0669 H   0  0  0  0  0  0  0  0  0  0  0  0
    1.2432   -5.0744    6.7356 H   0  0  0  0  0  0  0  0  0  0  0  0
    1.2359   -2.7003    6.8724 H   0  0  0  0  0  0  0  0  0  0  0  0
    2.9097   -2.9990    6.5026 H   0  0  0  0  0  0  0  0  0  0  0  0
   -0.2719   -2.9648    4.4136 H   0  0  0  0  0  0  0  0  0  0  0  0
    0.1113   -1.4990    3.5490 H   0  0  0  0  0  0  0  0  0  0  0  0
   -0.2491   -1.4097    5.2624 H   0  0  0  0  0  0  0  0  0  0  0  0
  1  2  1  0
  1 27  1  0
  1 28  1  0
  1 29  1  0
  2  3  1  0
  2  4  1  0
  2 30  1  6
  3 31  1  0
  3 32  1  0
  4  5  2  0
  4  6  1  0
  6  7  1  0
  7 25  1  0
  7  8  1  0
  7 33  1  1
  8  9  1  0
  8 34  1  0
  8 35  1  0
  9 10  1  0
  9 36  1  0
  9 37  1  0
 10 25  1  0
 10 11  1  0
 10 38  1  6
 11 22  1  0
 11 12  2  0
 12 13  1  0
 12 39  1  0
 13 14  1  0
 13 40  1  0
 13 41  1  0
 14 20  1  0
 14 15  1  0
 14 42  1  1
 15 16  1  0
 15 43  1  0
 15 44  1  0
 16 17  1  0
 16 18  1  0
 16 45  1  6
 17 46  1  0
 18 19  1  0
 18 47  1  0
 18 48  1  0
 19 20  1  0
 19 49  1  0
 19 50  1  0
 20 21  1  1
 20 22  1  0
 21 51  1  0
 21 52  1  0
 21 53  1  0
 22 23  2  0
 23 24  1  0
 23 54  1  0
 24 25  1  0
 24 55  1  0
 24 56  1  0
 25 26  1  6
 26 57  1  0
 26 58  1  0
 26 59  1  0
M  END
>  <i_m_ct_stereo_status>  (130) 
1

>  <s_m_source_file>  (130) 
/var/tmp/pbs.5076255.sched01/tmpp9awzhar/40nweoahkg.sdf

>  <i_m_source_file_index>  (130) 
9

>  <i_lp_mmshare_version>  (130) 
48012

>  <i_f3d_flags>  (130) 
0

>  <s_epik_input>  (130) 
W0NIM11bQ0BIXShbTkgyXSlDKD1PKU9bQ0BIXShbQ0gyXVtDSDJdMSlbQ0BdKFtDSDNdKShbQ0gyXVtDSF09QzIzKVtDQEBIXTFDMj1bQ0hdW0NIMl1bQ0BASF0oW0NAQF0zNFtDSDNdKVtDSDJdW0NAQEhdKFtPSF0pW0NIMl1bQ0gyXTQ=

>  <s_epik_cmdline>  (130) 
J2VwaWtfcHl0aG9uJywgJy1waHQnLCAnMi4wJywgJy1waCcsICc3LjAnLCAnLXRuJywgJzgnLCAnLW1hJywgJzIwMCcsICctaW1hZScsICc8aW5maWxlLm1hZT4nLCAnLW9tYWUnLCAnPG91dGZpbGUubWFlPic=

>  <r_epik_Ionization_Penalty>  (130) 
0.586126

>  <r_epik_Ionization_Penalty_Charging>  (130) 
0

>  <r_epik_Ionization_Penalty_Neutral>  (130) 
0.586126

>  <r_epik_State_Penalty>  (130) 
0.599298

>  <r_epik_Charging_Adjusted_Penalty>  (130) 
0.599298

>  <i_epik_Tot_Q>  (130) 
0

>  <i_epik_Tot_abs_Q>  (130) 
0

>  <s_epik_Chemistry_Notes>  (130) 
This compound has an ester and may undergo hydrolysis at high or low pH.

>  <s_lp_Force_Field>  (130) 
OPLS3e

>  <r_lp_Energy>  (130) 
42.9742

>  <b_lp_Chiralities_Consistent>  (130) 
1

>  <s_lp_Variant>  (130) 
34:0-2

>  <s_i_glide_gridfile>  (130) 
pfpi4k_grid

>  <i_i_glide_lignum>  (130) 
9

>  <i_i_glide_rotatable_bonds>  (130) 
4

>  <r_i_docking_score>  (130) 
-2.87261

>  <r_i_glide_ligand_efficiency>  (130) 
-0.110485

>  <r_i_glide_ligand_efficiency_sa>  (130) 
-0.327312

>  <r_i_glide_ligand_efficiency_ln>  (130) 
-0.674624

>  <r_i_glide_gscore>  (130) 
-2.87261

>  <r_i_glide_lipo>  (130) 
-0.0322761

>  <r_i_glide_hbond>  (130) 
-0.434226

>  <r_i_glide_metal>  (130) 
-0

>  <r_i_glide_rewards>  (130) 
-0.957939

>  <r_i_glide_evdw>  (130) 
-25.4017

>  <r_i_glide_ecoul>  (130) 
-3.1028

>  <r_i_glide_erotb>  (130) 
0.296624

>  <r_i_glide_esite>  (130) 
-0.00929098

>  <r_i_glide_emodel>  (130) 
-24.7458

>  <r_i_glide_energy>  (130) 
-28.5045

>  <r_i_glide_einternal>  (130) 
13.5125

>  <r_i_glide_intrahb_reward>  (130) 
-0

>  <i_i_glide_confnum>  (130) 
4

>  <i_i_glide_posenum>  (130) 
3

>  <r_i_glide_eff_state_penalty>  (130) 
0

>  <ligand_id>  (130) 
34

>  <original_smiles>  (130) 
CC(N)C(=O)OC1CCC2C3=CCC4CC(O)CCC4(C)C3=CCC12C

>  <smiles>  (130) 
[H]OC1([H])C([H])([H])C([H])([H])C2(C([H])([H])[H])C3=C([H])C([H])([H])C4(C([H])([H])[H])C([H])(OC(=O)C([H])(N([H])[H])C([H])([H])[H])C([H])([H])C([H])([H])C4([H])C3=C([H])C([H])([H])C2([H])C1([H])[H]

$$$$
35:0:0
     RDKit          3D

 44 47  0  0  1  0  0  0  0  0999 V2000
    2.4959   -0.1076    1.7206 C   0  0  0  0  0  0  0  0  0  0  0  0
    1.0170    0.0168    2.1308 C   0  0  2  0  0  0  0  0  0  0  0  0
    0.4570    1.4260    1.9030 C   0  0  0  0  0  0  0  0  0  0  0  0
   -0.3518    1.7648    3.1550 C   0  0  0  0  0  0  0  0  0  0  0  0
   -0.5727    0.4422    3.9141 C   0  0  1  0  0  0  0  0  0  0  0  0
    0.7457   -0.3069    3.6111 C   0  0  1  0  0  0  0  0  0  0  0  0
    0.7054   -1.8184    3.9033 C   0  0  0  0  0  0  0  0  0  0  0  0
    1.1755   -2.1945    5.3199 C   0  0  0  0  0  0  0  0  0  0  0  0
    0.4377   -1.4362    6.4331 C   0  0  2  0  0  0  0  0  0  0  0  0
    0.8072   -2.0151    7.8066 C   0  0  0  0  0  0  0  0  0  0  0  0
   -0.9708   -1.7026    6.1523 O   0  0  0  0  0  0  0  0  0  0  0  0
   -1.8527   -0.4502    5.8888 O   0  0  0  0  0  0  0  0  0  0  0  0
   -1.0618    0.6130    5.3998 C   0  0  2  0  0  0  0  0  0  0  0  0
   -1.4563    2.0232    5.8863 C   0  0  1  0  0  0  0  0  0  0  0  0
   -2.4827    2.0247    6.8861 O   0  0  0  0  0  0  0  0  0  0  0  0
   -2.6325    3.3262    7.4425 C   0  0  0  0  0  0  0  0  0  0  0  0
   -3.6513    3.3210    8.5831 C   0  0  0  0  0  0  0  0  0  0  0  0
   -3.1816    2.5599    9.5693 F   0  0  0  0  0  0  0  0  0  0  0  0
   -0.1074    2.1597    6.4311 O   0  0  0  0  0  0  0  0  0  0  0  0
   -0.1930    0.7416    6.6351 C   0  0  2  0  0  0  0  0  0  0  0  0
    0.8977   -0.0797    6.4046 O   0  0  0  0  0  0  0  0  0  0  0  0
    3.1330    0.5629    2.2991 H   0  0  0  0  0  0  0  0  0  0  0  0
    2.6239    0.1412    0.6670 H   0  0  0  0  0  0  0  0  0  0  0  0
    2.8637   -1.1233    1.8586 H   0  0  0  0  0  0  0  0  0  0  0  0
    0.4310   -0.6671    1.5222 H   0  0  0  0  0  0  0  0  0  0  0  0
    1.2451    2.1675    1.7501 H   0  0  0  0  0  0  0  0  0  0  0  0
   -0.1717    1.4481    1.0111 H   0  0  0  0  0  0  0  0  0  0  0  0
    0.2422    2.4536    3.7538 H   0  0  0  0  0  0  0  0  0  0  0  0
   -1.2849    2.2672    2.8879 H   0  0  0  0  0  0  0  0  0  0  0  0
   -1.3617   -0.0718    3.3684 H   0  0  0  0  0  0  0  0  0  0  0  0
    1.5708    0.1557    4.1541 H   0  0  0  0  0  0  0  0  0  0  0  0
   -0.2913   -2.2096    3.7150 H   0  0  0  0  0  0  0  0  0  0  0  0
    1.3537   -2.3418    3.1976 H   0  0  0  0  0  0  0  0  0  0  0  0
    1.0183   -3.2647    5.4520 H   0  0  0  0  0  0  0  0  0  0  0  0
    2.2463   -2.0311    5.4066 H   0  0  0  0  0  0  0  0  0  0  0  0
    0.2859   -1.4965    8.6140 H   0  0  0  0  0  0  0  0  0  0  0  0
    1.8761   -1.9294    8.0060 H   0  0  0  0  0  0  0  0  0  0  0  0
    0.5486   -3.0721    7.8730 H   0  0  0  0  0  0  0  0  0  0  0  0
   -1.6759    2.7111    5.0674 H   0  0  0  0  0  0  0  0  0  0  0  0
   -1.6707    3.7022    7.8168 H   0  0  0  0  0  0  0  0  0  0  0  0
   -2.9657    4.0041    6.6545 H   0  0  0  0  0  0  0  0  0  0  0  0
   -3.8015    4.3197    8.9947 H   0  0  0  0  0  0  0  0  0  0  0  0
   -4.6251    2.9372    8.2677 H   0  0  0  0  0  0  0  0  0  0  0  0
   -0.6923    0.5123    7.5817 H   0  0  0  0  0  0  0  0  0  0  0  0
  1  2  1  0
  1 22  1  0
  1 23  1  0
  1 24  1  0
  2  6  1  0
  2  3  1  0
  2 25  1  6
  3  4  1  0
  3 26  1  0
  3 27  1  0
  4  5  1  0
  4 28  1  0
  4 29  1  0
  5 13  1  0
  5  6  1  0
  5 30  1  6
  6  7  1  0
  6 31  1  1
  7  8  1  0
  7 32  1  0
  7 33  1  0
  8  9  1  0
  8 34  1  0
  8 35  1  0
  9 21  1  0
  9 10  1  1
  9 11  1  0
 10 36  1  0
 10 37  1  0
 10 38  1  0
 11 12  1  0
 13 12  1  1
 13 20  1  0
 13 14  1  0
 14 15  1  0
 14 19  1  0
 14 39  1  6
 15 16  1  0
 16 17  1  0
 16 40  1  0
 16 41  1  0
 17 18  1  0
 17 42  1  0
 17 43  1  0
 19 20  1  0
 20 21  1  0
 20 44  1  1
M  END
>  <i_m_ct_stereo_status>  (131) 
1

>  <s_m_source_file>  (131) 
/var/tmp/pbs.5076255.sched01/tmpp9awzhar/40nweoahkg.sdf

>  <i_m_source_file_index>  (131) 
10

>  <i_lp_mmshare_version>  (131) 
48012

>  <i_f3d_flags>  (131) 
0

>  <s_epik_input>  (131) 
W0NIMl0xW0NIMl1bQ0BASF0oW0NIM10pW0NAQEhdKFtDQEhdMVtDQF0yMzQpW0NIMl1bQ0gyXVtDQF0oW0NIM10pKE9PMilPW0NASF00T1tDQEBIXTNPW0NIMl1bQ0gyXUY=

>  <s_epik_cmdline>  (131) 
J2VwaWtfcHl0aG9uJywgJy1waHQnLCAnMi4wJywgJy1waCcsICc3LjAnLCAnLXRuJywgJzgnLCAnLW1hJywgJzIwMCcsICctaW1hZScsICc8aW5maWxlLm1hZT4nLCAnLW9tYWUnLCAnPG91dGZpbGUubWFlPic=

>  <r_lp_tautomer_probability>  (131) 
1

>  <r_epik_Ionization_Penalty>  (131) 
3.02584e-15

>  <r_epik_Ionization_Penalty_Charging>  (131) 
0

>  <r_epik_Ionization_Penalty_Neutral>  (131) 
3.02584e-15

>  <r_epik_State_Penalty>  (131) 
-0

>  <r_epik_Charging_Adjusted_Penalty>  (131) 
0

>  <i_epik_Tot_Q>  (131) 
0

>  <i_epik_Tot_abs_Q>  (131) 
0

>  <s_epik_Chemistry_Notes>  (131) 
This compound contains an acetal/aminal-like group ( X-CH(R)-Y where X, Y are N, S, or O) that may be acid/base labile, releasing an aldehyde.

>  <s_lp_Force_Field>  (131) 
OPLS3e

>  <r_lp_Energy>  (131) 
44.4026

>  <b_lp_Chiralities_Consistent>  (131) 
1

>  <s_lp_Variant>  (131) 
35:0-1

>  <s_i_glide_gridfile>  (131) 
pfpi4k_grid

>  <i_i_glide_lignum>  (131) 
10

>  <i_i_glide_rotatable_bonds>  (131) 
3

>  <r_i_docking_score>  (131) 
-2.44402

>  <r_i_glide_ligand_efficiency>  (131) 
-0.116382

>  <r_i_glide_ligand_efficiency_sa>  (131) 
-0.321088

>  <r_i_glide_ligand_efficiency_ln>  (131) 
-0.604278

>  <r_i_glide_gscore>  (131) 
-2.44402

>  <r_i_glide_lipo>  (131) 
-0.141495

>  <r_i_glide_hbond>  (131) 
-0.11652

>  <r_i_glide_metal>  (131) 
-0

>  <r_i_glide_rewards>  (131) 
-1.34769

>  <r_i_glide_evdw>  (131) 
-17.4196

>  <r_i_glide_ecoul>  (131) 
-1.75862

>  <r_i_glide_erotb>  (131) 
0.40282

>  <r_i_glide_esite>  (131) 
-0.106358

>  <r_i_glide_emodel>  (131) 
-21.3724

>  <r_i_glide_energy>  (131) 
-19.1782

>  <r_i_glide_einternal>  (131) 
0.0852406

>  <r_i_glide_intrahb_reward>  (131) 
-0

>  <i_i_glide_confnum>  (131) 
1

>  <i_i_glide_posenum>  (131) 
25

>  <r_i_glide_eff_state_penalty>  (131) 
0

>  <ligand_id>  (131) 
35

>  <original_smiles>  (131) 
CC1CCC2C1CCC1(C)OOC23C(OCCF)OC3O1

>  <smiles>  (131) 
[H]C([H])([H])C12OOC3(C([H])(OC([H])([H])C([H])([H])F)OC3([H])O1)C1([H])C([H])([H])C([H])([H])C([H])(C([H])([H])[H])C1([H])C([H])([H])C2([H])[H]

$$$$
35:0:1
     RDKit          3D

 44 47  0  0  1  0  0  0  0  0999 V2000
    2.2798    0.1320    1.7053 C   0  0  0  0  0  0  0  0  0  0  0  0
    0.8477    0.2249    2.2471 C   0  0  2  0  0  0  0  0  0  0  0  0
    0.2771    1.6464    2.1794 C   0  0  0  0  0  0  0  0  0  0  0  0
   -0.4118    1.8954    3.5181 C   0  0  0  0  0  0  0  0  0  0  0  0
   -0.5620    0.5233    4.1880 C   0  0  1  0  0  0  0  0  0  0  0  0
    0.7135   -0.2094    3.7171 C   0  0  1  0  0  0  0  0  0  0  0  0
    0.6804   -1.7388    3.8998 C   0  0  0  0  0  0  0  0  0  0  0  0
    1.2726   -2.2255    5.2286 C   0  0  0  0  0  0  0  0  0  0  0  0
    0.6525   -1.5485    6.4637 C   0  0  2  0  0  0  0  0  0  0  0  0
    1.1477   -2.2349    7.7509 C   0  0  0  0  0  0  0  0  0  0  0  0
   -0.7870   -1.7814    6.3520 O   0  0  0  0  0  0  0  0  0  0  0  0
   -1.6777   -0.5387    6.0779 O   0  0  0  0  0  0  0  0  0  0  0  0
   -0.9130    0.5747    5.7156 C   0  0  2  0  0  0  0  0  0  0  0  0
   -1.2584    1.9398    6.3585 C   0  0  1  0  0  0  0  0  0  0  0  0
   -2.1837    1.8618    7.4407 O   0  0  0  0  0  0  0  0  0  0  0  0
   -2.2323    3.1013    8.1465 C   0  0  0  0  0  0  0  0  0  0  0  0
   -3.2161    3.0381    9.3234 C   0  0  0  0  0  0  0  0  0  0  0  0
   -4.4609    3.0318    8.8537 F   0  0  0  0  0  0  0  0  0  0  0  0
    0.1370    2.0269    6.7951 O   0  0  0  0  0  0  0  0  0  0  0  0
    0.0648    0.6026    6.8871 C   0  0  2  0  0  0  0  0  0  0  0  0
    1.1241   -0.1971    6.5043 O   0  0  0  0  0  0  0  0  0  0  0  0
    2.9728    0.7588    2.2701 H   0  0  0  0  0  0  0  0  0  0  0  0
    2.3065    0.4552    0.6705 H   0  0  0  0  0  0  0  0  0  0  0  0
    2.6516   -0.8962    1.7315 H   0  0  0  0  0  0  0  0  0  0  0  0
    0.2148   -0.4153    1.6389 H   0  0  0  0  0  0  0  0  0  0  0  0
    1.0520    2.3970    2.0145 H   0  0  0  0  0  0  0  0  0  0  0  0
   -0.4298    1.7280    1.3466 H   0  0  0  0  0  0  0  0  0  0  0  0
    0.2367    2.5316    4.1151 H   0  0  0  0  0  0  0  0  0  0  0  0
   -1.3659    2.4106    3.3818 H   0  0  0  0  0  0  0  0  0  0  0  0
   -1.4007    0.0455    3.6840 H   0  0  0  0  0  0  0  0  0  0  0  0
    1.5845    0.2066    4.2183 H   0  0  0  0  0  0  0  0  0  0  0  0
   -0.3355   -2.1153    3.7783 H   0  0  0  0  0  0  0  0  0  0  0  0
    1.2563   -2.2099    3.1009 H   0  0  0  0  0  0  0  0  0  0  0  0
    1.1203   -3.2989    5.3015 H   0  0  0  0  0  0  0  0  0  0  0  0
    2.3513   -2.0688    5.2354 H   0  0  0  0  0  0  0  0  0  0  0  0
    0.7043   -1.7769    8.6337 H   0  0  0  0  0  0  0  0  0  0  0  0
    2.2270   -2.1626    7.8576 H   0  0  0  0  0  0  0  0  0  0  0  0
    0.8808   -3.2862    7.7595 H   0  0  0  0  0  0  0  0  0  0  0  0
   -1.5376    2.6924    5.6290 H   0  0  0  0  0  0  0  0  0  0  0  0
   -1.2380    3.3434    8.5333 H   0  0  0  0  0  0  0  0  0  0  0  0
   -2.5219    3.9172    7.4701 H   0  0  0  0  0  0  0  0  0  0  0  0
   -3.0615    2.1478    9.9419 H   0  0  0  0  0  0  0  0  0  0  0  0
   -3.1326    3.9161    9.9670 H   0  0  0  0  0  0  0  0  0  0  0  0
   -0.3610    0.2922    7.8463 H   0  0  0  0  0  0  0  0  0  0  0  0
  1  2  1  0
  1 22  1  0
  1 23  1  0
  1 24  1  0
  2  6  1  0
  2  3  1  0
  2 25  1  6
  3  4  1  0
  3 26  1  0
  3 27  1  0
  4  5  1  0
  4 28  1  0
  4 29  1  0
  5 13  1  0
  5  6  1  0
  5 30  1  6
  6  7  1  0
  6 31  1  1
  7  8  1  0
  7 32  1  0
  7 33  1  0
  8  9  1  0
  8 34  1  0
  8 35  1  0
  9 21  1  0
  9 10  1  1
  9 11  1  0
 10 36  1  0
 10 37  1  0
 10 38  1  0
 11 12  1  0
 13 12  1  1
 13 20  1  0
 13 14  1  0
 14 15  1  0
 14 19  1  0
 14 39  1  6
 15 16  1  0
 16 17  1  0
 16 40  1  0
 16 41  1  0
 17 18  1  0
 17 42  1  0
 17 43  1  0
 19 20  1  0
 20 21  1  0
 20 44  1  1
M  END
>  <i_m_ct_stereo_status>  (132) 
1

>  <s_m_source_file>  (132) 
/var/tmp/pbs.5076255.sched01/tmpp9awzhar/40nweoahkg.sdf

>  <i_m_source_file_index>  (132) 
10

>  <i_lp_mmshare_version>  (132) 
48012

>  <i_f3d_flags>  (132) 
0

>  <s_epik_input>  (132) 
W0NIMl0xW0NIMl1bQ0BASF0oW0NIM10pW0NAQEhdKFtDQEhdMVtDQF0yMzQpW0NIMl1bQ0gyXVtDQF0oW0NIM10pKE9PMilPW0NASF00T1tDQEBIXTNPW0NIMl1bQ0gyXUY=

>  <s_epik_cmdline>  (132) 
J2VwaWtfcHl0aG9uJywgJy1waHQnLCAnMi4wJywgJy1waCcsICc3LjAnLCAnLXRuJywgJzgnLCAnLW1hJywgJzIwMCcsICctaW1hZScsICc8aW5maWxlLm1hZT4nLCAnLW9tYWUnLCAnPG91dGZpbGUubWFlPic=

>  <r_lp_tautomer_probability>  (132) 
1

>  <r_epik_Ionization_Penalty>  (132) 
3.02584e-15

>  <r_epik_Ionization_Penalty_Charging>  (132) 
0

>  <r_epik_Ionization_Penalty_Neutral>  (132) 
3.02584e-15

>  <r_epik_State_Penalty>  (132) 
-0

>  <r_epik_Charging_Adjusted_Penalty>  (132) 
0

>  <i_epik_Tot_Q>  (132) 
0

>  <i_epik_Tot_abs_Q>  (132) 
0

>  <s_epik_Chemistry_Notes>  (132) 
This compound contains an acetal/aminal-like group ( X-CH(R)-Y where X, Y are N, S, or O) that may be acid/base labile, releasing an aldehyde.

>  <s_lp_Force_Field>  (132) 
OPLS3e

>  <r_lp_Energy>  (132) 
44.4026

>  <b_lp_Chiralities_Consistent>  (132) 
1

>  <s_lp_Variant>  (132) 
35:0-1

>  <s_i_glide_gridfile>  (132) 
pfpi4k_grid

>  <i_i_glide_lignum>  (132) 
10

>  <i_i_glide_rotatable_bonds>  (132) 
3

>  <r_i_docking_score>  (132) 
-2.36662

>  <r_i_glide_ligand_efficiency>  (132) 
-0.112696

>  <r_i_glide_ligand_efficiency_sa>  (132) 
-0.31092

>  <r_i_glide_ligand_efficiency_ln>  (132) 
-0.585141

>  <r_i_glide_gscore>  (132) 
-2.36662

>  <r_i_glide_lipo>  (132) 
-0.0348749

>  <r_i_glide_hbond>  (132) 
-0.115511

>  <r_i_glide_metal>  (132) 
-0

>  <r_i_glide_rewards>  (132) 
-1.34769

>  <r_i_glide_evdw>  (132) 
-15.7315

>  <r_i_glide_ecoul>  (132) 
-2.8975

>  <r_i_glide_erotb>  (132) 
0.40282

>  <r_i_glide_esite>  (132) 
-0.0501594

>  <r_i_glide_emodel>  (132) 
-20.3456

>  <r_i_glide_energy>  (132) 
-18.629

>  <r_i_glide_einternal>  (132) 
0.156208

>  <r_i_glide_intrahb_reward>  (132) 
-0

>  <i_i_glide_confnum>  (132) 
4

>  <i_i_glide_posenum>  (132) 
5

>  <r_i_glide_eff_state_penalty>  (132) 
0

>  <ligand_id>  (132) 
35

>  <original_smiles>  (132) 
CC1CCC2C1CCC1(C)OOC23C(OCCF)OC3O1

>  <smiles>  (132) 
[H]C([H])([H])C12OOC3(C([H])(OC([H])([H])C([H])([H])F)OC3([H])O1)C1([H])C([H])([H])C([H])([H])C([H])(C([H])([H])[H])C1([H])C([H])([H])C2([H])[H]

$$$$
35:0:2
     RDKit          3D

 44 47  0  0  1  0  0  0  0  0999 V2000
   -1.5657   -9.4923    2.1635 C   0  0  0  0  0  0  0  0  0  0  0  0
   -0.6986   -8.8454    3.2579 C   0  0  2  0  0  0  0  0  0  0  0  0
   -1.2874   -7.5238    3.7641 C   0  0  0  0  0  0  0  0  0  0  0  0
   -0.1100   -6.5507    3.8447 C   0  0  0  0  0  0  0  0  0  0  0  0
    1.1789   -7.3905    3.7585 C   0  0  1  0  0  0  0  0  0  0  0  0
    0.7353   -8.5192    2.7996 C   0  0  1  0  0  0  0  0  0  0  0  0
    1.6616   -9.7483    2.7972 C   0  0  0  0  0  0  0  0  0  0  0  0
    2.7740   -9.6880    1.7361 C   0  0  0  0  0  0  0  0  0  0  0  0
    3.6211   -8.4095    1.7859 C   0  0  2  0  0  0  0  0  0  0  0  0
    4.8247   -8.5200    0.8451 C   0  0  0  0  0  0  0  0  0  0  0  0
    4.1020   -8.3598    3.1627 O   0  0  0  0  0  0  0  0  0  0  0  0
    3.6690   -7.1159    3.9867 O   0  0  0  0  0  0  0  0  0  0  0  0
    2.4826   -6.5599    3.4582 C   0  0  2  0  0  0  0  0  0  0  0  0
    2.3843   -5.0163    3.4766 C   0  0  1  0  0  0  0  0  0  0  0  0
    3.5872   -4.3611    3.8881 O   0  0  0  0  0  0  0  0  0  0  0  0
    3.4949   -2.9538    3.7116 C   0  0  0  0  0  0  0  0  0  0  0  0
    4.8298   -2.2865    4.0507 C   0  0  0  0  0  0  0  0  0  0  0  0
    5.0717   -2.3831    5.3581 F   0  0  0  0  0  0  0  0  0  0  0  0
    2.2053   -5.0598    2.0276 O   0  0  0  0  0  0  0  0  0  0  0  0
    3.0520   -6.2253    2.0937 C   0  0  2  0  0  0  0  0  0  0  0  0
    2.8033   -7.3315    1.3032 O   0  0  0  0  0  0  0  0  0  0  0  0
   -1.6504   -8.8538    1.2842 H   0  0  0  0  0  0  0  0  0  0  0  0
   -2.5731   -9.6869    2.5316 H   0  0  0  0  0  0  0  0  0  0  0  0
   -1.1404  -10.4396    1.8340 H   0  0  0  0  0  0  0  0  0  0  0  0
   -0.6337   -9.5266    4.1070 H   0  0  0  0  0  0  0  0  0  0  0  0
   -2.0598   -7.1368    3.0961 H   0  0  0  0  0  0  0  0  0  0  0  0
   -1.7520   -7.6740    4.7398 H   0  0  0  0  0  0  0  0  0  0  0  0
   -0.1598   -5.8859    2.9869 H   0  0  0  0  0  0  0  0  0  0  0  0
   -0.1657   -5.9444    4.7503 H   0  0  0  0  0  0  0  0  0  0  0  0
    1.3006   -7.8464    4.7415 H   0  0  0  0  0  0  0  0  0  0  0  0
    0.6297   -8.1353    1.7837 H   0  0  0  0  0  0  0  0  0  0  0  0
    2.0882   -9.8957    3.7873 H   0  0  0  0  0  0  0  0  0  0  0  0
    1.0765  -10.6493    2.5994 H   0  0  0  0  0  0  0  0  0  0  0  0
    3.4211  -10.5502    1.8965 H   0  0  0  0  0  0  0  0  0  0  0  0
    2.3432   -9.8128    0.7458 H   0  0  0  0  0  0  0  0  0  0  0  0
    5.4496   -7.6249    0.8946 H   0  0  0  0  0  0  0  0  0  0  0  0
    4.5125   -8.6466   -0.1914 H   0  0  0  0  0  0  0  0  0  0  0  0
    5.4499   -9.3752    1.1060 H   0  0  0  0  0  0  0  0  0  0  0  0
    1.5190   -4.6402    4.0251 H   0  0  0  0  0  0  0  0  0  0  0  0
    3.2362   -2.7303    2.6719 H   0  0  0  0  0  0  0  0  0  0  0  0
    2.6995   -2.5518    4.3480 H   0  0  0  0  0  0  0  0  0  0  0  0
    5.6599   -2.7456    3.5071 H   0  0  0  0  0  0  0  0  0  0  0  0
    4.8129   -1.2234    3.8079 H   0  0  0  0  0  0  0  0  0  0  0  0
    4.1149   -5.9519    2.0902 H   0  0  0  0  0  0  0  0  0  0  0  0
  1  2  1  0
  1 22  1  0
  1 23  1  0
  1 24  1  0
  2  6  1  0
  2  3  1  0
  2 25  1  1
  3  4  1  0
  3 26  1  0
  3 27  1  0
  4  5  1  0
  4 28  1  0
  4 29  1  0
  5 13  1  0
  5  6  1  0
  5 30  1  1
  6  7  1  0
  6 31  1  6
  7  8  1  0
  7 32  1  0
  7 33  1  0
  8  9  1  0
  8 34  1  0
  8 35  1  0
  9 21  1  0
  9 10  1  6
  9 11  1  0
 10 36  1  0
 10 37  1  0
 10 38  1  0
 11 12  1  0
 13 12  1  1
 13 20  1  0
 13 14  1  0
 14 15  1  0
 14 19  1  0
 14 39  1  1
 15 16  1  0
 16 17  1  0
 16 40  1  0
 16 41  1  0
 17 18  1  0
 17 42  1  0
 17 43  1  0
 19 20  1  0
 20 21  1  0
 20 44  1  1
M  END
>  <i_m_ct_stereo_status>  (133) 
1

>  <s_m_source_file>  (133) 
/var/tmp/pbs.5076255.sched01/tmpp9awzhar/40nweoahkg.sdf

>  <i_m_source_file_index>  (133) 
10

>  <i_lp_mmshare_version>  (133) 
48012

>  <i_f3d_flags>  (133) 
0

>  <s_epik_input>  (133) 
W0NIMl0xW0NIMl1bQ0BASF0oW0NIM10pW0NAQEhdKFtDQEhdMVtDQF0yMzQpW0NIMl1bQ0gyXVtDQF0oW0NIM10pKE9PMilPW0NASF00T1tDQEBIXTNPW0NIMl1bQ0gyXUY=

>  <s_epik_cmdline>  (133) 
J2VwaWtfcHl0aG9uJywgJy1waHQnLCAnMi4wJywgJy1waCcsICc3LjAnLCAnLXRuJywgJzgnLCAnLW1hJywgJzIwMCcsICctaW1hZScsICc8aW5maWxlLm1hZT4nLCAnLW9tYWUnLCAnPG91dGZpbGUubWFlPic=

>  <r_lp_tautomer_probability>  (133) 
1

>  <r_epik_Ionization_Penalty>  (133) 
3.02584e-15

>  <r_epik_Ionization_Penalty_Charging>  (133) 
0

>  <r_epik_Ionization_Penalty_Neutral>  (133) 
3.02584e-15

>  <r_epik_State_Penalty>  (133) 
-0

>  <r_epik_Charging_Adjusted_Penalty>  (133) 
0

>  <i_epik_Tot_Q>  (133) 
0

>  <i_epik_Tot_abs_Q>  (133) 
0

>  <s_epik_Chemistry_Notes>  (133) 
This compound contains an acetal/aminal-like group ( X-CH(R)-Y where X, Y are N, S, or O) that may be acid/base labile, releasing an aldehyde.

>  <s_lp_Force_Field>  (133) 
OPLS3e

>  <r_lp_Energy>  (133) 
44.4026

>  <b_lp_Chiralities_Consistent>  (133) 
1

>  <s_lp_Variant>  (133) 
35:0-1

>  <s_i_glide_gridfile>  (133) 
pfpi4k_grid

>  <i_i_glide_lignum>  (133) 
10

>  <i_i_glide_rotatable_bonds>  (133) 
3

>  <r_i_docking_score>  (133) 
-2.28977

>  <r_i_glide_ligand_efficiency>  (133) 
-0.109037

>  <r_i_glide_ligand_efficiency_sa>  (133) 
-0.300824

>  <r_i_glide_ligand_efficiency_ln>  (133) 
-0.566142

>  <r_i_glide_gscore>  (133) 
-2.28977

>  <r_i_glide_lipo>  (133) 
-0.31524

>  <r_i_glide_hbond>  (133) 
0

>  <r_i_glide_metal>  (133) 
-0

>  <r_i_glide_rewards>  (133) 
-1.40128

>  <r_i_glide_evdw>  (133) 
-17.5226

>  <r_i_glide_ecoul>  (133) 
-0.560476

>  <r_i_glide_erotb>  (133) 
0.40282

>  <r_i_glide_esite>  (133) 
-0.0158677

>  <r_i_glide_emodel>  (133) 
-20.061

>  <r_i_glide_energy>  (133) 
-18.0831

>  <r_i_glide_einternal>  (133) 
0.0168483

>  <r_i_glide_intrahb_reward>  (133) 
-0

>  <i_i_glide_confnum>  (133) 
1

>  <i_i_glide_posenum>  (133) 
10

>  <r_i_glide_eff_state_penalty>  (133) 
0

>  <ligand_id>  (133) 
35

>  <original_smiles>  (133) 
CC1CCC2C1CCC1(C)OOC23C(OCCF)OC3O1

>  <smiles>  (133) 
[H]C([H])([H])C12OOC3(C([H])(OC([H])([H])C([H])([H])F)OC3([H])O1)C1([H])C([H])([H])C([H])([H])C([H])(C([H])([H])[H])C1([H])C([H])([H])C2([H])[H]

$$$$
36:0:0
     RDKit          3D

 20 20  0  0  1  0  0  0  0  0999 V2000
   -8.0272   -9.7022   -8.3933 N   0  0  0  0  0  0  0  0  0  0  0  0
   -7.9070   -8.6630   -7.4608 N   0  0  0  0  0  0  0  0  0  0  0  0
   -7.7679   -7.4004   -7.8696 C   0  0  0  0  0  0  0  0  0  0  0  0
   -7.6904   -7.0806   -9.0490 O   0  0  0  0  0  0  0  0  0  0  0  0
   -7.6254   -6.3926   -6.7305 C   0  0  0  0  0  0  0  0  0  0  0  0
   -6.7342   -6.7424   -5.6893 C   0  0  0  0  0  0  0  0  0  0  0  0
   -6.4780   -5.8922   -4.6072 C   0  0  0  0  0  0  0  0  0  0  0  0
   -7.1101   -4.6438   -4.5473 C   0  0  0  0  0  0  0  0  0  0  0  0
   -8.0038   -4.2786   -5.5622 C   0  0  0  0  0  0  0  0  0  0  0  0
   -8.2985   -5.1269   -6.6642 C   0  0  0  0  0  0  0  0  0  0  0  0
   -9.3285   -4.6009   -7.6462 C   0  0  0  0  0  0  0  0  0  0  0  0
   -9.7792   -3.4451   -7.5028 O   0  0  0  0  0  0  0  0  0  0  0  0
   -9.7432   -5.2958   -8.6079 O   0  0  0  0  0  0  0  0  0  0  0  0
   -8.7322   -9.4256   -9.0754 H   0  0  0  0  0  0  0  0  0  0  0  0
   -7.1567   -9.7787   -8.9054 H   0  0  0  0  0  0  0  0  0  0  0  0
   -7.8706   -8.8974   -6.4791 H   0  0  0  0  0  0  0  0  0  0  0  0
   -6.2140   -7.6921   -5.6980 H   0  0  0  0  0  0  0  0  0  0  0  0
   -5.7981   -6.1936   -3.8133 H   0  0  0  0  0  0  0  0  0  0  0  0
   -6.9220   -3.9730   -3.7210 H   0  0  0  0  0  0  0  0  0  0  0  0
   -8.4814   -3.3104   -5.4808 H   0  0  0  0  0  0  0  0  0  0  0  0
  1  2  1  0
  1 14  1  0
  1 15  1  0
  2  3  1  0
  2 16  1  0
  3  4  2  0
  3  5  1  0
  5 10  2  0
  5  6  1  0
  6  7  2  0
  6 17  1  0
  7  8  1  0
  7 18  1  0
  8  9  2  0
  8 19  1  0
  9 10  1  0
  9 20  1  0
 10 11  1  0
 11 12  2  0
 11 13  1  0
M  CHG  1  13  -1
M  END
>  <i_m_ct_stereo_status>  (134) 
1

>  <s_m_source_file>  (134) 
/var/tmp/pbs.5076255.sched01/tmpp9awzhar/40nweoahkg.sdf

>  <i_m_source_file_index>  (134) 
11

>  <i_lp_mmshare_version>  (134) 
48012

>  <i_f3d_flags>  (134) 
0

>  <s_epik_input>  (134) 
W05IMl1bTkhdQyg9TyljMVtjSF1bY0hdW2NIXVtjSF1jMUMoPU8pW09IXQ==

>  <s_epik_cmdline>  (134) 
J2VwaWtfcHl0aG9uJywgJy1waHQnLCAnMi4wJywgJy1waCcsICc3LjAnLCAnLXRuJywgJzgnLCAnLW1hJywgJzIwMCcsICctaW1hZScsICc8aW5maWxlLm1hZT4nLCAnLW9tYWUnLCAnPG91dGZpbGUubWFlPic=

>  <r_epik_Ionization_Penalty>  (134) 
0.000351923

>  <r_epik_Ionization_Penalty_Charging>  (134) 
0.000312972

>  <r_epik_Ionization_Penalty_Neutral>  (134) 
3.89515e-05

>  <r_epik_State_Penalty>  (134) 
0.000188679

>  <r_epik_Charging_Adjusted_Penalty>  (134) 
0.000501651

>  <i_epik_Tot_Q>  (134) 
-1

>  <i_epik_Tot_abs_Q>  (134) 
1

>  <s_lp_Force_Field>  (134) 
OPLS3e

>  <r_lp_Energy>  (134) 
30.3565

>  <b_lp_Chiralities_Consistent>  (134) 
1

>  <s_lp_Variant>  (134) 
36:0-1

>  <s_i_glide_gridfile>  (134) 
pfpi4k_grid

>  <i_i_glide_lignum>  (134) 
11

>  <i_i_glide_rotatable_bonds>  (134) 
3

>  <r_i_docking_score>  (134) 
-5.82914

>  <r_i_glide_ligand_efficiency>  (134) 
-0.448395

>  <r_i_glide_ligand_efficiency_sa>  (134) 
-1.05433

>  <r_i_glide_ligand_efficiency_ln>  (134) 
-1.63513

>  <r_i_glide_gscore>  (134) 
-5.82914

>  <r_i_glide_lipo>  (134) 
-1.77922

>  <r_i_glide_hbond>  (134) 
-0.0535951

>  <r_i_glide_metal>  (134) 
-0

>  <r_i_glide_rewards>  (134) 
-3.11031

>  <r_i_glide_evdw>  (134) 
-19.9042

>  <r_i_glide_ecoul>  (134) 
-2.53798

>  <r_i_glide_erotb>  (134) 
0.489892

>  <r_i_glide_esite>  (134) 
0

>  <r_i_glide_emodel>  (134) 
-35.241

>  <r_i_glide_energy>  (134) 
-22.4422

>  <r_i_glide_einternal>  (134) 
0.013269

>  <r_i_glide_intrahb_reward>  (134) 
-0

>  <i_i_glide_confnum>  (134) 
5

>  <i_i_glide_posenum>  (134) 
2

>  <r_i_glide_eff_state_penalty>  (134) 
0

>  <ligand_id>  (134) 
36

>  <original_smiles>  (134) 
NNC(=O)c1ccccc1C(=O)O

>  <smiles>  (134) 
[H]c1c([H])c([H])c(C(=O)N([H])N([H])[H])c(C(=O)[O-])c1[H]

$$$$
36:0:1
     RDKit          3D

 20 20  0  0  1  0  0  0  0  0999 V2000
    3.9891   -6.9599    0.8905 N   0  0  0  0  0  0  0  0  0  0  0  0
    3.9846   -5.8234    0.0812 N   0  0  0  0  0  0  0  0  0  0  0  0
    4.3474   -4.6182    0.5589 C   0  0  0  0  0  0  0  0  0  0  0  0
    4.6298   -4.4143    1.7430 O   0  0  0  0  0  0  0  0  0  0  0  0
    4.3278   -3.5153   -0.4720 C   0  0  0  0  0  0  0  0  0  0  0  0
    3.1855   -3.4500   -1.3036 C   0  0  0  0  0  0  0  0  0  0  0  0
    3.0138   -2.4444   -2.2710 C   0  0  0  0  0  0  0  0  0  0  0  0
    3.9931   -1.4548   -2.4092 C   0  0  0  0  0  0  0  0  0  0  0  0
    5.1299   -1.5017   -1.5944 C   0  0  0  0  0  0  0  0  0  0  0  0
    5.3523   -2.5276   -0.6392 C   0  0  0  0  0  0  0  0  0  0  0  0
    6.6765   -2.5063    0.1046 C   0  0  0  0  0  0  0  0  0  0  0  0
    7.0960   -3.5153    0.7140 O   0  0  0  0  0  0  0  0  0  0  0  0
    7.3606   -1.4550    0.0687 O   0  0  0  0  0  0  0  0  0  0  0  0
    4.8749   -6.9915    1.3919 H   0  0  0  0  0  0  0  0  0  0  0  0
    3.2721   -6.8521    1.6035 H   0  0  0  0  0  0  0  0  0  0  0  0
    3.6762   -5.9082   -0.8854 H   0  0  0  0  0  0  0  0  0  0  0  0
    2.3753   -4.1645   -1.1999 H   0  0  0  0  0  0  0  0  0  0  0  0
    2.1158   -2.4060   -2.8663 H   0  0  0  0  0  0  0  0  0  0  0  0
    3.8587   -0.6510   -3.1257 H   0  0  0  0  0  0  0  0  0  0  0  0
    5.8491   -0.7150   -1.7280 H   0  0  0  0  0  0  0  0  0  0  0  0
  1  2  1  0
  1 14  1  0
  1 15  1  0
  2  3  1  0
  2 16  1  0
  3  4  2  0
  3  5  1  0
  5 10  2  0
  5  6  1  0
  6  7  2  0
  6 17  1  0
  7  8  1  0
  7 18  1  0
  8  9  2  0
  8 19  1  0
  9 10  1  0
  9 20  1  0
 10 11  1  0
 11 12  2  0
 11 13  1  0
M  CHG  1  13  -1
M  END
>  <i_m_ct_stereo_status>  (135) 
1

>  <s_m_source_file>  (135) 
/var/tmp/pbs.5076255.sched01/tmpp9awzhar/40nweoahkg.sdf

>  <i_m_source_file_index>  (135) 
11

>  <i_lp_mmshare_version>  (135) 
48012

>  <i_f3d_flags>  (135) 
0

>  <s_epik_input>  (135) 
W05IMl1bTkhdQyg9TyljMVtjSF1bY0hdW2NIXVtjSF1jMUMoPU8pW09IXQ==

>  <s_epik_cmdline>  (135) 
J2VwaWtfcHl0aG9uJywgJy1waHQnLCAnMi4wJywgJy1waCcsICc3LjAnLCAnLXRuJywgJzgnLCAnLW1hJywgJzIwMCcsICctaW1hZScsICc8aW5maWxlLm1hZT4nLCAnLW9tYWUnLCAnPG91dGZpbGUubWFlPic=

>  <r_epik_Ionization_Penalty>  (135) 
0.000351923

>  <r_epik_Ionization_Penalty_Charging>  (135) 
0.000312972

>  <r_epik_Ionization_Penalty_Neutral>  (135) 
3.89515e-05

>  <r_epik_State_Penalty>  (135) 
0.000188679

>  <r_epik_Charging_Adjusted_Penalty>  (135) 
0.000501651

>  <i_epik_Tot_Q>  (135) 
-1

>  <i_epik_Tot_abs_Q>  (135) 
1

>  <s_lp_Force_Field>  (135) 
OPLS3e

>  <r_lp_Energy>  (135) 
30.3565

>  <b_lp_Chiralities_Consistent>  (135) 
1

>  <s_lp_Variant>  (135) 
36:0-1

>  <s_i_glide_gridfile>  (135) 
pfpi4k_grid

>  <i_i_glide_lignum>  (135) 
11

>  <i_i_glide_rotatable_bonds>  (135) 
3

>  <r_i_docking_score>  (135) 
-3.65998

>  <r_i_glide_ligand_efficiency>  (135) 
-0.281537

>  <r_i_glide_ligand_efficiency_sa>  (135) 
-0.661988

>  <r_i_glide_ligand_efficiency_ln>  (135) 
-1.02666

>  <r_i_glide_gscore>  (135) 
-3.65998

>  <r_i_glide_lipo>  (135) 
-0.115585

>  <r_i_glide_hbond>  (135) 
-0.444281

>  <r_i_glide_metal>  (135) 
-0

>  <r_i_glide_rewards>  (135) 
-2.30501

>  <r_i_glide_evdw>  (135) 
-15.8691

>  <r_i_glide_ecoul>  (135) 
-3.26681

>  <r_i_glide_erotb>  (135) 
0.489892

>  <r_i_glide_esite>  (135) 
-0.00152037

>  <r_i_glide_emodel>  (135) 
-27.1162

>  <r_i_glide_energy>  (135) 
-19.1359

>  <r_i_glide_einternal>  (135) 
0.182993

>  <r_i_glide_intrahb_reward>  (135) 
-0

>  <i_i_glide_confnum>  (135) 
5

>  <i_i_glide_posenum>  (135) 
4

>  <r_i_glide_eff_state_penalty>  (135) 
0

>  <ligand_id>  (135) 
36

>  <original_smiles>  (135) 
NNC(=O)c1ccccc1C(=O)O

>  <smiles>  (135) 
[H]c1c([H])c([H])c(C(=O)N([H])N([H])[H])c(C(=O)[O-])c1[H]

$$$$
36:0:2
     RDKit          3D

 20 20  0  0  1  0  0  0  0  0999 V2000
    5.4061   -0.2722    2.2114 N   0  0  0  0  0  0  0  0  0  0  0  0
    4.8118   -0.5735    0.9851 N   0  0  0  0  0  0  0  0  0  0  0  0
    4.9510   -1.7937    0.4385 C   0  0  0  0  0  0  0  0  0  0  0  0
    5.6960   -2.6564    0.9068 O   0  0  0  0  0  0  0  0  0  0  0  0
    4.1874   -1.9998   -0.8444 C   0  0  0  0  0  0  0  0  0  0  0  0
    4.4489   -1.0703   -1.8813 C   0  0  0  0  0  0  0  0  0  0  0  0
    3.8303   -1.1512   -3.1387 C   0  0  0  0  0  0  0  0  0  0  0  0
    2.9199   -2.1906   -3.3805 C   0  0  0  0  0  0  0  0  0  0  0  0
    2.6302   -3.1076   -2.3545 C   0  0  0  0  0  0  0  0  0  0  0  0
    3.2357   -3.0551   -1.0776 C   0  0  0  0  0  0  0  0  0  0  0  0
    2.7899   -4.0917   -0.0476 C   0  0  0  0  0  0  0  0  0  0  0  0
    1.8185   -4.8391   -0.3175 O   0  0  0  0  0  0  0  0  0  0  0  0
    3.3532   -4.1835    1.0650 O   0  0  0  0  0  0  0  0  0  0  0  0
    5.2006   -1.0339    2.8553 H   0  0  0  0  0  0  0  0  0  0  0  0
    6.4164   -0.2624    2.0918 H   0  0  0  0  0  0  0  0  0  0  0  0
    4.2713    0.1428    0.5132 H   0  0  0  0  0  0  0  0  0  0  0  0
    5.1465   -0.2613   -1.7112 H   0  0  0  0  0  0  0  0  0  0  0  0
    4.0442   -0.4201   -3.9081 H   0  0  0  0  0  0  0  0  0  0  0  0
    2.4270   -2.2802   -4.3319 H   0  0  0  0  0  0  0  0  0  0  0  0
    1.9090   -3.8787   -2.5744 H   0  0  0  0  0  0  0  0  0  0  0  0
  1  2  1  0
  1 14  1  0
  1 15  1  0
  2  3  1  0
  2 16  1  0
  3  4  2  0
  3  5  1  0
  5 10  2  0
  5  6  1  0
  6  7  2  0
  6 17  1  0
  7  8  1  0
  7 18  1  0
  8  9  2  0
  8 19  1  0
  9 10  1  0
  9 20  1  0
 10 11  1  0
 11 12  2  0
 11 13  1  0
M  CHG  1  13  -1
M  END
>  <i_m_ct_stereo_status>  (136) 
1

>  <s_m_source_file>  (136) 
/var/tmp/pbs.5076255.sched01/tmpp9awzhar/40nweoahkg.sdf

>  <i_m_source_file_index>  (136) 
11

>  <i_lp_mmshare_version>  (136) 
48012

>  <i_f3d_flags>  (136) 
0

>  <s_epik_input>  (136) 
W05IMl1bTkhdQyg9TyljMVtjSF1bY0hdW2NIXVtjSF1jMUMoPU8pW09IXQ==

>  <s_epik_cmdline>  (136) 
J2VwaWtfcHl0aG9uJywgJy1waHQnLCAnMi4wJywgJy1waCcsICc3LjAnLCAnLXRuJywgJzgnLCAnLW1hJywgJzIwMCcsICctaW1hZScsICc8aW5maWxlLm1hZT4nLCAnLW9tYWUnLCAnPG91dGZpbGUubWFlPic=

>  <r_epik_Ionization_Penalty>  (136) 
0.000351923

>  <r_epik_Ionization_Penalty_Charging>  (136) 
0.000312972

>  <r_epik_Ionization_Penalty_Neutral>  (136) 
3.89515e-05

>  <r_epik_State_Penalty>  (136) 
0.000188679

>  <r_epik_Charging_Adjusted_Penalty>  (136) 
0.000501651

>  <i_epik_Tot_Q>  (136) 
-1

>  <i_epik_Tot_abs_Q>  (136) 
1

>  <s_lp_Force_Field>  (136) 
OPLS3e

>  <r_lp_Energy>  (136) 
30.3565

>  <b_lp_Chiralities_Consistent>  (136) 
1

>  <s_lp_Variant>  (136) 
36:0-1

>  <s_i_glide_gridfile>  (136) 
pfpi4k_grid

>  <i_i_glide_lignum>  (136) 
11

>  <i_i_glide_rotatable_bonds>  (136) 
3

>  <r_i_docking_score>  (136) 
-3.49308

>  <r_i_glide_ligand_efficiency>  (136) 
-0.268699

>  <r_i_glide_ligand_efficiency_sa>  (136) 
-0.6318

>  <r_i_glide_ligand_efficiency_ln>  (136) 
-0.979841

>  <r_i_glide_gscore>  (136) 
-3.49308

>  <r_i_glide_lipo>  (136) 
-0.245717

>  <r_i_glide_hbond>  (136) 
-0.357452

>  <r_i_glide_metal>  (136) 
-0

>  <r_i_glide_rewards>  (136) 
-2.23009

>  <r_i_glide_evdw>  (136) 
-17.7368

>  <r_i_glide_ecoul>  (136) 
-1.52413

>  <r_i_glide_erotb>  (136) 
0.489892

>  <r_i_glide_esite>  (136) 
-0.0342604

>  <r_i_glide_emodel>  (136) 
-26.8023

>  <r_i_glide_energy>  (136) 
-19.2609

>  <r_i_glide_einternal>  (136) 
0.471989

>  <r_i_glide_intrahb_reward>  (136) 
-0

>  <i_i_glide_confnum>  (136) 
5

>  <i_i_glide_posenum>  (136) 
11

>  <r_i_glide_eff_state_penalty>  (136) 
0

>  <ligand_id>  (136) 
36

>  <original_smiles>  (136) 
NNC(=O)c1ccccc1C(=O)O

>  <smiles>  (136) 
[H]c1c([H])c([H])c(C(=O)N([H])N([H])[H])c(C(=O)[O-])c1[H]

$$$$
37:0:0
     RDKit          3D

 70 77  0  0  1  0  0  0  0  0999 V2000
    5.2604   -2.5862    5.4820 C   0  0  0  0  0  0  0  0  0  0  0  0
    4.0120   -2.6199    4.5646 C   0  0  2  0  0  0  0  0  0  0  0  0
    3.1417   -1.3290    5.0111 C   0  0  0  0  0  0  0  0  0  0  0  0
    2.4233   -0.5566    3.9849 O   0  0  0  0  0  0  0  0  0  0  0  0
    3.2062   -0.4425    2.8403 C   0  0  2  0  0  0  0  0  0  0  0  0
    2.7977    0.1028    1.6414 O   0  0  0  0  0  0  0  0  0  0  0  0
    3.6780   -0.5626    0.6749 C   0  0  0  0  0  0  0  0  0  0  0  0
    3.6194   -2.0675    1.0347 C   0  0  1  0  0  0  0  0  0  0  0  0
    2.6306   -2.6491    0.1990 O   0  0  0  0  0  0  0  0  0  0  0  0
    4.6526   -3.0830    1.6674 C   0  0  2  0  0  0  0  0  0  0  0  0
    4.5499   -4.6077    1.3239 C   0  0  0  0  0  0  0  0  0  0  0  0
    3.2737   -5.4154    1.7304 C   0  0  0  0  0  0  0  0  0  0  0  0
    3.2845   -6.3016    3.0378 C   0  0  1  0  0  0  0  0  0  0  0  0
    4.4869   -6.0115    3.9963 C   0  0  0  0  0  0  0  0  0  0  0  0
    4.0110   -5.2825    5.2489 C   0  0  2  0  0  0  0  0  0  0  0  0
    3.3031   -6.3965    6.0709 C   0  0  0  0  0  0  0  0  0  0  0  0
    2.0324   -6.7814    5.3620 C   0  0  2  0  0  0  0  0  0  0  0  0
    1.2629   -8.1108    5.2851 C   0  0  2  0  0  0  0  0  0  0  0  0
   -0.1352   -8.0311    5.9595 C   0  0  0  0  0  0  0  0  0  0  0  0
    1.8092   -9.5206    5.4785 C   0  0  1  0  0  0  0  0  0  0  0  0
    1.8699   -9.8522    6.8506 O   0  0  0  0  0  0  0  0  0  0  0  0
    0.9440  -10.5292    4.6368 C   0  0  0  0  0  0  0  0  0  0  0  0
    0.1815  -10.0030    3.3331 C   0  0  0  0  0  0  0  0  0  0  0  0
    0.2057   -8.4770    3.0554 C   0  0  0  0  0  0  0  0  0  0  0  0
   -0.6564   -7.9207    2.3755 O   0  0  0  0  0  0  0  0  0  0  0  0
    1.3474   -7.8928    3.7858 C   0  0  1  0  0  0  0  0  0  0  0  0
    1.9002   -6.4468    3.8463 C   0  0  2  0  0  0  0  0  0  0  0  0
    1.0363   -5.1564    3.8395 C   0  0  0  0  0  0  0  0  0  0  0  0
    1.6566   -4.0077    4.7325 C   0  0  0  0  0  0  0  0  0  0  0  0
    3.2220   -3.9725    4.7546 C   0  0  1  0  0  0  0  0  0  0  0  0
    4.5094   -2.3767    3.0747 C   0  0  1  0  0  0  0  0  0  0  0  0
    3.2719   -1.8426    2.4410 C   0  0  1  0  0  0  0  0  0  0  0  0
    5.7572   -1.6182    5.4508 H   0  0  0  0  0  0  0  0  0  0  0  0
    6.0166   -3.3134    5.1837 H   0  0  0  0  0  0  0  0  0  0  0  0
    4.9959   -2.7695    6.5272 H   0  0  0  0  0  0  0  0  0  0  0  0
    2.4437   -1.5948    5.8050 H   0  0  0  0  0  0  0  0  0  0  0  0
    3.7976   -0.5961    5.4752 H   0  0  0  0  0  0  0  0  0  0  0  0
    4.1413    0.0579    3.1019 H   0  0  0  0  0  0  0  0  0  0  0  0
    3.3259   -0.3702   -0.3316 H   0  0  0  0  0  0  0  0  0  0  0  0
    4.6945   -0.1618    0.7415 H   0  0  0  0  0  0  0  0  0  0  0  0
    2.0687   -1.9376   -0.1096 H   0  0  0  0  0  0  0  0  0  0  0  0
    5.6223   -2.7499    1.2927 H   0  0  0  0  0  0  0  0  0  0  0  0
    4.5647   -4.6568    0.2363 H   0  0  0  0  0  0  0  0  0  0  0  0
    5.4703   -5.1352    1.5601 H   0  0  0  0  0  0  0  0  0  0  0  0
    2.4612   -4.7083    1.6979 H   0  0  0  0  0  0  0  0  0  0  0  0
    3.0424   -6.0952    0.9110 H   0  0  0  0  0  0  0  0  0  0  0  0
    3.5625   -7.2745    2.6327 H   0  0  0  0  0  0  0  0  0  0  0  0
    4.9615   -6.9584    4.2692 H   0  0  0  0  0  0  0  0  0  0  0  0
    5.2961   -5.4320    3.5709 H   0  0  0  0  0  0  0  0  0  0  0  0
    4.8816   -5.0208    5.8459 H   0  0  0  0  0  0  0  0  0  0  0  0
    3.9518   -7.2709    6.1860 H   0  0  0  0  0  0  0  0  0  0  0  0
    3.0988   -6.0473    7.0826 H   0  0  0  0  0  0  0  0  0  0  0  0
    1.3043   -6.1912    5.9156 H   0  0  0  0  0  0  0  0  0  0  0  0
   -0.7774   -8.8810    5.7328 H   0  0  0  0  0  0  0  0  0  0  0  0
   -0.6776   -7.1430    5.6309 H   0  0  0  0  0  0  0  0  0  0  0  0
   -0.0479   -7.9738    7.0461 H   0  0  0  0  0  0  0  0  0  0  0  0
    2.8320   -9.5686    5.0997 H   0  0  0  0  0  0  0  0  0  0  0  0
    1.8080  -10.8084    6.9657 H   0  0  0  0  0  0  0  0  0  0  0  0
    1.5751  -11.3754    4.3583 H   0  0  0  0  0  0  0  0  0  0  0  0
    0.2052  -10.9696    5.3055 H   0  0  0  0  0  0  0  0  0  0  0  0
    0.5946  -10.5061    2.4575 H   0  0  0  0  0  0  0  0  0  0  0  0
   -0.8654  -10.3122    3.3912 H   0  0  0  0  0  0  0  0  0  0  0  0
    2.1982   -8.4691    3.4356 H   0  0  0  0  0  0  0  0  0  0  0  0
    0.8122   -4.8031    2.8392 H   0  0  0  0  0  0  0  0  0  0  0  0
    0.0429   -5.3730    4.2356 H   0  0  0  0  0  0  0  0  0  0  0  0
    1.2436   -3.0664    4.3613 H   0  0  0  0  0  0  0  0  0  0  0  0
    1.2904   -4.0658    5.7585 H   0  0  0  0  0  0  0  0  0  0  0  0
    3.2232   -4.0906    3.7070 H   0  0  0  0  0  0  0  0  0  0  0  0
    5.3439   -1.6672    3.0810 H   0  0  0  0  0  0  0  0  0  0  0  0
    2.3527   -2.4031    2.6123 H   0  0  0  0  0  0  0  0  0  0  0  0
  2  1  1  1
  1 33  1  0
  1 34  1  0
  1 35  1  0
  2 30  1  0
  2 31  1  0
  2  3  1  0
  3  4  1  0
  3 36  1  0
  3 37  1  0
  4  5  1  0
  5 32  1  0
  5  6  1  0
  5 38  1  1
  6  7  1  0
  7  8  1  0
  7 39  1  0
  7 40  1  0
  8 32  1  0
  8  9  1  6
  8 10  1  0
  9 41  1  0
 10 11  1  0
 10 31  1  0
 10 42  1  6
 11 12  1  0
 11 43  1  0
 11 44  1  0
 12 13  1  0
 12 45  1  0
 12 46  1  0
 13 27  1  0
 13 14  1  0
 13 47  1  6
 14 15  1  0
 14 48  1  0
 14 49  1  0
 15 30  1  0
 15 16  1  0
 15 50  1  1
 16 17  1  0
 16 51  1  0
 16 52  1  0
 17 27  1  0
 17 18  1  0
 17 53  1  1
 18 26  1  0
 18 19  1  1
 18 20  1  0
 19 54  1  0
 19 55  1  0
 19 56  1  0
 20 21  1  0
 20 22  1  0
 20 57  1  6
 21 58  1  0
 22 23  1  0
 22 59  1  0
 22 60  1  0
 23 24  1  0
 23 61  1  0
 23 62  1  0
 24 25  2  0
 24 26  1  0
 26 27  1  0
 26 63  1  6
 27 28  1  1
 28 29  1  0
 28 64  1  0
 28 65  1  0
 29 30  1  0
 29 66  1  0
 29 67  1  0
 30 68  1  6
 31 32  1  0
 31 69  1  1
 32 70  1  1
M  END
>  <i_m_ct_stereo_status>  (137) 
1

>  <s_m_source_file>  (137) 
/var/tmp/pbs.5076255.sched01/tmpp9awzhar/40nweoahkg.sdf

>  <i_m_source_file_index>  (137) 
12

>  <i_lp_mmshare_version>  (137) 
48012

>  <i_f3d_flags>  (137) 
0

>  <s_epik_input>  (137) 
W0NAQF0xMjNbQ0BIXTRbQ0gyXVtDSDJdW0NASF01W0NAQF02KFtPSF0pW0NAQEhdN1tDQEBIXShPW0NIMl02KU9bQ0gyXVtDQF0oW0NIM10pKFtDQEBIXTU3KVtDSF0oW0NIMl1bQ0gyXTMpW0NASF0oW0NIMl00KVtDSDJdW0NAQEhdMVtDQEBdOChbQ0gzXSlbQ0BIXTJDKD1PKVtDSDJdW0NIMl1bQ0BASF04W09IXQ==

>  <s_epik_cmdline>  (137) 
J2VwaWtfcHl0aG9uJywgJy1waHQnLCAnMi4wJywgJy1waCcsICc3LjAnLCAnLXRuJywgJzgnLCAnLW1hJywgJzIwMCcsICctaW1hZScsICc8aW5maWxlLm1hZT4nLCAnLW9tYWUnLCAnPG91dGZpbGUubWFlPic=

>  <r_lp_tautomer_probability>  (137) 
1

>  <r_epik_Ionization_Penalty>  (137) 
1.07147e-06

>  <r_epik_Ionization_Penalty_Charging>  (137) 
0

>  <r_epik_Ionization_Penalty_Neutral>  (137) 
1.07147e-06

>  <r_epik_State_Penalty>  (137) 
-0

>  <r_epik_Charging_Adjusted_Penalty>  (137) 
0

>  <i_epik_Tot_Q>  (137) 
0

>  <i_epik_Tot_abs_Q>  (137) 
0

>  <s_epik_Chemistry_Notes>  (137) 
This compound contains an acetal/aminal-like group ( X-CH(R)-Y where X, Y are N, S, or O) that may be acid/base labile, releasing an aldehyde.

>  <s_lp_Force_Field>  (137) 
OPLS3e

>  <r_lp_Energy>  (137) 
230.504

>  <b_lp_Chiralities_Consistent>  (137) 
1

>  <s_lp_Variant>  (137) 
37:0-1

>  <s_i_glide_gridfile>  (137) 
pfpi4k_grid

>  <i_i_glide_lignum>  (137) 
12

>  <i_i_glide_rotatable_bonds>  (137) 
2

>  <r_i_docking_score>  (137) 
-2.74788

>  <r_i_glide_ligand_efficiency>  (137) 
-0.0858713

>  <r_i_glide_ligand_efficiency_sa>  (137) 
-0.272624

>  <r_i_glide_ligand_efficiency_ln>  (137) 
-0.615325

>  <r_i_glide_gscore>  (137) 
-2.74788

>  <r_i_glide_lipo>  (137) 
-0.109767

>  <r_i_glide_hbond>  (137) 
-0.152

>  <r_i_glide_metal>  (137) 
-0

>  <r_i_glide_rewards>  (137) 
-0.391448

>  <r_i_glide_evdw>  (137) 
-17.9809

>  <r_i_glide_ecoul>  (137) 
-7.73668

>  <r_i_glide_erotb>  (137) 
0

>  <r_i_glide_esite>  (137) 
-0.0351204

>  <r_i_glide_emodel>  (137) 
-29.9264

>  <r_i_glide_energy>  (137) 
-25.7176

>  <r_i_glide_einternal>  (137) 
1.86121

>  <r_i_glide_intrahb_reward>  (137) 
-0

>  <i_i_glide_confnum>  (137) 
2

>  <i_i_glide_posenum>  (137) 
27

>  <r_i_glide_eff_state_penalty>  (137) 
0

>  <ligand_id>  (137) 
37

>  <original_smiles>  (137) 
CC12COC3OCC4(O)C(CCC5CC6CC7C8(C)C(O)CCC(=O)C8C57CCC61)C2C34

>  <smiles>  (137) 
[H]OC1([H])C([H])([H])C([H])([H])C(=O)C2([H])C1(C([H])([H])[H])C1([H])C([H])([H])C3([H])C([H])([H])C4([H])C([H])([H])C([H])([H])C5([H])C6([H])C7([H])C([H])(OC([H])([H])C75O[H])OC([H])([H])C6(C([H])([H])[H])C3([H])C([H])([H])C([H])([H])C241

$$$$
37:0:1
     RDKit          3D

 70 77  0  0  1  0  0  0  0  0999 V2000
    6.2647   -1.8448    2.1833 C   0  0  0  0  0  0  0  0  0  0  0  0
    4.9426   -2.1084    1.5027 C   0  0  2  0  0  0  0  0  0  0  0  0
    4.2266   -0.6752    1.4987 C   0  0  0  0  0  0  0  0  0  0  0  0
    3.4580   -0.3194    0.3052 O   0  0  0  0  0  0  0  0  0  0  0  0
    4.1442   -0.7027   -0.8566 C   0  0  2  0  0  0  0  0  0  0  0  0
    3.6678   -0.6571   -2.1561 O   0  0  0  0  0  0  0  0  0  0  0  0
    4.3991   -1.7038   -2.8446 C   0  0  0  0  0  0  0  0  0  0  0  0
    4.3052   -2.8924   -1.9177 C   0  0  1  0  0  0  0  0  0  0  0  0
    3.1590   -3.4836   -2.4342 O   0  0  0  0  0  0  0  0  0  0  0  0
    5.2852   -3.7156   -0.9921 C   0  0  2  0  0  0  0  0  0  0  0  0
    5.0658   -5.2474   -0.6651 C   0  0  0  0  0  0  0  0  0  0  0  0
    3.8033   -5.7163    0.1109 C   0  0  0  0  0  0  0  0  0  0  0  0
    3.9038   -6.0216    1.6600 C   0  0  1  0  0  0  0  0  0  0  0  0
    5.2073   -5.4883    2.3386 C   0  0  0  0  0  0  0  0  0  0  0  0
    4.9020   -4.2747    3.2141 C   0  0  2  0  0  0  0  0  0  0  0  0
    4.2268   -4.9044    4.4674 C   0  0  0  0  0  0  0  0  0  0  0  0
    2.8725   -5.4379    4.0690 C   0  0  2  0  0  0  0  0  0  0  0  0
    2.0171   -6.5944    4.5938 C   0  0  2  0  0  0  0  0  0  0  0  0
    0.7002   -6.1244    5.2738 C   0  0  0  0  0  0  0  0  0  0  0  0
    2.4872   -7.8663    5.2788 C   0  0  1  0  0  0  0  0  0  0  0  0
    2.6425   -7.6811    6.6681 O   0  0  0  0  0  0  0  0  0  0  0  0
    1.4789   -9.0299    4.9676 C   0  0  0  0  0  0  0  0  0  0  0  0
    0.6282   -8.9859    3.6227 C   0  0  0  0  0  0  0  0  0  0  0  0
    0.7219   -7.6997    2.7669 C   0  0  0  0  0  0  0  0  0  0  0  0
   -0.1787   -7.3573    2.0012 O   0  0  0  0  0  0  0  0  0  0  0  0
    1.9772   -6.9937    3.1256 C   0  0  1  0  0  0  0  0  0  0  0  0
    2.6190   -5.7191    2.5656 C   0  0  2  0  0  0  0  0  0  0  0  0
    1.8499   -4.4783    2.1036 C   0  0  0  0  0  0  0  0  0  0  0  0
    2.5965   -3.1161    2.4017 C   0  0  0  0  0  0  0  0  0  0  0  0
    4.1369   -3.2063    2.2926 C   0  0  1  0  0  0  0  0  0  0  0  0
    5.3225   -2.5126    0.0151 C   0  0  1  0  0  0  0  0  0  0  0  0
    4.0966   -2.1416   -0.6940 C   0  0  1  0  0  0  0  0  0  0  0  0
    6.8034   -1.0006    1.7494 H   0  0  0  0  0  0  0  0  0  0  0  0
    6.8917   -2.7193    2.0048 H   0  0  0  0  0  0  0  0  0  0  0  0
    6.1317   -1.6316    3.2433 H   0  0  0  0  0  0  0  0  0  0  0  0
    3.6177   -0.5418    2.3841 H   0  0  0  0  0  0  0  0  0  0  0  0
    4.9771    0.1064    1.5581 H   0  0  0  0  0  0  0  0  0  0  0  0
    5.1280   -0.2378   -0.8747 H   0  0  0  0  0  0  0  0  0  0  0  0
    3.9815   -1.8864   -3.8354 H   0  0  0  0  0  0  0  0  0  0  0  0
    5.4202   -1.4244   -2.9949 H   0  0  0  0  0  0  0  0  0  0  0  0
    2.4439   -2.9216   -2.1906 H   0  0  0  0  0  0  0  0  0  0  0  0
    6.2315   -3.6466   -1.5056 H   0  0  0  0  0  0  0  0  0  0  0  0
    5.0197   -5.7280   -1.6351 H   0  0  0  0  0  0  0  0  0  0  0  0
    5.9681   -5.7170   -0.2875 H   0  0  0  0  0  0  0  0  0  0  0  0
    3.0405   -5.0188   -0.1963 H   0  0  0  0  0  0  0  0  0  0  0  0
    3.4803   -6.6508   -0.3266 H   0  0  0  0  0  0  0  0  0  0  0  0
    4.0794   -7.0855    1.6482 H   0  0  0  0  0  0  0  0  0  0  0  0
    5.6571   -6.3009    2.9311 H   0  0  0  0  0  0  0  0  0  0  0  0
    5.9911   -5.1749    1.6621 H   0  0  0  0  0  0  0  0  0  0  0  0
    5.8255   -3.8619    3.5906 H   0  0  0  0  0  0  0  0  0  0  0  0
    4.8454   -5.7082    4.8827 H   0  0  0  0  0  0  0  0  0  0  0  0
    4.1246   -4.1518    5.2495 H   0  0  0  0  0  0  0  0  0  0  0  0
    2.2272   -4.6314    4.3703 H   0  0  0  0  0  0  0  0  0  0  0  0
   -0.0000   -6.9365    5.4530 H   0  0  0  0  0  0  0  0  0  0  0  0
    0.1743   -5.4024    4.6539 H   0  0  0  0  0  0  0  0  0  0  0  0
    0.9058   -5.6534    6.2329 H   0  0  0  0  0  0  0  0  0  0  0  0
    3.4624   -8.1387    4.8871 H   0  0  0  0  0  0  0  0  0  0  0  0
    3.0032   -8.4758    7.0244 H   0  0  0  0  0  0  0  0  0  0  0  0
    2.0369   -9.9732    5.0168 H   0  0  0  0  0  0  0  0  0  0  0  0
    0.7683   -9.0937    5.8002 H   0  0  0  0  0  0  0  0  0  0  0  0
    0.9327   -9.8214    2.9994 H   0  0  0  0  0  0  0  0  0  0  0  0
   -0.4136   -9.1644    3.8837 H   0  0  0  0  0  0  0  0  0  0  0  0
    2.7584   -7.7249    2.9962 H   0  0  0  0  0  0  0  0  0  0  0  0
    1.5959   -4.5850    1.0614 H   0  0  0  0  0  0  0  0  0  0  0  0
    0.8987   -4.4224    2.6219 H   0  0  0  0  0  0  0  0  0  0  0  0
    2.1968   -2.3789    1.7074 H   0  0  0  0  0  0  0  0  0  0  0  0
    2.3372   -2.7303    3.3898 H   0  0  0  0  0  0  0  0  0  0  0  0
    4.0368   -3.7309    1.3790 H   0  0  0  0  0  0  0  0  0  0  0  0
    6.2096   -1.9627   -0.3028 H   0  0  0  0  0  0  0  0  0  0  0  0
    3.1726   -2.5232   -0.2601 H   0  0  0  0  0  0  0  0  0  0  0  0
  2  1  1  1
  1 33  1  0
  1 34  1  0
  1 35  1  0
  2 30  1  0
  2 31  1  0
  2  3  1  0
  3  4  1  0
  3 36  1  0
  3 37  1  0
  4  5  1  0
  5 32  1  0
  5  6  1  0
  5 38  1  6
  6  7  1  0
  7  8  1  0
  7 39  1  0
  7 40  1  0
  8 32  1  0
  8  9  1  6
  8 10  1  0
  9 41  1  0
 10 11  1  0
 10 31  1  0
 10 42  1  6
 11 12  1  0
 11 43  1  0
 11 44  1  0
 12 13  1  0
 12 45  1  0
 12 46  1  0
 13 27  1  0
 13 14  1  0
 13 47  1  6
 14 15  1  0
 14 48  1  0
 14 49  1  0
 15 30  1  0
 15 16  1  0
 15 50  1  1
 16 17  1  0
 16 51  1  0
 16 52  1  0
 17 27  1  0
 17 18  1  0
 17 53  1  1
 18 26  1  0
 18 19  1  1
 18 20  1  0
 19 54  1  0
 19 55  1  0
 19 56  1  0
 20 21  1  0
 20 22  1  0
 20 57  1  6
 21 58  1  0
 22 23  1  0
 22 59  1  0
 22 60  1  0
 23 24  1  0
 23 61  1  0
 23 62  1  0
 24 25  2  0
 24 26  1  0
 26 27  1  0
 26 63  1  1
 27 28  1  6
 28 29  1  0
 28 64  1  0
 28 65  1  0
 29 30  1  0
 29 66  1  0
 29 67  1  0
 30 68  1  6
 31 32  1  0
 31 69  1  6
 32 70  1  1
M  END
>  <i_m_ct_stereo_status>  (138) 
1

>  <s_m_source_file>  (138) 
/var/tmp/pbs.5076255.sched01/tmpp9awzhar/40nweoahkg.sdf

>  <i_m_source_file_index>  (138) 
12

>  <i_lp_mmshare_version>  (138) 
48012

>  <i_f3d_flags>  (138) 
0

>  <s_epik_input>  (138) 
W0NAQF0xMjNbQ0BIXTRbQ0gyXVtDSDJdW0NASF01W0NAQF02KFtPSF0pW0NAQEhdN1tDQEBIXShPW0NIMl02KU9bQ0gyXVtDQF0oW0NIM10pKFtDQEBIXTU3KVtDSF0oW0NIMl1bQ0gyXTMpW0NASF0oW0NIMl00KVtDSDJdW0NAQEhdMVtDQEBdOChbQ0gzXSlbQ0BIXTJDKD1PKVtDSDJdW0NIMl1bQ0BASF04W09IXQ==

>  <s_epik_cmdline>  (138) 
J2VwaWtfcHl0aG9uJywgJy1waHQnLCAnMi4wJywgJy1waCcsICc3LjAnLCAnLXRuJywgJzgnLCAnLW1hJywgJzIwMCcsICctaW1hZScsICc8aW5maWxlLm1hZT4nLCAnLW9tYWUnLCAnPG91dGZpbGUubWFlPic=

>  <r_lp_tautomer_probability>  (138) 
1

>  <r_epik_Ionization_Penalty>  (138) 
1.07147e-06

>  <r_epik_Ionization_Penalty_Charging>  (138) 
0

>  <r_epik_Ionization_Penalty_Neutral>  (138) 
1.07147e-06

>  <r_epik_State_Penalty>  (138) 
-0

>  <r_epik_Charging_Adjusted_Penalty>  (138) 
0

>  <i_epik_Tot_Q>  (138) 
0

>  <i_epik_Tot_abs_Q>  (138) 
0

>  <s_epik_Chemistry_Notes>  (138) 
This compound contains an acetal/aminal-like group ( X-CH(R)-Y where X, Y are N, S, or O) that may be acid/base labile, releasing an aldehyde.

>  <s_lp_Force_Field>  (138) 
OPLS3e

>  <r_lp_Energy>  (138) 
230.504

>  <b_lp_Chiralities_Consistent>  (138) 
1

>  <s_lp_Variant>  (138) 
37:0-1

>  <s_i_glide_gridfile>  (138) 
pfpi4k_grid

>  <i_i_glide_lignum>  (138) 
12

>  <i_i_glide_rotatable_bonds>  (138) 
2

>  <r_i_docking_score>  (138) 
-1.53803

>  <r_i_glide_ligand_efficiency>  (138) 
-0.0480633

>  <r_i_glide_ligand_efficiency_sa>  (138) 
-0.152591

>  <r_i_glide_ligand_efficiency_ln>  (138) 
-0.344406

>  <r_i_glide_gscore>  (138) 
-1.53803

>  <r_i_glide_lipo>  (138) 
-0.317375

>  <r_i_glide_hbond>  (138) 
0

>  <r_i_glide_metal>  (138) 
-0

>  <r_i_glide_rewards>  (138) 
-0.391448

>  <r_i_glide_evdw>  (138) 
-15.978

>  <r_i_glide_ecoul>  (138) 
0.250791

>  <r_i_glide_erotb>  (138) 
0

>  <r_i_glide_esite>  (138) 
-0.0679214

>  <r_i_glide_emodel>  (138) 
-16.5946

>  <r_i_glide_energy>  (138) 
-15.7272

>  <r_i_glide_einternal>  (138) 
0.718745

>  <r_i_glide_intrahb_reward>  (138) 
-0

>  <i_i_glide_confnum>  (138) 
1

>  <i_i_glide_posenum>  (138) 
1

>  <r_i_glide_eff_state_penalty>  (138) 
0

>  <ligand_id>  (138) 
37

>  <original_smiles>  (138) 
CC12COC3OCC4(O)C(CCC5CC6CC7C8(C)C(O)CCC(=O)C8C57CCC61)C2C34

>  <smiles>  (138) 
[H]OC1([H])C([H])([H])C([H])([H])C(=O)C2([H])C1(C([H])([H])[H])C1([H])C([H])([H])C3([H])C([H])([H])C4([H])C([H])([H])C([H])([H])C5([H])C6([H])C7([H])C([H])(OC([H])([H])C75O[H])OC([H])([H])C6(C([H])([H])[H])C3([H])C([H])([H])C([H])([H])C241

$$$$
37:0:2
     RDKit          3D

 70 77  0  0  1  0  0  0  0  0999 V2000
    5.5988   -1.1745    3.0875 C   0  0  0  0  0  0  0  0  0  0  0  0
    4.5497   -1.7272    2.1452 C   0  0  2  0  0  0  0  0  0  0  0  0
    3.6203   -0.4593    1.8616 C   0  0  0  0  0  0  0  0  0  0  0  0
    3.0816   -0.3046    0.5104 O   0  0  0  0  0  0  0  0  0  0  0  0
    4.0312   -0.6325   -0.4592 C   0  0  2  0  0  0  0  0  0  0  0  0
    3.8237   -0.7164   -1.8302 O   0  0  0  0  0  0  0  0  0  0  0  0
    4.8605   -1.6469   -2.2736 C   0  0  0  0  0  0  0  0  0  0  0  0
    4.7936   -2.8069   -1.2580 C   0  0  1  0  0  0  0  0  0  0  0  0
    4.0059   -3.7675   -1.8792 O   0  0  0  0  0  0  0  0  0  0  0  0
    5.6954   -3.3588   -0.0953 C   0  0  2  0  0  0  0  0  0  0  0  0
    5.6593   -4.9029    0.2442 C   0  0  0  0  0  0  0  0  0  0  0  0
    4.3571   -5.5483    0.7874 C   0  0  0  0  0  0  0  0  0  0  0  0
    4.1792   -5.7721    2.3418 C   0  0  1  0  0  0  0  0  0  0  0  0
    5.2121   -4.9935    3.2210 C   0  0  0  0  0  0  0  0  0  0  0  0
    4.5366   -3.8264    3.9306 C   0  0  2  0  0  0  0  0  0  0  0  0
    3.7350   -4.5204    5.0671 C   0  0  0  0  0  0  0  0  0  0  0  0
    2.6022   -5.3017    4.4439 C   0  0  2  0  0  0  0  0  0  0  0  0
    1.8660   -6.5741    4.8818 C   0  0  2  0  0  0  0  0  0  0  0  0
    0.3780   -6.3375    5.2492 C   0  0  0  0  0  0  0  0  0  0  0  0
    2.3977   -7.7175    5.7278 C   0  0  1  0  0  0  0  0  0  0  0  0
    2.2876   -7.4530    7.1077 O   0  0  0  0  0  0  0  0  0  0  0  0
    1.6924   -9.0609    5.3189 C   0  0  0  0  0  0  0  0  0  0  0  0
    1.1413   -9.2121    3.8317 C   0  0  0  0  0  0  0  0  0  0  0  0
    1.1871   -7.9689    2.9253 C   0  0  0  0  0  0  0  0  0  0  0  0
    0.4134   -7.8342    1.9768 O   0  0  0  0  0  0  0  0  0  0  0  0
    2.1885   -7.0248    3.4700 C   0  0  1  0  0  0  0  0  0  0  0  0
    2.7021   -5.6769    2.9482 C   0  0  2  0  0  0  0  0  0  0  0  0
    1.8400   -4.6050    2.2453 C   0  0  0  0  0  0  0  0  0  0  0  0
    2.2717   -3.1259    2.6030 C   0  0  0  0  0  0  0  0  0  0  0  0
    3.8007   -2.9367    2.8070 C   0  0  1  0  0  0  0  0  0  0  0  0
    5.2948   -2.1305    0.8000 C   0  0  1  0  0  0  0  0  0  0  0  0
    4.1963   -2.0326   -0.1767 C   0  0  1  0  0  0  0  0  0  0  0  0
    6.1359   -0.3089    2.7078 H   0  0  0  0  0  0  0  0  0  0  0  0
    6.3016   -1.9800    3.1355 H   0  0  0  0  0  0  0  0  0  0  0  0
    5.2272   -0.9377    4.0820 H   0  0  0  0  0  0  0  0  0  0  0  0
    2.8107   -0.4128    2.5789 H   0  0  0  0  0  0  0  0  0  0  0  0
    4.1862    0.4526    2.0192 H   0  0  0  0  0  0  0  0  0  0  0  0
    4.8932    0.0060   -0.3148 H   0  0  0  0  0  0  0  0  0  0  0  0
    4.6493   -1.9340   -3.3143 H   0  0  0  0  0  0  0  0  0  0  0  0
    5.8202   -1.1511   -2.2415 H   0  0  0  0  0  0  0  0  0  0  0  0
    3.1172   -3.4363   -1.8971 H   0  0  0  0  0  0  0  0  0  0  0  0
    6.6939   -3.1350   -0.4644 H   0  0  0  0  0  0  0  0  0  0  0  0
    5.8103   -5.4037   -0.7113 H   0  0  0  0  0  0  0  0  0  0  0  0
    6.5543   -5.1969    0.7873 H   0  0  0  0  0  0  0  0  0  0  0  0
    3.5550   -5.0048    0.3198 H   0  0  0  0  0  0  0  0  0  0  0  0
    4.2748   -6.5359    0.3329 H   0  0  0  0  0  0  0  0  0  0  0  0
    4.5397   -6.7806    2.4409 H   0  0  0  0  0  0  0  0  0  0  0  0
    5.6617   -5.6841    3.9517 H   0  0  0  0  0  0  0  0  0  0  0  0
    6.0567   -4.5779    2.6895 H   0  0  0  0  0  0  0  0  0  0  0  0
    5.2903   -3.2600    4.4650 H   0  0  0  0  0  0  0  0  0  0  0  0
    4.3625   -5.1957    5.6489 H   0  0  0  0  0  0  0  0  0  0  0  0
    3.3517   -3.7880    5.7734 H   0  0  0  0  0  0  0  0  0  0  0  0
    1.7737   -4.6197    4.5591 H   0  0  0  0  0  0  0  0  0  0  0  0
   -0.2077   -7.2511    5.3412 H   0  0  0  0  0  0  0  0  0  0  0  0
   -0.1338   -5.7440    4.4950 H   0  0  0  0  0  0  0  0  0  0  0  0
    0.2829   -5.7998    6.1882 H   0  0  0  0  0  0  0  0  0  0  0  0
    3.4632   -7.8209    5.5438 H   0  0  0  0  0  0  0  0  0  0  0  0
    1.3701   -7.4320    7.3388 H   0  0  0  0  0  0  0  0  0  0  0  0
    2.3830   -9.8845    5.5432 H   0  0  0  0  0  0  0  0  0  0  0  0
    0.8547   -9.2305    5.9994 H   0  0  0  0  0  0  0  0  0  0  0  0
    1.6980  -10.0139    3.3465 H   0  0  0  0  0  0  0  0  0  0  0  0
    0.1106   -9.5830    3.8967 H   0  0  0  0  0  0  0  0  0  0  0  0
    3.0933   -7.6171    3.5318 H   0  0  0  0  0  0  0  0  0  0  0  0
    1.7921   -4.7507    1.1726 H   0  0  0  0  0  0  0  0  0  0  0  0
    0.8085   -4.7175    2.5561 H   0  0  0  0  0  0  0  0  0  0  0  0
    1.9001   -2.4879    1.8012 H   0  0  0  0  0  0  0  0  0  0  0  0
    1.7417   -2.7636    3.4896 H   0  0  0  0  0  0  0  0  0  0  0  0
    3.9831   -3.5094    1.9397 H   0  0  0  0  0  0  0  0  0  0  0  0
    6.1042   -1.4441    0.5929 H   0  0  0  0  0  0  0  0  0  0  0  0
    3.2948   -2.5550    0.0844 H   0  0  0  0  0  0  0  0  0  0  0  0
  2  1  1  1
  1 33  1  0
  1 34  1  0
  1 35  1  0
  2 30  1  0
  2 31  1  0
  2  3  1  0
  3  4  1  0
  3 36  1  0
  3 37  1  0
  4  5  1  0
  5 32  1  0
  5  6  1  0
  5 38  1  6
  6  7  1  0
  7  8  1  0
  7 39  1  0
  7 40  1  0
  8 32  1  0
  8  9  1  6
  8 10  1  0
  9 41  1  0
 10 11  1  0
 10 31  1  0
 10 42  1  6
 11 12  1  0
 11 43  1  0
 11 44  1  0
 12 13  1  0
 12 45  1  0
 12 46  1  0
 13 27  1  0
 13 14  1  0
 13 47  1  6
 14 15  1  0
 14 48  1  0
 14 49  1  0
 15 30  1  0
 15 16  1  0
 15 50  1  1
 16 17  1  0
 16 51  1  0
 16 52  1  0
 17 27  1  0
 17 18  1  0
 17 53  1  6
 18 26  1  0
 18 19  1  6
 18 20  1  0
 19 54  1  0
 19 55  1  0
 19 56  1  0
 20 21  1  0
 20 22  1  0
 20 57  1  6
 21 58  1  0
 22 23  1  0
 22 59  1  0
 22 60  1  0
 23 24  1  0
 23 61  1  0
 23 62  1  0
 24 25  2  0
 24 26  1  0
 26 27  1  0
 26 63  1  1
 27 28  1  6
 28 29  1  0
 28 64  1  0
 28 65  1  0
 29 30  1  0
 29 66  1  0
 29 67  1  0
 30 68  1  6
 31 32  1  0
 31 69  1  6
 32 70  1  1
M  END
>  <i_m_ct_stereo_status>  (139) 
1

>  <s_m_source_file>  (139) 
/var/tmp/pbs.5076255.sched01/tmpp9awzhar/40nweoahkg.sdf

>  <i_m_source_file_index>  (139) 
12

>  <i_lp_mmshare_version>  (139) 
48012

>  <i_f3d_flags>  (139) 
0

>  <s_epik_input>  (139) 
W0NAQF0xMjNbQ0BIXTRbQ0gyXVtDSDJdW0NASF01W0NAQF02KFtPSF0pW0NAQEhdN1tDQEBIXShPW0NIMl02KU9bQ0gyXVtDQF0oW0NIM10pKFtDQEBIXTU3KVtDSF0oW0NIMl1bQ0gyXTMpW0NASF0oW0NIMl00KVtDSDJdW0NAQEhdMVtDQEBdOChbQ0gzXSlbQ0BIXTJDKD1PKVtDSDJdW0NIMl1bQ0BASF04W09IXQ==

>  <s_epik_cmdline>  (139) 
J2VwaWtfcHl0aG9uJywgJy1waHQnLCAnMi4wJywgJy1waCcsICc3LjAnLCAnLXRuJywgJzgnLCAnLW1hJywgJzIwMCcsICctaW1hZScsICc8aW5maWxlLm1hZT4nLCAnLW9tYWUnLCAnPG91dGZpbGUubWFlPic=

>  <r_lp_tautomer_probability>  (139) 
1

>  <r_epik_Ionization_Penalty>  (139) 
1.07147e-06

>  <r_epik_Ionization_Penalty_Charging>  (139) 
0

>  <r_epik_Ionization_Penalty_Neutral>  (139) 
1.07147e-06

>  <r_epik_State_Penalty>  (139) 
-0

>  <r_epik_Charging_Adjusted_Penalty>  (139) 
0

>  <i_epik_Tot_Q>  (139) 
0

>  <i_epik_Tot_abs_Q>  (139) 
0

>  <s_epik_Chemistry_Notes>  (139) 
This compound contains an acetal/aminal-like group ( X-CH(R)-Y where X, Y are N, S, or O) that may be acid/base labile, releasing an aldehyde.

>  <s_lp_Force_Field>  (139) 
OPLS3e

>  <r_lp_Energy>  (139) 
230.504

>  <b_lp_Chiralities_Consistent>  (139) 
1

>  <s_lp_Variant>  (139) 
37:0-1

>  <s_i_glide_gridfile>  (139) 
pfpi4k_grid

>  <i_i_glide_lignum>  (139) 
12

>  <i_i_glide_rotatable_bonds>  (139) 
2

>  <r_i_docking_score>  (139) 
-1.40046

>  <r_i_glide_ligand_efficiency>  (139) 
-0.0437644

>  <r_i_glide_ligand_efficiency_sa>  (139) 
-0.138943

>  <r_i_glide_ligand_efficiency_ln>  (139) 
-0.313601

>  <r_i_glide_gscore>  (139) 
-1.40046

>  <r_i_glide_lipo>  (139) 
-0.400806

>  <r_i_glide_hbond>  (139) 
0

>  <r_i_glide_metal>  (139) 
-0

>  <r_i_glide_rewards>  (139) 
-0.391448

>  <r_i_glide_evdw>  (139) 
-16.8161

>  <r_i_glide_ecoul>  (139) 
1.85567

>  <r_i_glide_erotb>  (139) 
0

>  <r_i_glide_esite>  (139) 
-0.0457512

>  <r_i_glide_emodel>  (139) 
-16.9657

>  <r_i_glide_energy>  (139) 
-14.9605

>  <r_i_glide_einternal>  (139) 
0.441913

>  <r_i_glide_intrahb_reward>  (139) 
-0

>  <i_i_glide_confnum>  (139) 
1

>  <i_i_glide_posenum>  (139) 
40

>  <r_i_glide_eff_state_penalty>  (139) 
0

>  <ligand_id>  (139) 
37

>  <original_smiles>  (139) 
CC12COC3OCC4(O)C(CCC5CC6CC7C8(C)C(O)CCC(=O)C8C57CCC61)C2C34

>  <smiles>  (139) 
[H]OC1([H])C([H])([H])C([H])([H])C(=O)C2([H])C1(C([H])([H])[H])C1([H])C([H])([H])C3([H])C([H])([H])C4([H])C([H])([H])C([H])([H])C5([H])C6([H])C7([H])C([H])(OC([H])([H])C75O[H])OC([H])([H])C6(C([H])([H])[H])C3([H])C([H])([H])C([H])([H])C241

$$$$
39:0:0
     RDKit          3D

 95100  0  0  1  0  0  0  0  0999 V2000
    5.3722    0.0593    4.4302 C   0  0  0  0  0  0  0  0  0  0  0  0
    4.1466   -0.6540    3.8196 C   0  0  1  0  0  0  0  0  0  0  0  0
    3.4083   -1.3911    4.9776 C   0  0  0  0  0  0  0  0  0  0  0  0
    2.5490   -0.4960    5.8932 C   0  0  0  0  0  0  0  0  0  0  0  0
    1.5603    0.4211    5.1158 C   0  0  1  0  0  0  0  0  0  0  0  0
    0.6269   -0.5784    4.3462 C   0  0  0  0  0  0  0  0  0  0  0  0
    0.6356    1.2048    6.1183 C   0  0  1  0  0  0  0  0  0  0  0  0
    1.3138    1.9989    7.2675 C   0  0  0  0  0  0  0  0  0  0  0  0
    0.2842    2.5098    8.2857 C   0  0  0  0  0  0  0  0  0  0  0  0
   -0.8128    3.3691    7.6430 C   0  0  1  0  0  0  0  0  0  0  0  0
   -0.2955    4.6566    7.3776 O   0  0  0  0  0  0  0  0  0  0  0  0
   -1.4391    2.7118    6.3772 C   0  0  0  0  0  0  0  0  0  0  0  0
   -2.3592    1.5919    6.9013 C   0  0  0  0  0  0  0  0  0  0  0  0
   -2.3592    3.6901    5.6315 C   0  0  0  0  0  0  0  0  0  0  0  0
   -0.4006    2.0888    5.3832 C   0  0  1  0  0  0  0  0  0  0  0  0
    0.2414    3.0057    4.3042 C   0  0  1  0  0  0  0  0  0  0  0  0
    0.7794    4.1838    4.8710 O   0  0  0  0  0  0  0  0  0  0  0  0
    1.2640    2.2591    3.3807 C   0  0  1  0  0  0  0  0  0  0  0  0
    1.8170    3.2322    2.5033 O   0  0  0  0  0  0  0  0  0  0  0  0
    2.3527    1.3475    4.1083 C   0  0  1  0  0  0  0  0  0  0  0  0
    3.3604    2.3215    4.7779 C   0  0  0  0  0  0  0  0  0  0  0  0
    3.1495    0.3803    3.1670 C   0  0  0  0  0  0  0  0  0  0  0  0
    2.9060    0.3273    1.8410 C   0  0  0  0  0  0  0  0  0  0  0  0
    3.4931   -0.6647    0.8765 C   0  0  0  0  0  0  0  0  0  0  0  0
    3.8972   -1.9966    1.5351 C   0  0  2  0  0  0  0  0  0  0  0  0
    4.7518   -1.6931    2.7834 C   0  0  2  0  0  0  0  0  0  0  0  0
    5.2130   -3.0299    3.4372 C   0  0  0  0  0  0  0  0  0  0  0  0
    5.8029   -4.0706    2.4644 C   0  0  1  0  0  0  0  0  0  0  0  0
    6.2011   -5.2080    3.1937 O   0  0  0  0  0  0  0  0  0  0  0  0
    4.9063   -4.3913    1.2403 C   0  0  1  0  0  0  0  0  0  0  0  0
    3.7354   -5.4492    1.4587 C   0  0  0  0  0  0  0  0  0  0  0  0
    4.3293   -6.8900    1.4852 C   0  0  0  0  0  0  0  0  0  0  0  0
    2.9318   -5.2660    2.7665 C   0  0  0  0  0  0  0  0  0  0  0  0
    2.7808   -5.4548    0.2341 C   0  0  1  0  0  0  0  0  0  0  0  0
    1.5629   -6.1473    0.4660 O   0  0  0  0  0  0  0  0  0  0  0  0
    2.4194   -4.0846   -0.2962 C   0  0  0  0  0  0  0  0  0  0  0  0
    3.6535   -3.3241   -0.6978 C   0  0  0  0  0  0  0  0  0  0  0  0
    4.5536   -3.0279    0.5257 C   0  0  1  0  0  0  0  0  0  0  0  0
    5.8348   -2.4249   -0.1099 C   0  0  0  0  0  0  0  0  0  0  0  0
    6.1704   -0.6489    4.6326 H   0  0  0  0  0  0  0  0  0  0  0  0
    5.1885    0.5177    5.3925 H   0  0  0  0  0  0  0  0  0  0  0  0
    5.7792    0.8083    3.7574 H   0  0  0  0  0  0  0  0  0  0  0  0
    2.7920   -2.1905    4.5671 H   0  0  0  0  0  0  0  0  0  0  0  0
    4.1465   -1.8921    5.6167 H   0  0  0  0  0  0  0  0  0  0  0  0
    1.9985   -1.1352    6.5895 H   0  0  0  0  0  0  0  0  0  0  0  0
    3.2232    0.0800    6.5206 H   0  0  0  0  0  0  0  0  0  0  0  0
   -0.1418   -0.1021    3.7446 H   0  0  0  0  0  0  0  0  0  0  0  0
    0.1131   -1.2517    5.0394 H   0  0  0  0  0  0  0  0  0  0  0  0
    1.1537   -1.2149    3.6355 H   0  0  0  0  0  0  0  0  0  0  0  0
    0.0846    0.4124    6.6329 H   0  0  0  0  0  0  0  0  0  0  0  0
    2.0308    1.3842    7.8050 H   0  0  0  0  0  0  0  0  0  0  0  0
    1.8523    2.8593    6.8877 H   0  0  0  0  0  0  0  0  0  0  0  0
   -0.1771    1.6586    8.7850 H   0  0  0  0  0  0  0  0  0  0  0  0
    0.7763    3.0786    9.0711 H   0  0  0  0  0  0  0  0  0  0  0  0
   -1.6047    3.5158    8.3845 H   0  0  0  0  0  0  0  0  0  0  0  0
    0.3298    4.5723    6.6626 H   0  0  0  0  0  0  0  0  0  0  0  0
   -2.7615    1.0198    6.0892 H   0  0  0  0  0  0  0  0  0  0  0  0
   -3.1939    2.0093    7.4796 H   0  0  0  0  0  0  0  0  0  0  0  0
   -1.8357    0.8925    7.5480 H   0  0  0  0  0  0  0  0  0  0  0  0
   -2.8636    3.1909    4.7907 H   0  0  0  0  0  0  0  0  0  0  0  0
   -1.8171    4.5406    5.2499 H   0  0  0  0  0  0  0  0  0  0  0  0
   -3.1297    4.0392    6.3048 H   0  0  0  0  0  0  0  0  0  0  0  0
   -1.0232    1.4324    4.7802 H   0  0  0  0  0  0  0  0  0  0  0  0
   -0.5553    3.3589    3.6446 H   0  0  0  0  0  0  0  0  0  0  0  0
    1.1717    4.6631    4.1548 H   0  0  0  0  0  0  0  0  0  0  0  0
    0.6622    1.6231    2.7408 H   0  0  0  0  0  0  0  0  0  0  0  0
    1.1539    3.5828    1.8979 H   0  0  0  0  0  0  0  0  0  0  0  0
    2.9695    3.2975    5.0021 H   0  0  0  0  0  0  0  0  0  0  0  0
    4.1966    2.5167    4.1140 H   0  0  0  0  0  0  0  0  0  0  0  0
    3.7523    1.9797    5.7235 H   0  0  0  0  0  0  0  0  0  0  0  0
    2.2204    1.0108    1.3597 H   0  0  0  0  0  0  0  0  0  0  0  0
    2.7270   -0.8855    0.1519 H   0  0  0  0  0  0  0  0  0  0  0  0
    4.3189   -0.1814    0.3523 H   0  0  0  0  0  0  0  0  0  0  0  0
    2.9817   -2.4241    1.9374 H   0  0  0  0  0  0  0  0  0  0  0  0
    5.6521   -1.2145    2.4005 H   0  0  0  0  0  0  0  0  0  0  0  0
    5.9740   -2.8193    4.1787 H   0  0  0  0  0  0  0  0  0  0  0  0
    4.4219   -3.4967    4.0036 H   0  0  0  0  0  0  0  0  0  0  0  0
    6.7363   -3.6779    2.0583 H   0  0  0  0  0  0  0  0  0  0  0  0
    6.6632   -5.7903    2.6021 H   0  0  0  0  0  0  0  0  0  0  0  0
    5.5561   -4.9012    0.5268 H   0  0  0  0  0  0  0  0  0  0  0  0
    3.5489   -7.6592    1.4517 H   0  0  0  0  0  0  0  0  0  0  0  0
    4.9077   -7.1052    2.3894 H   0  0  0  0  0  0  0  0  0  0  0  0
    4.9866   -7.0718    0.6231 H   0  0  0  0  0  0  0  0  0  0  0  0
    2.1781   -6.0389    2.8931 H   0  0  0  0  0  0  0  0  0  0  0  0
    2.4250   -4.3089    2.8050 H   0  0  0  0  0  0  0  0  0  0  0  0
    3.5709   -5.3773    3.6391 H   0  0  0  0  0  0  0  0  0  0  0  0
    3.3187   -5.9953   -0.5403 H   0  0  0  0  0  0  0  0  0  0  0  0
    1.7742   -7.0427    0.6839 H   0  0  0  0  0  0  0  0  0  0  0  0
    1.7613   -4.1925   -1.1496 H   0  0  0  0  0  0  0  0  0  0  0  0
    1.8863   -3.5180    0.4552 H   0  0  0  0  0  0  0  0  0  0  0  0
    4.2026   -3.9127   -1.4394 H   0  0  0  0  0  0  0  0  0  0  0  0
    3.3633   -2.4152   -1.2201 H   0  0  0  0  0  0  0  0  0  0  0  0
    6.3443   -3.1584   -0.7370 H   0  0  0  0  0  0  0  0  0  0  0  0
    6.5650   -2.0710    0.6149 H   0  0  0  0  0  0  0  0  0  0  0  0
    5.6066   -1.5815   -0.7597 H   0  0  0  0  0  0  0  0  0  0  0  0
  2  1  1  1
  1 40  1  0
  1 41  1  0
  1 42  1  0
  2 22  1  0
  2 26  1  0
  2  3  1  0
  3  4  1  0
  3 43  1  0
  3 44  1  0
  4  5  1  0
  4 45  1  0
  4 46  1  0
  5 20  1  0
  5  6  1  6
  5  7  1  0
  6 47  1  0
  6 48  1  0
  6 49  1  0
  7 15  1  0
  7  8  1  0
  7 50  1  1
  8  9  1  0
  8 51  1  0
  8 52  1  0
  9 10  1  0
  9 53  1  0
  9 54  1  0
 10 11  1  0
 10 12  1  0
 10 55  1  1
 11 56  1  0
 12 13  1  0
 12 14  1  0
 12 15  1  0
 13 57  1  0
 13 58  1  0
 13 59  1  0
 14 60  1  0
 14 61  1  0
 14 62  1  0
 15 16  1  0
 15 63  1  6
 16 17  1  0
 16 18  1  0
 16 64  1  6
 17 65  1  0
 18 19  1  0
 18 20  1  0
 18 66  1  6
 19 67  1  0
 20 21  1  1
 20 22  1  0
 21 68  1  0
 21 69  1  0
 21 70  1  0
 22 23  2  0
 23 24  1  0
 23 71  1  0
 24 25  1  0
 24 72  1  0
 24 73  1  0
 25 38  1  0
 25 26  1  0
 25 74  1  1
 26 27  1  0
 26 75  1  6
 27 28  1  0
 27 76  1  0
 27 77  1  0
 28 29  1  0
 28 30  1  0
 28 78  1  6
 29 79  1  0
 30 38  1  0
 30 31  1  0
 30 80  1  6
 31 32  1  0
 31 33  1  0
 31 34  1  0
 32 81  1  0
 32 82  1  0
 32 83  1  0
 33 84  1  0
 33 85  1  0
 33 86  1  0
 34 35  1  0
 34 36  1  0
 34 87  1  6
 35 88  1  0
 36 37  1  0
 36 89  1  0
 36 90  1  0
 37 38  1  0
 37 91  1  0
 37 92  1  0
 38 39  1  6
 39 93  1  0
 39 94  1  0
 39 95  1  0
M  END
>  <i_m_ct_stereo_status>  (140) 
1

>  <s_m_source_file>  (140) 
/var/tmp/pbs.5076255.sched01/tmpp9awzhar/40nweoahkg.sdf

>  <i_m_source_file_index>  (140) 
15

>  <i_lp_mmshare_version>  (140) 
48012

>  <i_f3d_flags>  (140) 
0

>  <s_epik_input>  (140) 
W0NIMl0xW0NIMl1bQ0BASF0oW09IXSlDKFtDSDNdKShbQ0gzXSlbQ0BASF0oW0NAQEhdKFtPSF0pW0NASF0yW09IXSlbQ0BIXTFbQ0BdKFtDSDNdKShbQ0gyXVtDSDJdMylbQ0BAXTIoW0NIM10pQyhbQ0BAXTM0W0NIM10pPVtDSF1bQ0gyXVtDQEBIXTVbQ0BASF00W0NIMl1bQ0BASF0oW09IXSlbQ0BASF02W0NAQF01KFtDSDNdKVtDSDJdW0NIMl1bQ0BIXShbT0hdKUM2KFtDSDNdKVtDSDNd

>  <s_epik_cmdline>  (140) 
J2VwaWtfcHl0aG9uJywgJy1waHQnLCAnMi4wJywgJy1waCcsICc3LjAnLCAnLXRuJywgJzgnLCAnLW1hJywgJzIwMCcsICctaW1hZScsICc8aW5maWxlLm1hZT4nLCAnLW9tYWUnLCAnPG91dGZpbGUubWFlPic=

>  <r_lp_tautomer_probability>  (140) 
1

>  <r_epik_Ionization_Penalty>  (140) 
7.47259e-06

>  <r_epik_Ionization_Penalty_Charging>  (140) 
0

>  <r_epik_Ionization_Penalty_Neutral>  (140) 
7.47259e-06

>  <r_epik_State_Penalty>  (140) 
-0

>  <r_epik_Charging_Adjusted_Penalty>  (140) 
0

>  <i_epik_Tot_Q>  (140) 
0

>  <i_epik_Tot_abs_Q>  (140) 
0

>  <s_lp_Force_Field>  (140) 
OPLS3e

>  <r_lp_Energy>  (140) 
108.547

>  <b_lp_Chiralities_Consistent>  (140) 
1

>  <s_lp_Variant>  (140) 
39:0-1

>  <s_i_glide_gridfile>  (140) 
pfpi4k_grid

>  <i_i_glide_lignum>  (140) 
15

>  <i_i_glide_rotatable_bonds>  (140) 
5

>  <r_i_docking_score>  (140) 
-3.51146

>  <r_i_glide_ligand_efficiency>  (140) 
-0.0900373

>  <r_i_glide_ligand_efficiency_sa>  (140) 
-0.305336

>  <r_i_glide_ligand_efficiency_ln>  (140) 
-0.752956

>  <r_i_glide_gscore>  (140) 
-3.51146

>  <r_i_glide_lipo>  (140) 
-0.505945

>  <r_i_glide_hbond>  (140) 
-0.0804805

>  <r_i_glide_metal>  (140) 
-0

>  <r_i_glide_rewards>  (140) 
-0.5

>  <r_i_glide_evdw>  (140) 
-26.2041

>  <r_i_glide_ecoul>  (140) 
-7.43218

>  <r_i_glide_erotb>  (140) 
0

>  <r_i_glide_esite>  (140) 
0

>  <r_i_glide_emodel>  (140) 
-45.711

>  <r_i_glide_energy>  (140) 
-33.6362

>  <r_i_glide_einternal>  (140) 
1.38798

>  <r_i_glide_intrahb_reward>  (140) 
-0.5

>  <i_i_glide_confnum>  (140) 
2

>  <i_i_glide_posenum>  (140) 
21

>  <r_i_glide_eff_state_penalty>  (140) 
0

>  <ligand_id>  (140) 
39

>  <original_smiles>  (140) 
CC12CCC3(C)C4CCC(O)C(C)(C)C4C(O)C(O)C3(C)C1=CCC1C2CC(O)C2C(C)(C)C(O)CCC12C

>  <smiles>  (140) 
[H]OC1([H])C([H])(O[H])C2(C([H])([H])[H])C3=C([H])C([H])([H])C4([H])C([H])(C([H])([H])C([H])(O[H])C5([H])C(C([H])([H])[H])(C([H])([H])[H])C([H])(O[H])C([H])([H])C([H])([H])C45C([H])([H])[H])C3(C([H])([H])[H])C([H])([H])C([H])([H])C2(C([H])([H])[H])C2([H])C([H])([H])C([H])([H])C([H])(O[H])C(C([H])([H])[H])(C([H])([H])[H])C12[H]

$$$$
39:0:1
     RDKit          3D

 95100  0  0  1  0  0  0  0  0999 V2000
    5.3683    0.0304    4.4499 C   0  0  0  0  0  0  0  0  0  0  0  0
    4.1376   -0.6841    3.8388 C   0  0  1  0  0  0  0  0  0  0  0  0
    3.3969   -1.4197    4.9937 C   0  0  0  0  0  0  0  0  0  0  0  0
    2.5366   -0.5188    5.9063 C   0  0  0  0  0  0  0  0  0  0  0  0
    1.5512    0.3996    5.1267 C   0  0  1  0  0  0  0  0  0  0  0  0
    0.6154   -0.5945    4.3516 C   0  0  0  0  0  0  0  0  0  0  0  0
    0.6287    1.1925    6.1220 C   0  0  1  0  0  0  0  0  0  0  0  0
    1.3030    1.9864    7.2721 C   0  0  0  0  0  0  0  0  0  0  0  0
    0.2758    2.5017    8.2898 C   0  0  0  0  0  0  0  0  0  0  0  0
   -0.8261    3.3671    7.6518 C   0  0  1  0  0  0  0  0  0  0  0  0
   -0.3601    4.6808    7.4371 O   0  0  0  0  0  0  0  0  0  0  0  0
   -1.4461    2.7106    6.3794 C   0  0  0  0  0  0  0  0  0  0  0  0
   -2.3766    1.5993    6.9032 C   0  0  0  0  0  0  0  0  0  0  0  0
   -2.3606    3.6865    5.6309 C   0  0  0  0  0  0  0  0  0  0  0  0
   -0.4032    2.0849    5.3879 C   0  0  1  0  0  0  0  0  0  0  0  0
    0.2485    2.9883    4.2991 C   0  0  1  0  0  0  0  0  0  0  0  0
    0.8016    4.1677    4.8405 O   0  0  0  0  0  0  0  0  0  0  0  0
    1.2701    2.2361    3.3854 C   0  0  1  0  0  0  0  0  0  0  0  0
    1.8381    3.1979    2.5007 O   0  0  0  0  0  0  0  0  0  0  0  0
    2.3486    1.3236    4.1204 C   0  0  1  0  0  0  0  0  0  0  0  0
    3.3639    2.2916    4.7952 C   0  0  0  0  0  0  0  0  0  0  0  0
    3.1496    0.3487    3.1836 C   0  0  0  0  0  0  0  0  0  0  0  0
    2.9027    0.3002    1.8591 C   0  0  0  0  0  0  0  0  0  0  0  0
    3.4628   -0.7079    0.8936 C   0  0  0  0  0  0  0  0  0  0  0  0
    3.8845   -2.0331    1.5574 C   0  0  2  0  0  0  0  0  0  0  0  0
    4.7476   -1.7276    2.8016 C   0  0  2  0  0  0  0  0  0  0  0  0
    5.2180   -3.0613    3.4518 C   0  0  0  0  0  0  0  0  0  0  0  0
    5.7967   -4.1079    2.4730 C   0  0  1  0  0  0  0  0  0  0  0  0
    6.2111   -5.2479    3.1853 O   0  0  0  0  0  0  0  0  0  0  0  0
    4.8896   -4.4264    1.2582 C   0  0  1  0  0  0  0  0  0  0  0  0
    3.7135   -5.4788    1.4786 C   0  0  0  0  0  0  0  0  0  0  0  0
    4.3054   -6.9219    1.5061 C   0  0  0  0  0  0  0  0  0  0  0  0
    2.9079   -5.2895    2.7855 C   0  0  0  0  0  0  0  0  0  0  0  0
    2.7584   -5.4800    0.2559 C   0  0  1  0  0  0  0  0  0  0  0  0
    1.5353   -6.1513    0.4915 O   0  0  0  0  0  0  0  0  0  0  0  0
    2.3989   -4.1093   -0.2826 C   0  0  0  0  0  0  0  0  0  0  0  0
    3.6420   -3.3548   -0.6782 C   0  0  0  0  0  0  0  0  0  0  0  0
    4.5405   -3.0638    0.5437 C   0  0  1  0  0  0  0  0  0  0  0  0
    5.8287   -2.4652   -0.0873 C   0  0  0  0  0  0  0  0  0  0  0  0
    6.1777   -0.6600    4.6533 H   0  0  0  0  0  0  0  0  0  0  0  0
    5.1816    0.4844    5.4143 H   0  0  0  0  0  0  0  0  0  0  0  0
    5.7730    0.7826    3.7766 H   0  0  0  0  0  0  0  0  0  0  0  0
    2.7718   -2.2122    4.5854 H   0  0  0  0  0  0  0  0  0  0  0  0
    4.1229   -1.9270    5.6354 H   0  0  0  0  0  0  0  0  0  0  0  0
    1.9830   -1.1518    6.6050 H   0  0  0  0  0  0  0  0  0  0  0  0
    3.2110    0.0571    6.5338 H   0  0  0  0  0  0  0  0  0  0  0  0
   -0.1487   -0.1150    3.7473 H   0  0  0  0  0  0  0  0  0  0  0  0
    0.0941   -1.2650    5.0409 H   0  0  0  0  0  0  0  0  0  0  0  0
    1.1394   -1.2340    3.6419 H   0  0  0  0  0  0  0  0  0  0  0  0
    0.0719    0.4078    6.6370 H   0  0  0  0  0  0  0  0  0  0  0  0
    2.0193    1.3685    7.8125 H   0  0  0  0  0  0  0  0  0  0  0  0
    1.8434    2.8462    6.8922 H   0  0  0  0  0  0  0  0  0  0  0  0
   -0.1849    1.6488    8.7861 H   0  0  0  0  0  0  0  0  0  0  0  0
    0.7723    3.0613    9.0789 H   0  0  0  0  0  0  0  0  0  0  0  0
   -1.6192    3.4864    8.3914 H   0  0  0  0  0  0  0  0  0  0  0  0
    0.0023    5.0030    8.2456 H   0  0  0  0  0  0  0  0  0  0  0  0
   -2.7927    1.0258    6.0791 H   0  0  0  0  0  0  0  0  0  0  0  0
   -3.2041    2.0110    7.4907 H   0  0  0  0  0  0  0  0  0  0  0  0
   -1.8559    0.8901    7.5422 H   0  0  0  0  0  0  0  0  0  0  0  0
   -2.8622    3.2215    4.7796 H   0  0  0  0  0  0  0  0  0  0  0  0
   -1.7930    4.5373    5.2587 H   0  0  0  0  0  0  0  0  0  0  0  0
   -3.1259    4.0698    6.3015 H   0  0  0  0  0  0  0  0  0  0  0  0
   -1.0281    1.4283    4.7872 H   0  0  0  0  0  0  0  0  0  0  0  0
   -0.5442    3.3472    3.6391 H   0  0  0  0  0  0  0  0  0  0  0  0
    1.1688    4.6617    4.1219 H   0  0  0  0  0  0  0  0  0  0  0  0
    0.6673    1.5996    2.7453 H   0  0  0  0  0  0  0  0  0  0  0  0
    1.1735    3.5646    1.9125 H   0  0  0  0  0  0  0  0  0  0  0  0
    2.9792    3.2730    5.0158 H   0  0  0  0  0  0  0  0  0  0  0  0
    4.1990    2.4845    4.1272 H   0  0  0  0  0  0  0  0  0  0  0  0
    3.7557    1.9493    5.7436 H   0  0  0  0  0  0  0  0  0  0  0  0
    2.2253    0.9889    1.3757 H   0  0  0  0  0  0  0  0  0  0  0  0
    2.6493   -0.9198    0.1964 H   0  0  0  0  0  0  0  0  0  0  0  0
    4.2694   -0.2343    0.3394 H   0  0  0  0  0  0  0  0  0  0  0  0
    2.9685   -2.4626    1.9551 H   0  0  0  0  0  0  0  0  0  0  0  0
    5.6419   -1.2438    2.4093 H   0  0  0  0  0  0  0  0  0  0  0  0
    5.9739   -2.8426    4.1973 H   0  0  0  0  0  0  0  0  0  0  0  0
    4.4232   -3.5224    4.0194 H   0  0  0  0  0  0  0  0  0  0  0  0
    6.7295   -3.7213    2.0610 H   0  0  0  0  0  0  0  0  0  0  0  0
    5.4405   -5.6487    3.5701 H   0  0  0  0  0  0  0  0  0  0  0  0
    5.5424   -4.9404    0.5519 H   0  0  0  0  0  0  0  0  0  0  0  0
    3.5258   -7.6889    1.4682 H   0  0  0  0  0  0  0  0  0  0  0  0
    4.8913   -7.1402    2.4024 H   0  0  0  0  0  0  0  0  0  0  0  0
    4.9596   -7.1056    0.6430 H   0  0  0  0  0  0  0  0  0  0  0  0
    2.1455   -6.0555    2.9056 H   0  0  0  0  0  0  0  0  0  0  0  0
    2.4005   -4.3309    2.8143 H   0  0  0  0  0  0  0  0  0  0  0  0
    3.5337   -5.3947    3.6664 H   0  0  0  0  0  0  0  0  0  0  0  0
    3.2856   -6.0227   -0.5216 H   0  0  0  0  0  0  0  0  0  0  0  0
    1.7384   -7.0583    0.6923 H   0  0  0  0  0  0  0  0  0  0  0  0
    1.7480   -4.2184   -1.1446 H   0  0  0  0  0  0  0  0  0  0  0  0
    1.8547   -3.5409    0.4590 H   0  0  0  0  0  0  0  0  0  0  0  0
    4.1874   -3.9496   -1.4160 H   0  0  0  0  0  0  0  0  0  0  0  0
    3.3587   -2.4428   -1.2005 H   0  0  0  0  0  0  0  0  0  0  0  0
    6.3382   -3.2032   -0.7102 H   0  0  0  0  0  0  0  0  0  0  0  0
    6.5589   -2.1148    0.6390 H   0  0  0  0  0  0  0  0  0  0  0  0
    5.6070   -1.6207   -0.7385 H   0  0  0  0  0  0  0  0  0  0  0  0
  2  1  1  1
  1 40  1  0
  1 41  1  0
  1 42  1  0
  2 22  1  0
  2 26  1  0
  2  3  1  0
  3  4  1  0
  3 43  1  0
  3 44  1  0
  4  5  1  0
  4 45  1  0
  4 46  1  0
  5 20  1  0
  5  6  1  6
  5  7  1  0
  6 47  1  0
  6 48  1  0
  6 49  1  0
  7 15  1  0
  7  8  1  0
  7 50  1  1
  8  9  1  0
  8 51  1  0
  8 52  1  0
  9 10  1  0
  9 53  1  0
  9 54  1  0
 10 11  1  0
 10 12  1  0
 10 55  1  1
 11 56  1  0
 12 13  1  0
 12 14  1  0
 12 15  1  0
 13 57  1  0
 13 58  1  0
 13 59  1  0
 14 60  1  0
 14 61  1  0
 14 62  1  0
 15 16  1  0
 15 63  1  6
 16 17  1  0
 16 18  1  0
 16 64  1  6
 17 65  1  0
 18 19  1  0
 18 20  1  0
 18 66  1  6
 19 67  1  0
 20 21  1  1
 20 22  1  0
 21 68  1  0
 21 69  1  0
 21 70  1  0
 22 23  2  0
 23 24  1  0
 23 71  1  0
 24 25  1  0
 24 72  1  0
 24 73  1  0
 25 38  1  0
 25 26  1  0
 25 74  1  1
 26 27  1  0
 26 75  1  6
 27 28  1  0
 27 76  1  0
 27 77  1  0
 28 29  1  0
 28 30  1  0
 28 78  1  6
 29 79  1  0
 30 38  1  0
 30 31  1  0
 30 80  1  6
 31 32  1  0
 31 33  1  0
 31 34  1  0
 32 81  1  0
 32 82  1  0
 32 83  1  0
 33 84  1  0
 33 85  1  0
 33 86  1  0
 34 35  1  0
 34 36  1  0
 34 87  1  6
 35 88  1  0
 36 37  1  0
 36 89  1  0
 36 90  1  0
 37 38  1  0
 37 91  1  0
 37 92  1  0
 38 39  1  6
 39 93  1  0
 39 94  1  0
 39 95  1  0
M  END
>  <i_m_ct_stereo_status>  (141) 
1

>  <s_m_source_file>  (141) 
/var/tmp/pbs.5076255.sched01/tmpp9awzhar/40nweoahkg.sdf

>  <i_m_source_file_index>  (141) 
15

>  <i_lp_mmshare_version>  (141) 
48012

>  <i_f3d_flags>  (141) 
0

>  <s_epik_input>  (141) 
W0NIMl0xW0NIMl1bQ0BASF0oW09IXSlDKFtDSDNdKShbQ0gzXSlbQ0BASF0oW0NAQEhdKFtPSF0pW0NASF0yW09IXSlbQ0BIXTFbQ0BdKFtDSDNdKShbQ0gyXVtDSDJdMylbQ0BAXTIoW0NIM10pQyhbQ0BAXTM0W0NIM10pPVtDSF1bQ0gyXVtDQEBIXTVbQ0BASF00W0NIMl1bQ0BASF0oW09IXSlbQ0BASF02W0NAQF01KFtDSDNdKVtDSDJdW0NIMl1bQ0BIXShbT0hdKUM2KFtDSDNdKVtDSDNd

>  <s_epik_cmdline>  (141) 
J2VwaWtfcHl0aG9uJywgJy1waHQnLCAnMi4wJywgJy1waCcsICc3LjAnLCAnLXRuJywgJzgnLCAnLW1hJywgJzIwMCcsICctaW1hZScsICc8aW5maWxlLm1hZT4nLCAnLW9tYWUnLCAnPG91dGZpbGUubWFlPic=

>  <r_lp_tautomer_probability>  (141) 
1

>  <r_epik_Ionization_Penalty>  (141) 
7.47259e-06

>  <r_epik_Ionization_Penalty_Charging>  (141) 
0

>  <r_epik_Ionization_Penalty_Neutral>  (141) 
7.47259e-06

>  <r_epik_State_Penalty>  (141) 
-0

>  <r_epik_Charging_Adjusted_Penalty>  (141) 
0

>  <i_epik_Tot_Q>  (141) 
0

>  <i_epik_Tot_abs_Q>  (141) 
0

>  <s_lp_Force_Field>  (141) 
OPLS3e

>  <r_lp_Energy>  (141) 
108.547

>  <b_lp_Chiralities_Consistent>  (141) 
1

>  <s_lp_Variant>  (141) 
39:0-1

>  <s_i_glide_gridfile>  (141) 
pfpi4k_grid

>  <i_i_glide_lignum>  (141) 
15

>  <i_i_glide_rotatable_bonds>  (141) 
5

>  <r_i_docking_score>  (141) 
-2.99359

>  <r_i_glide_ligand_efficiency>  (141) 
-0.0767587

>  <r_i_glide_ligand_efficiency_sa>  (141) 
-0.260305

>  <r_i_glide_ligand_efficiency_ln>  (141) 
-0.64191

>  <r_i_glide_gscore>  (141) 
-2.99359

>  <r_i_glide_lipo>  (141) 
-0.502336

>  <r_i_glide_hbond>  (141) 
-0.0884819

>  <r_i_glide_metal>  (141) 
-0

>  <r_i_glide_rewards>  (141) 
0

>  <r_i_glide_evdw>  (141) 
-26.0459

>  <r_i_glide_ecoul>  (141) 
-7.33648

>  <r_i_glide_erotb>  (141) 
0

>  <r_i_glide_esite>  (141) 
0

>  <r_i_glide_emodel>  (141) 
-39.2927

>  <r_i_glide_energy>  (141) 
-33.3824

>  <r_i_glide_einternal>  (141) 
1.38027

>  <r_i_glide_intrahb_reward>  (141) 
-0

>  <i_i_glide_confnum>  (141) 
2

>  <i_i_glide_posenum>  (141) 
16

>  <r_i_glide_eff_state_penalty>  (141) 
0

>  <ligand_id>  (141) 
39

>  <original_smiles>  (141) 
CC12CCC3(C)C4CCC(O)C(C)(C)C4C(O)C(O)C3(C)C1=CCC1C2CC(O)C2C(C)(C)C(O)CCC12C

>  <smiles>  (141) 
[H]OC1([H])C([H])(O[H])C2(C([H])([H])[H])C3=C([H])C([H])([H])C4([H])C([H])(C([H])([H])C([H])(O[H])C5([H])C(C([H])([H])[H])(C([H])([H])[H])C([H])(O[H])C([H])([H])C([H])([H])C45C([H])([H])[H])C3(C([H])([H])[H])C([H])([H])C([H])([H])C2(C([H])([H])[H])C2([H])C([H])([H])C([H])([H])C([H])(O[H])C(C([H])([H])[H])(C([H])([H])[H])C12[H]

$$$$
39:0:2
     RDKit          3D

 95100  0  0  1  0  0  0  0  0999 V2000
    5.3676    0.0088    4.4835 C   0  0  0  0  0  0  0  0  0  0  0  0
    4.1351   -0.7113    3.8746 C   0  0  1  0  0  0  0  0  0  0  0  0
    3.3858   -1.4340    5.0348 C   0  0  0  0  0  0  0  0  0  0  0  0
    2.5214   -0.5262    5.9367 C   0  0  0  0  0  0  0  0  0  0  0  0
    1.5399    0.3864    5.1491 C   0  0  1  0  0  0  0  0  0  0  0  0
    0.6045   -0.6095    4.3773 C   0  0  0  0  0  0  0  0  0  0  0  0
    0.6176    1.1897    6.1367 C   0  0  1  0  0  0  0  0  0  0  0  0
    1.2862    1.9868    7.2848 C   0  0  0  0  0  0  0  0  0  0  0  0
    0.2543    2.5102    8.2931 C   0  0  0  0  0  0  0  0  0  0  0  0
   -0.8394    3.3723    7.6451 C   0  0  1  0  0  0  0  0  0  0  0  0
   -0.3460    4.6716    7.4112 O   0  0  0  0  0  0  0  0  0  0  0  0
   -1.4588    2.7135    6.3758 C   0  0  0  0  0  0  0  0  0  0  0  0
   -2.3935    1.6037    6.9011 C   0  0  0  0  0  0  0  0  0  0  0  0
   -2.3670    3.6925    5.6177 C   0  0  0  0  0  0  0  0  0  0  0  0
   -0.4094    2.0815    5.3895 C   0  0  1  0  0  0  0  0  0  0  0  0
    0.2484    2.9763    4.2950 C   0  0  1  0  0  0  0  0  0  0  0  0
    0.7906    4.1673    4.8240 O   0  0  0  0  0  0  0  0  0  0  0  0
    1.2726    2.2067    3.3951 C   0  0  1  0  0  0  0  0  0  0  0  0
    1.8576    3.1322    2.4895 O   0  0  0  0  0  0  0  0  0  0  0  0
    2.3487    1.3023    4.1416 C   0  0  1  0  0  0  0  0  0  0  0  0
    3.3617    2.2711    4.8117 C   0  0  0  0  0  0  0  0  0  0  0  0
    3.1494    0.3206    3.2116 C   0  0  0  0  0  0  0  0  0  0  0  0
    2.9037    0.2571    1.8875 C   0  0  0  0  0  0  0  0  0  0  0  0
    3.4581   -0.7564    0.9285 C   0  0  0  0  0  0  0  0  0  0  0  0
    3.8803   -2.0737    1.6047 C   0  0  2  0  0  0  0  0  0  0  0  0
    4.7435   -1.7611    2.8440 C   0  0  2  0  0  0  0  0  0  0  0  0
    5.2088   -3.0915    3.5032 C   0  0  0  0  0  0  0  0  0  0  0  0
    5.7805   -4.1465    2.5281 C   0  0  1  0  0  0  0  0  0  0  0  0
    6.1895   -5.2811    3.2539 O   0  0  0  0  0  0  0  0  0  0  0  0
    4.8729   -4.4706    1.3162 C   0  0  1  0  0  0  0  0  0  0  0  0
    3.7004   -5.5239    1.5371 C   0  0  0  0  0  0  0  0  0  0  0  0
    4.2925   -6.9629    1.5808 C   0  0  0  0  0  0  0  0  0  0  0  0
    2.8877   -5.3198    2.8385 C   0  0  0  0  0  0  0  0  0  0  0  0
    2.7513   -5.5340    0.3127 C   0  0  1  0  0  0  0  0  0  0  0  0
    1.5303   -6.2099    0.5516 O   0  0  0  0  0  0  0  0  0  0  0  0
    2.3949   -4.1633   -0.2277 C   0  0  0  0  0  0  0  0  0  0  0  0
    3.6404   -3.4096   -0.6248 C   0  0  0  0  0  0  0  0  0  0  0  0
    4.5347   -3.1090    0.5957 C   0  0  1  0  0  0  0  0  0  0  0  0
    5.8279   -2.5191   -0.0352 C   0  0  0  0  0  0  0  0  0  0  0  0
    6.1968   -0.6671    4.6865 H   0  0  0  0  0  0  0  0  0  0  0  0
    5.1797    0.4664    5.4480 H   0  0  0  0  0  0  0  0  0  0  0  0
    5.7621    0.7653    3.8096 H   0  0  0  0  0  0  0  0  0  0  0  0
    2.7582   -2.2247    4.6291 H   0  0  0  0  0  0  0  0  0  0  0  0
    4.1052   -1.9444    5.6825 H   0  0  0  0  0  0  0  0  0  0  0  0
    1.9624   -1.1567    6.6384 H   0  0  0  0  0  0  0  0  0  0  0  0
    3.1923    0.0498    6.5625 H   0  0  0  0  0  0  0  0  0  0  0  0
   -0.1576   -0.1371    3.7656 H   0  0  0  0  0  0  0  0  0  0  0  0
    0.0762   -1.2756    5.0650 H   0  0  0  0  0  0  0  0  0  0  0  0
    1.1266   -1.2552    3.6718 H   0  0  0  0  0  0  0  0  0  0  0  0
    0.0568    0.4100    6.6530 H   0  0  0  0  0  0  0  0  0  0  0  0
    1.9989    1.3690    7.8314 H   0  0  0  0  0  0  0  0  0  0  0  0
    1.8361    2.8403    6.9059 H   0  0  0  0  0  0  0  0  0  0  0  0
   -0.2070    1.6634    8.7950 H   0  0  0  0  0  0  0  0  0  0  0  0
    0.7476    3.0758    9.0799 H   0  0  0  0  0  0  0  0  0  0  0  0
   -1.6383    3.5116    8.3784 H   0  0  0  0  0  0  0  0  0  0  0  0
   -0.0307    5.0186    8.2324 H   0  0  0  0  0  0  0  0  0  0  0  0
   -2.8094    1.0249    6.0837 H   0  0  0  0  0  0  0  0  0  0  0  0
   -3.2252    2.0161    7.4828 H   0  0  0  0  0  0  0  0  0  0  0  0
   -1.8830    0.8960    7.5418 H   0  0  0  0  0  0  0  0  0  0  0  0
   -2.8684    3.2134    4.7686 H   0  0  0  0  0  0  0  0  0  0  0  0
   -1.8120    4.5388    5.2426 H   0  0  0  0  0  0  0  0  0  0  0  0
   -3.1439    4.0675    6.2760 H   0  0  0  0  0  0  0  0  0  0  0  0
   -1.0338    1.4220    4.7935 H   0  0  0  0  0  0  0  0  0  0  0  0
   -0.5450    3.3300    3.6341 H   0  0  0  0  0  0  0  0  0  0  0  0
    1.5130    3.9418    5.3899 H   0  0  0  0  0  0  0  0  0  0  0  0
    0.6594    1.5687    2.7640 H   0  0  0  0  0  0  0  0  0  0  0  0
    1.1840    3.5730    1.9652 H   0  0  0  0  0  0  0  0  0  0  0  0
    2.9823    3.2593    5.0108 H   0  0  0  0  0  0  0  0  0  0  0  0
    4.2033    2.4524    4.1518 H   0  0  0  0  0  0  0  0  0  0  0  0
    3.7473    1.9381    5.7639 H   0  0  0  0  0  0  0  0  0  0  0  0
    2.2267    0.9429    1.3985 H   0  0  0  0  0  0  0  0  0  0  0  0
    2.6427   -0.9667    0.2365 H   0  0  0  0  0  0  0  0  0  0  0  0
    4.2637   -0.2864    0.3720 H   0  0  0  0  0  0  0  0  0  0  0  0
    2.9641   -2.4954    2.0025 H   0  0  0  0  0  0  0  0  0  0  0  0
    5.6370   -1.2798    2.4532 H   0  0  0  0  0  0  0  0  0  0  0  0
    5.9660   -2.8672    4.2482 H   0  0  0  0  0  0  0  0  0  0  0  0
    4.4128   -3.5440    4.0782 H   0  0  0  0  0  0  0  0  0  0  0  0
    6.7029   -3.7721    2.0972 H   0  0  0  0  0  0  0  0  0  0  0  0
    5.4250   -5.6775    3.6520 H   0  0  0  0  0  0  0  0  0  0  0  0
    5.5328   -4.9918    0.6197 H   0  0  0  0  0  0  0  0  0  0  0  0
    3.5151   -7.7305    1.5464 H   0  0  0  0  0  0  0  0  0  0  0  0
    4.8735   -7.1750    2.4794 H   0  0  0  0  0  0  0  0  0  0  0  0
    4.9487   -7.1525    0.7277 H   0  0  0  0  0  0  0  0  0  0  0  0
    2.1190   -6.0829    2.9621 H   0  0  0  0  0  0  0  0  0  0  0  0
    2.3843   -4.3610    2.8633 H   0  0  0  0  0  0  0  0  0  0  0  0
    3.5098   -5.4190    3.7266 H   0  0  0  0  0  0  0  0  0  0  0  0
    3.2852   -6.0746   -0.4599 H   0  0  0  0  0  0  0  0  0  0  0  0
    1.7334   -7.1134    0.7609 H   0  0  0  0  0  0  0  0  0  0  0  0
    1.7413   -4.2607   -1.0895 H   0  0  0  0  0  0  0  0  0  0  0  0
    1.8569   -3.5947    0.5182 H   0  0  0  0  0  0  0  0  0  0  0  0
    4.1869   -4.0080   -1.3555 H   0  0  0  0  0  0  0  0  0  0  0  0
    3.3607   -2.5001   -1.1560 H   0  0  0  0  0  0  0  0  0  0  0  0
    6.3366   -3.2598   -0.6518 H   0  0  0  0  0  0  0  0  0  0  0  0
    6.5543   -2.1641    0.6904 H   0  0  0  0  0  0  0  0  0  0  0  0
    5.6091   -1.6776   -0.6911 H   0  0  0  0  0  0  0  0  0  0  0  0
  2  1  1  1
  1 40  1  0
  1 41  1  0
  1 42  1  0
  2 22  1  0
  2 26  1  0
  2  3  1  0
  3  4  1  0
  3 43  1  0
  3 44  1  0
  4  5  1  0
  4 45  1  0
  4 46  1  0
  5 20  1  0
  5  6  1  6
  5  7  1  0
  6 47  1  0
  6 48  1  0
  6 49  1  0
  7 15  1  0
  7  8  1  0
  7 50  1  1
  8  9  1  0
  8 51  1  0
  8 52  1  0
  9 10  1  0
  9 53  1  0
  9 54  1  0
 10 11  1  0
 10 12  1  0
 10 55  1  1
 11 56  1  0
 12 13  1  0
 12 14  1  0
 12 15  1  0
 13 57  1  0
 13 58  1  0
 13 59  1  0
 14 60  1  0
 14 61  1  0
 14 62  1  0
 15 16  1  0
 15 63  1  6
 16 17  1  0
 16 18  1  0
 16 64  1  6
 17 65  1  0
 18 19  1  0
 18 20  1  0
 18 66  1  6
 19 67  1  0
 20 21  1  1
 20 22  1  0
 21 68  1  0
 21 69  1  0
 21 70  1  0
 22 23  2  0
 23 24  1  0
 23 71  1  0
 24 25  1  0
 24 72  1  0
 24 73  1  0
 25 38  1  0
 25 26  1  0
 25 74  1  1
 26 27  1  0
 26 75  1  6
 27 28  1  0
 27 76  1  0
 27 77  1  0
 28 29  1  0
 28 30  1  0
 28 78  1  6
 29 79  1  0
 30 38  1  0
 30 31  1  0
 30 80  1  6
 31 32  1  0
 31 33  1  0
 31 34  1  0
 32 81  1  0
 32 82  1  0
 32 83  1  0
 33 84  1  0
 33 85  1  0
 33 86  1  0
 34 35  1  0
 34 36  1  0
 34 87  1  6
 35 88  1  0
 36 37  1  0
 36 89  1  0
 36 90  1  0
 37 38  1  0
 37 91  1  0
 37 92  1  0
 38 39  1  6
 39 93  1  0
 39 94  1  0
 39 95  1  0
M  END
>  <i_m_ct_stereo_status>  (142) 
1

>  <s_m_source_file>  (142) 
/var/tmp/pbs.5076255.sched01/tmpp9awzhar/40nweoahkg.sdf

>  <i_m_source_file_index>  (142) 
15

>  <i_lp_mmshare_version>  (142) 
48012

>  <i_f3d_flags>  (142) 
0

>  <s_epik_input>  (142) 
W0NIMl0xW0NIMl1bQ0BASF0oW09IXSlDKFtDSDNdKShbQ0gzXSlbQ0BASF0oW0NAQEhdKFtPSF0pW0NASF0yW09IXSlbQ0BIXTFbQ0BdKFtDSDNdKShbQ0gyXVtDSDJdMylbQ0BAXTIoW0NIM10pQyhbQ0BAXTM0W0NIM10pPVtDSF1bQ0gyXVtDQEBIXTVbQ0BASF00W0NIMl1bQ0BASF0oW09IXSlbQ0BASF02W0NAQF01KFtDSDNdKVtDSDJdW0NIMl1bQ0BIXShbT0hdKUM2KFtDSDNdKVtDSDNd

>  <s_epik_cmdline>  (142) 
J2VwaWtfcHl0aG9uJywgJy1waHQnLCAnMi4wJywgJy1waCcsICc3LjAnLCAnLXRuJywgJzgnLCAnLW1hJywgJzIwMCcsICctaW1hZScsICc8aW5maWxlLm1hZT4nLCAnLW9tYWUnLCAnPG91dGZpbGUubWFlPic=

>  <r_lp_tautomer_probability>  (142) 
1

>  <r_epik_Ionization_Penalty>  (142) 
7.47259e-06

>  <r_epik_Ionization_Penalty_Charging>  (142) 
0

>  <r_epik_Ionization_Penalty_Neutral>  (142) 
7.47259e-06

>  <r_epik_State_Penalty>  (142) 
-0

>  <r_epik_Charging_Adjusted_Penalty>  (142) 
0

>  <i_epik_Tot_Q>  (142) 
0

>  <i_epik_Tot_abs_Q>  (142) 
0

>  <s_lp_Force_Field>  (142) 
OPLS3e

>  <r_lp_Energy>  (142) 
108.547

>  <b_lp_Chiralities_Consistent>  (142) 
1

>  <s_lp_Variant>  (142) 
39:0-1

>  <s_i_glide_gridfile>  (142) 
pfpi4k_grid

>  <i_i_glide_lignum>  (142) 
15

>  <i_i_glide_rotatable_bonds>  (142) 
5

>  <r_i_docking_score>  (142) 
-2.81715

>  <r_i_glide_ligand_efficiency>  (142) 
-0.0722347

>  <r_i_glide_ligand_efficiency_sa>  (142) 
-0.244963

>  <r_i_glide_ligand_efficiency_ln>  (142) 
-0.604077

>  <r_i_glide_gscore>  (142) 
-2.81715

>  <r_i_glide_lipo>  (142) 
-0.482742

>  <r_i_glide_hbond>  (142) 
-0.0757056

>  <r_i_glide_metal>  (142) 
-0

>  <r_i_glide_rewards>  (142) 
0

>  <r_i_glide_evdw>  (142) 
-26.2422

>  <r_i_glide_ecoul>  (142) 
-6.31064

>  <r_i_glide_erotb>  (142) 
0

>  <r_i_glide_esite>  (142) 
0

>  <r_i_glide_emodel>  (142) 
-38.2114

>  <r_i_glide_energy>  (142) 
-32.5528

>  <r_i_glide_einternal>  (142) 
1.06733

>  <r_i_glide_intrahb_reward>  (142) 
-0

>  <i_i_glide_confnum>  (142) 
1

>  <i_i_glide_posenum>  (142) 
2

>  <r_i_glide_eff_state_penalty>  (142) 
0

>  <ligand_id>  (142) 
39

>  <original_smiles>  (142) 
CC12CCC3(C)C4CCC(O)C(C)(C)C4C(O)C(O)C3(C)C1=CCC1C2CC(O)C2C(C)(C)C(O)CCC12C

>  <smiles>  (142) 
[H]OC1([H])C([H])(O[H])C2(C([H])([H])[H])C3=C([H])C([H])([H])C4([H])C([H])(C([H])([H])C([H])(O[H])C5([H])C(C([H])([H])[H])(C([H])([H])[H])C([H])(O[H])C([H])([H])C([H])([H])C45C([H])([H])[H])C3(C([H])([H])[H])C([H])([H])C([H])([H])C2(C([H])([H])[H])C2([H])C([H])([H])C([H])([H])C([H])(O[H])C(C([H])([H])[H])(C([H])([H])[H])C12[H]

$$$$
40:0:0
     RDKit          3D

 38 41  0  0  1  0  0  0  0  0999 V2000
    5.2205   -0.4405    2.1791 C   0  0  0  0  0  0  0  0  0  0  0  0
    4.6431   -1.4254    1.2141 C   0  0  0  0  0  0  0  0  0  0  0  0
    5.3238   -1.5782    0.0646 N   0  0  0  0  0  0  0  0  0  0  0  0
    6.4492   -1.0570   -0.1508 O   0  0  0  0  0  0  0  0  0  0  0  0
    4.9975   -2.6343   -1.0002 C   0  0  2  0  0  0  0  0  0  0  0  0
    5.8717   -3.8759   -0.7778 C   0  0  0  0  0  0  0  0  0  0  0  0
    5.3773   -2.1537   -2.2897 O   0  0  0  0  0  0  0  0  0  0  0  0
    4.2291   -1.6291   -2.9620 C   0  0  1  0  0  0  0  0  0  0  0  0
    3.6855   -2.3842   -4.1967 C   0  0  0  0  0  0  0  0  0  0  0  0
    2.3804   -2.8148   -3.4871 C   0  0  0  0  0  0  0  0  0  0  0  0
    3.1320   -2.3292   -2.2879 C   0  0  0  0  0  0  0  0  0  0  0  0
    3.5112   -2.9441   -1.1894 C   0  0  0  0  0  0  0  0  0  0  0  0
    2.8991   -4.0493   -0.6278 N   0  0  0  0  0  0  0  0  0  0  0  0
    3.1073   -4.5323    0.6700 C   0  0  0  0  0  0  0  0  0  0  0  0
    3.0257   -5.9204    0.8963 C   0  0  0  0  0  0  0  0  0  0  0  0
    3.3222   -6.4589    2.1580 C   0  0  0  0  0  0  0  0  0  0  0  0
    3.6823   -5.6041    3.2177 C   0  0  0  0  0  0  0  0  0  0  0  0
    3.7198   -4.2090    3.0119 C   0  0  0  0  0  0  0  0  0  0  0  0
    3.4207   -3.6623    1.7437 C   0  0  0  0  0  0  0  0  0  0  0  0
    3.3734   -2.1470    1.5704 C   0  0  0  0  0  0  0  0  0  0  0  0
    4.6218   -0.3777    3.0871 H   0  0  0  0  0  0  0  0  0  0  0  0
    5.2186    0.5390    1.7096 H   0  0  0  0  0  0  0  0  0  0  0  0
    6.2406   -0.7093    2.4551 H   0  0  0  0  0  0  0  0  0  0  0  0
    5.7510   -4.3045    0.2162 H   0  0  0  0  0  0  0  0  0  0  0  0
    6.9155   -3.5960   -0.9029 H   0  0  0  0  0  0  0  0  0  0  0  0
    5.6321   -4.6296   -1.5263 H   0  0  0  0  0  0  0  0  0  0  0  0
    4.1857   -0.5423   -3.0256 H   0  0  0  0  0  0  0  0  0  0  0  0
    3.4982   -1.7051   -5.0305 H   0  0  0  0  0  0  0  0  0  0  0  0
    4.3135   -3.2329   -4.4764 H   0  0  0  0  0  0  0  0  0  0  0  0
    1.5142   -2.2505   -3.8186 H   0  0  0  0  0  0  0  0  0  0  0  0
    2.2048   -3.8863   -3.5602 H   0  0  0  0  0  0  0  0  0  0  0  0
    2.7808   -6.5838    0.0827 H   0  0  0  0  0  0  0  0  0  0  0  0
    3.2928   -7.5296    2.3044 H   0  0  0  0  0  0  0  0  0  0  0  0
    3.9251   -6.0186    4.1836 H   0  0  0  0  0  0  0  0  0  0  0  0
    3.9770   -3.5594    3.8333 H   0  0  0  0  0  0  0  0  0  0  0  0
    3.0232   -1.7623    2.5246 H   0  0  0  0  0  0  0  0  0  0  0  0
    2.5738   -1.8430    0.8919 H   0  0  0  0  0  0  0  0  0  0  0  0
    2.2286   -4.5281   -1.2149 H   0  0  0  0  0  0  0  0  0  0  0  0
  1  2  1  0
  1 21  1  0
  1 22  1  0
  1 23  1  0
  2 20  1  0
  2  3  2  3
  3  4  1  0
  3  5  1  0
  5  6  1  1
  5  7  1  0
  5 12  1  0
  6 24  1  0
  6 25  1  0
  6 26  1  0
  7  8  1  0
  8  9  1  0
  8 27  1  6
  8 11  1  0
  9 10  1  0
  9 28  1  0
  9 29  1  0
 10 30  1  0
 10 31  1  0
 10 11  1  0
 11 12  2  0
 12 13  1  0
 13 14  1  0
 13 38  1  0
 14 19  2  0
 14 15  1  0
 15 16  2  0
 15 32  1  0
 16 17  1  0
 16 33  1  0
 17 18  2  0
 17 34  1  0
 18 19  1  0
 18 35  1  0
 19 20  1  0
 20 36  1  0
 20 37  1  0
M  CHG  2   3   1   4  -1
M  END
>  <i_m_ct_stereo_status>  (143) 
1

>  <s_m_source_file>  (143) 
/var/tmp/pbs.5076255.sched01/tmpp9awzhar/40nweoahkg.sdf

>  <i_m_source_file_index>  (143) 
16

>  <i_lp_mmshare_version>  (143) 
48012

>  <i_f3d_flags>  (143) 
0

>  <s_epik_input>  (143) 
W08tXS9bTitdMT1DKFxbQ0gzXSlbQ0gyXWMoW2NIXVtjSF1bY0hdW2NIXTIpYzIvTj1DKFxbQ0BdMTNbQ0gzXSlbQ0BASF00W0NAQEhdKE8zKVtDSDJdW0NIMl00

>  <s_epik_cmdline>  (143) 
J2VwaWtfcHl0aG9uJywgJy1waHQnLCAnMi4wJywgJy1waCcsICc3LjAnLCAnLXRuJywgJzgnLCAnLW1hJywgJzIwMCcsICctaW1hZScsICc8aW5maWxlLm1hZT4nLCAnLW9tYWUnLCAnPG91dGZpbGUubWFlPic=

>  <r_lp_tautomer_probability>  (143) 
1

>  <r_epik_Ionization_Penalty>  (143) 
2.74435

>  <r_epik_Ionization_Penalty_Charging>  (143) 
2.15188

>  <r_epik_Ionization_Penalty_Neutral>  (143) 
0.592463

>  <r_epik_State_Penalty>  (143) 
-0

>  <r_epik_Charging_Adjusted_Penalty>  (143) 
2.15188

>  <i_epik_Tot_Q>  (143) 
0

>  <i_epik_Tot_abs_Q>  (143) 
2

>  <s_epik_Chemistry_Notes>  (143) 
This compound has an imine and may undergo hydrolysis.

>  <s_lp_Force_Field>  (143) 
OPLS3e

>  <r_lp_Energy>  (143) 
66.0832

>  <b_lp_Chiralities_Consistent>  (143) 
1

>  <s_lp_Variant>  (143) 
40:0-1

>  <s_i_glide_gridfile>  (143) 
pfpi4k_grid

>  <i_i_glide_lignum>  (143) 
16

>  <i_i_glide_rotatable_bonds>  (143) 
0

>  <r_i_docking_score>  (143) 
-4.87441

>  <r_i_glide_ligand_efficiency>  (143) 
-0.243721

>  <r_i_glide_ligand_efficiency_sa>  (143) 
-0.66156

>  <r_i_glide_ligand_efficiency_ln>  (143) 
-1.21991

>  <r_i_glide_gscore>  (143) 
-4.87441

>  <r_i_glide_lipo>  (143) 
-0.450396

>  <r_i_glide_hbond>  (143) 
-0.154881

>  <r_i_glide_metal>  (143) 
-0

>  <r_i_glide_rewards>  (143) 
-1.91596

>  <r_i_glide_evdw>  (143) 
-21.5153

>  <r_i_glide_ecoul>  (143) 
-8.2238

>  <r_i_glide_erotb>  (143) 
0

>  <r_i_glide_esite>  (143) 
-0.0438406

>  <r_i_glide_emodel>  (143) 
-39.1926

>  <r_i_glide_energy>  (143) 
-29.7391

>  <r_i_glide_einternal>  (143) 
0

>  <r_i_glide_intrahb_reward>  (143) 
-0

>  <i_i_glide_confnum>  (143) 
1

>  <i_i_glide_posenum>  (143) 
8

>  <r_i_glide_eff_state_penalty>  (143) 
0

>  <ligand_id>  (143) 
40

>  <original_smiles>  (143) 
CC1=[N+]([O-])C2(C)OC3CCC3C2=Nc2ccccc2C1

>  <smiles>  (143) 
[H]c1c([H])c([H])c2c(c1[H])N([H])C1=C3C([H])([H])C([H])([H])C3([H])OC1(C([H])([H])[H])[N+]([O-])=C(C([H])([H])[H])C2([H])[H]

$$$$
40:0:1
     RDKit          3D

 38 41  0  0  1  0  0  0  0  0999 V2000
    0.4747    0.9401    8.7154 C   0  0  0  0  0  0  0  0  0  0  0  0
    0.5599    0.5200    7.2777 C   0  0  0  0  0  0  0  0  0  0  0  0
    0.2935   -0.7644    7.0477 N   0  0  0  0  0  0  0  0  0  0  0  0
   -0.1865   -1.5201    7.9447 O   0  0  0  0  0  0  0  0  0  0  0  0
    0.1163   -1.3948    5.6488 C   0  0  2  0  0  0  0  0  0  0  0  0
   -1.3604   -1.3900    5.2000 C   0  0  0  0  0  0  0  0  0  0  0  0
    0.4606   -2.7795    5.6798 O   0  0  0  0  0  0  0  0  0  0  0  0
    1.8207   -2.9479    5.2543 C   0  0  1  0  0  0  0  0  0  0  0  0
    2.1002   -3.6695    3.9120 C   0  0  0  0  0  0  0  0  0  0  0  0
    2.6388   -2.3850    3.2227 C   0  0  0  0  0  0  0  0  0  0  0  0
    2.0292   -1.7605    4.4243 C   0  0  0  0  0  0  0  0  0  0  0  0
    1.0743   -0.8481    4.5820 C   0  0  0  0  0  0  0  0  0  0  0  0
    0.6781    0.0633    3.6332 N   0  0  0  0  0  0  0  0  0  0  0  0
   -0.0892    1.2151    3.8854 C   0  0  0  0  0  0  0  0  0  0  0  0
   -0.9299    1.6828    2.8561 C   0  0  0  0  0  0  0  0  0  0  0  0
   -1.8131    2.7497    3.0987 C   0  0  0  0  0  0  0  0  0  0  0  0
   -1.8379    3.3770    4.3621 C   0  0  0  0  0  0  0  0  0  0  0  0
   -0.9491    2.9543    5.3756 C   0  0  0  0  0  0  0  0  0  0  0  0
   -0.0605    1.8805    5.1421 C   0  0  0  0  0  0  0  0  0  0  0  0
    0.9507    1.5097    6.2202 C   0  0  0  0  0  0  0  0  0  0  0  0
    0.7155    1.9953    8.8266 H   0  0  0  0  0  0  0  0  0  0  0  0
    1.1898    0.3674    9.3066 H   0  0  0  0  0  0  0  0  0  0  0  0
   -0.5277    0.7807    9.1192 H   0  0  0  0  0  0  0  0  0  0  0  0
   -1.7938   -0.3955    5.1963 H   0  0  0  0  0  0  0  0  0  0  0  0
   -1.9253   -2.0157    5.8799 H   0  0  0  0  0  0  0  0  0  0  0  0
   -1.4225   -1.8255    4.2074 H   0  0  0  0  0  0  0  0  0  0  0  0
    2.5425   -3.1658    6.0429 H   0  0  0  0  0  0  0  0  0  0  0  0
    2.8648   -4.4442    4.0100 H   0  0  0  0  0  0  0  0  0  0  0  0
    1.1855   -4.0559    3.4562 H   0  0  0  0  0  0  0  0  0  0  0  0
    3.7224   -2.3791    3.1386 H   0  0  0  0  0  0  0  0  0  0  0  0
    2.1520   -2.1910    2.2733 H   0  0  0  0  0  0  0  0  0  0  0  0
   -0.9264    1.1905    1.8903 H   0  0  0  0  0  0  0  0  0  0  0  0
   -2.4799    3.0712    2.3145 H   0  0  0  0  0  0  0  0  0  0  0  0
   -2.5266    4.1807    4.5483 H   0  0  0  0  0  0  0  0  0  0  0  0
   -0.9536    3.4595    6.3317 H   0  0  0  0  0  0  0  0  0  0  0  0
    1.1925    2.4452    6.7200 H   0  0  0  0  0  0  0  0  0  0  0  0
    1.9108    1.2256    5.7884 H   0  0  0  0  0  0  0  0  0  0  0  0
    1.1278    0.0274    2.7230 H   0  0  0  0  0  0  0  0  0  0  0  0
  1  2  1  0
  1 21  1  0
  1 22  1  0
  1 23  1  0
  2 20  1  0
  2  3  2  3
  3  4  1  0
  3  5  1  0
  5  6  1  6
  5  7  1  0
  5 12  1  0
  6 24  1  0
  6 25  1  0
  6 26  1  0
  7  8  1  0
  8  9  1  0
  8 27  1  1
  8 11  1  0
  9 10  1  0
  9 28  1  0
  9 29  1  0
 10 30  1  0
 10 31  1  0
 10 11  1  0
 11 12  2  0
 12 13  1  0
 13 14  1  0
 13 38  1  0
 14 19  2  0
 14 15  1  0
 15 16  2  0
 15 32  1  0
 16 17  1  0
 16 33  1  0
 17 18  2  0
 17 34  1  0
 18 19  1  0
 18 35  1  0
 19 20  1  0
 20 36  1  0
 20 37  1  0
M  CHG  2   3   1   4  -1
M  END
>  <i_m_ct_stereo_status>  (144) 
1

>  <s_m_source_file>  (144) 
/var/tmp/pbs.5076255.sched01/tmpp9awzhar/40nweoahkg.sdf

>  <i_m_source_file_index>  (144) 
16

>  <i_lp_mmshare_version>  (144) 
48012

>  <i_f3d_flags>  (144) 
0

>  <s_epik_input>  (144) 
W08tXS9bTitdMT1DKFxbQ0gzXSlbQ0gyXWMoW2NIXVtjSF1bY0hdW2NIXTIpYzIvTj1DKFxbQ0BdMTNbQ0gzXSlbQ0BASF00W0NAQEhdKE8zKVtDSDJdW0NIMl00

>  <s_epik_cmdline>  (144) 
J2VwaWtfcHl0aG9uJywgJy1waHQnLCAnMi4wJywgJy1waCcsICc3LjAnLCAnLXRuJywgJzgnLCAnLW1hJywgJzIwMCcsICctaW1hZScsICc8aW5maWxlLm1hZT4nLCAnLW9tYWUnLCAnPG91dGZpbGUubWFlPic=

>  <r_lp_tautomer_probability>  (144) 
1

>  <r_epik_Ionization_Penalty>  (144) 
2.74435

>  <r_epik_Ionization_Penalty_Charging>  (144) 
2.15188

>  <r_epik_Ionization_Penalty_Neutral>  (144) 
0.592463

>  <r_epik_State_Penalty>  (144) 
-0

>  <r_epik_Charging_Adjusted_Penalty>  (144) 
2.15188

>  <i_epik_Tot_Q>  (144) 
0

>  <i_epik_Tot_abs_Q>  (144) 
2

>  <s_epik_Chemistry_Notes>  (144) 
This compound has an imine and may undergo hydrolysis.

>  <s_lp_Force_Field>  (144) 
OPLS3e

>  <r_lp_Energy>  (144) 
66.0832

>  <b_lp_Chiralities_Consistent>  (144) 
1

>  <s_lp_Variant>  (144) 
40:0-1

>  <s_i_glide_gridfile>  (144) 
pfpi4k_grid

>  <i_i_glide_lignum>  (144) 
16

>  <i_i_glide_rotatable_bonds>  (144) 
0

>  <r_i_docking_score>  (144) 
-4.25494

>  <r_i_glide_ligand_efficiency>  (144) 
-0.212747

>  <r_i_glide_ligand_efficiency_sa>  (144) 
-0.577485

>  <r_i_glide_ligand_efficiency_ln>  (144) 
-1.06487

>  <r_i_glide_gscore>  (144) 
-4.25494

>  <r_i_glide_lipo>  (144) 
-0.0021864

>  <r_i_glide_hbond>  (144) 
-0.0944376

>  <r_i_glide_metal>  (144) 
-0

>  <r_i_glide_rewards>  (144) 
-1.56596

>  <r_i_glide_evdw>  (144) 
-16.2487

>  <r_i_glide_ecoul>  (144) 
-11.3572

>  <r_i_glide_erotb>  (144) 
0

>  <r_i_glide_esite>  (144) 
-0.0763478

>  <r_i_glide_emodel>  (144) 
-35.8522

>  <r_i_glide_energy>  (144) 
-27.6059

>  <r_i_glide_einternal>  (144) 
0

>  <r_i_glide_intrahb_reward>  (144) 
-0

>  <i_i_glide_confnum>  (144) 
1

>  <i_i_glide_posenum>  (144) 
15

>  <r_i_glide_eff_state_penalty>  (144) 
0

>  <ligand_id>  (144) 
40

>  <original_smiles>  (144) 
CC1=[N+]([O-])C2(C)OC3CCC3C2=Nc2ccccc2C1

>  <smiles>  (144) 
[H]c1c([H])c([H])c2c(c1[H])N([H])C1=C3C([H])([H])C([H])([H])C3([H])OC1(C([H])([H])[H])[N+]([O-])=C(C([H])([H])[H])C2([H])[H]

$$$$
40:0:2
     RDKit          3D

 38 41  0  0  1  0  0  0  0  0999 V2000
   -0.7100    1.5646    8.6231 C   0  0  0  0  0  0  0  0  0  0  0  0
   -0.1822    1.2529    7.2511 C   0  0  0  0  0  0  0  0  0  0  0  0
    0.1078   -0.0400    7.0170 N   0  0  0  0  0  0  0  0  0  0  0  0
   -0.1892   -0.9480    7.8315 O   0  0  0  0  0  0  0  0  0  0  0  0
    0.5061   -0.6154    5.6409 C   0  0  2  0  0  0  0  0  0  0  0  0
   -0.7341   -1.1733    4.9057 C   0  0  0  0  0  0  0  0  0  0  0  0
    1.3483   -1.7513    5.8277 O   0  0  0  0  0  0  0  0  0  0  0  0
    2.7246   -1.3636    5.6972 C   0  0  1  0  0  0  0  0  0  0  0  0
    3.5310   -1.8663    4.4743 C   0  0  0  0  0  0  0  0  0  0  0  0
    3.6557   -0.4497    3.8579 C   0  0  0  0  0  0  0  0  0  0  0  0
    2.6151   -0.1467    4.8852 C   0  0  0  0  0  0  0  0  0  0  0  0
    1.3820    0.2966    4.7845 C   0  0  0  0  0  0  0  0  0  0  0  0
    0.8655    1.0392    3.7390 N   0  0  0  0  0  0  0  0  0  0  0  0
   -0.3169    1.7817    3.7809 C   0  0  0  0  0  0  0  0  0  0  0  0
   -1.0388    1.9173    2.5800 C   0  0  0  0  0  0  0  0  0  0  0  0
   -2.2900    2.5515    2.5885 C   0  0  0  0  0  0  0  0  0  0  0  0
   -2.8129    3.0596    3.7824 C   0  0  0  0  0  0  0  0  0  0  0  0
   -2.0771    2.9895    4.9772 C   0  0  0  0  0  0  0  0  0  0  0  0
   -0.8150    2.3560    4.9827 C   0  0  0  0  0  0  0  0  0  0  0  0
    0.0101    2.3693    6.2623 C   0  0  0  0  0  0  0  0  0  0  0  0
   -0.9300    2.6242    8.7326 H   0  0  0  0  0  0  0  0  0  0  0  0
    0.0280    1.2871    9.3782 H   0  0  0  0  0  0  0  0  0  0  0  0
   -1.6326    1.0158    8.8162 H   0  0  0  0  0  0  0  0  0  0  0  0
   -1.5053   -0.4207    4.7706 H   0  0  0  0  0  0  0  0  0  0  0  0
   -1.1437   -1.9858    5.4905 H   0  0  0  0  0  0  0  0  0  0  0  0
   -0.4392   -1.5761    3.9378 H   0  0  0  0  0  0  0  0  0  0  0  0
    3.2851   -1.3133    6.6302 H   0  0  0  0  0  0  0  0  0  0  0  0
    4.4962   -2.2880    4.7632 H   0  0  0  0  0  0  0  0  0  0  0  0
    2.9558   -2.5612    3.8582 H   0  0  0  0  0  0  0  0  0  0  0  0
    4.6434   -0.0144    3.9938 H   0  0  0  0  0  0  0  0  0  0  0  0
    3.3444   -0.4190    2.8183 H   0  0  0  0  0  0  0  0  0  0  0  0
   -0.6522    1.4998    1.6576 H   0  0  0  0  0  0  0  0  0  0  0  0
   -2.9004    2.5984    1.6993 H   0  0  0  0  0  0  0  0  0  0  0  0
   -3.7927    3.4911    3.7315 H   0  0  0  0  0  0  0  0  0  0  0  0
   -2.4851    3.4085    5.8864 H   0  0  0  0  0  0  0  0  0  0  0  0
   -0.2418    3.3021    6.7585 H   0  0  0  0  0  0  0  0  0  0  0  0
    1.0738    2.4908    6.0489 H   0  0  0  0  0  0  0  0  0  0  0  0
    1.4671    1.2034    2.9439 H   0  0  0  0  0  0  0  0  0  0  0  0
  1  2  1  0
  1 21  1  0
  1 22  1  0
  1 23  1  0
  2 20  1  0
  2  3  2  3
  3  4  1  0
  3  5  1  0
  5  6  1  6
  5  7  1  0
  5 12  1  0
  6 24  1  0
  6 25  1  0
  6 26  1  0
  7  8  1  0
  8  9  1  0
  8 27  1  1
  8 11  1  0
  9 10  1  0
  9 28  1  0
  9 29  1  0
 10 30  1  0
 10 31  1  0
 10 11  1  0
 11 12  2  0
 12 13  1  0
 13 14  1  0
 13 38  1  0
 14 19  2  0
 14 15  1  0
 15 16  2  0
 15 32  1  0
 16 17  1  0
 16 33  1  0
 17 18  2  0
 17 34  1  0
 18 19  1  0
 18 35  1  0
 19 20  1  0
 20 36  1  0
 20 37  1  0
M  CHG  2   3   1   4  -1
M  END
>  <i_m_ct_stereo_status>  (145) 
1

>  <s_m_source_file>  (145) 
/var/tmp/pbs.5076255.sched01/tmpp9awzhar/40nweoahkg.sdf

>  <i_m_source_file_index>  (145) 
16

>  <i_lp_mmshare_version>  (145) 
48012

>  <i_f3d_flags>  (145) 
0

>  <s_epik_input>  (145) 
W08tXS9bTitdMT1DKFxbQ0gzXSlbQ0gyXWMoW2NIXVtjSF1bY0hdW2NIXTIpYzIvTj1DKFxbQ0BdMTNbQ0gzXSlbQ0BASF00W0NAQEhdKE8zKVtDSDJdW0NIMl00

>  <s_epik_cmdline>  (145) 
J2VwaWtfcHl0aG9uJywgJy1waHQnLCAnMi4wJywgJy1waCcsICc3LjAnLCAnLXRuJywgJzgnLCAnLW1hJywgJzIwMCcsICctaW1hZScsICc8aW5maWxlLm1hZT4nLCAnLW9tYWUnLCAnPG91dGZpbGUubWFlPic=

>  <r_lp_tautomer_probability>  (145) 
1

>  <r_epik_Ionization_Penalty>  (145) 
2.74435

>  <r_epik_Ionization_Penalty_Charging>  (145) 
2.15188

>  <r_epik_Ionization_Penalty_Neutral>  (145) 
0.592463

>  <r_epik_State_Penalty>  (145) 
-0

>  <r_epik_Charging_Adjusted_Penalty>  (145) 
2.15188

>  <i_epik_Tot_Q>  (145) 
0

>  <i_epik_Tot_abs_Q>  (145) 
2

>  <s_epik_Chemistry_Notes>  (145) 
This compound has an imine and may undergo hydrolysis.

>  <s_lp_Force_Field>  (145) 
OPLS3e

>  <r_lp_Energy>  (145) 
66.0832

>  <b_lp_Chiralities_Consistent>  (145) 
1

>  <s_lp_Variant>  (145) 
40:0-1

>  <s_i_glide_gridfile>  (145) 
pfpi4k_grid

>  <i_i_glide_lignum>  (145) 
16

>  <i_i_glide_rotatable_bonds>  (145) 
0

>  <r_i_docking_score>  (145) 
-3.70615

>  <r_i_glide_ligand_efficiency>  (145) 
-0.185308

>  <r_i_glide_ligand_efficiency_sa>  (145) 
-0.503002

>  <r_i_glide_ligand_efficiency_ln>  (145) 
-0.927528

>  <r_i_glide_gscore>  (145) 
-3.70615

>  <r_i_glide_lipo>  (145) 
-0.00749621

>  <r_i_glide_hbond>  (145) 
-0.0353993

>  <r_i_glide_metal>  (145) 
-0

>  <r_i_glide_rewards>  (145) 
-1.56596

>  <r_i_glide_evdw>  (145) 
-13.3581

>  <r_i_glide_ecoul>  (145) 
-9.05539

>  <r_i_glide_erotb>  (145) 
0

>  <r_i_glide_esite>  (145) 
-0.0710881

>  <r_i_glide_emodel>  (145) 
-29.5859

>  <r_i_glide_energy>  (145) 
-22.4135

>  <r_i_glide_einternal>  (145) 
0

>  <r_i_glide_intrahb_reward>  (145) 
-0

>  <i_i_glide_confnum>  (145) 
1

>  <i_i_glide_posenum>  (145) 
9

>  <r_i_glide_eff_state_penalty>  (145) 
0

>  <ligand_id>  (145) 
40

>  <original_smiles>  (145) 
CC1=[N+]([O-])C2(C)OC3CCC3C2=Nc2ccccc2C1

>  <smiles>  (145) 
[H]c1c([H])c([H])c2c(c1[H])N([H])C1=C3C([H])([H])C([H])([H])C3([H])OC1(C([H])([H])[H])[N+]([O-])=C(C([H])([H])[H])C2([H])[H]

$$$$
40:1:0
     RDKit          3D

 38 41  0  0  1  0  0  0  0  0999 V2000
    0.2006   -4.2081    5.9574 C   0  0  0  0  0  0  0  0  0  0  0  0
    0.4396   -2.8732    5.3080 C   0  0  0  0  0  0  0  0  0  0  0  0
   -0.0285   -1.8036    5.9572 N   0  0  0  0  0  0  0  0  0  0  0  0
   -0.5885   -1.8787    7.0783 O   0  0  0  0  0  0  0  0  0  0  0  0
    0.2595   -0.3356    5.5625 C   0  0  2  0  0  0  0  0  0  0  0  0
    1.4693    0.2060    6.3428 C   0  0  0  0  0  0  0  0  0  0  0  0
   -0.8289    0.4928    5.9628 O   0  0  0  0  0  0  0  0  0  0  0  0
   -1.6947    0.7237    4.8484 C   0  0  1  0  0  0  0  0  0  0  0  0
   -1.7912    2.1489    4.2384 C   0  0  0  0  0  0  0  0  0  0  0  0
   -1.1303    1.7150    2.9064 C   0  0  0  0  0  0  0  0  0  0  0  0
   -0.8036    0.4973    3.7096 C   0  0  0  0  0  0  0  0  0  0  0  0
    0.3334   -0.0608    4.0554 C   0  0  0  0  0  0  0  0  0  0  0  0
    1.5275    0.0539    3.3744 N   0  0  0  0  0  0  0  0  0  0  0  0
    2.6324   -0.7875    3.5269 C   0  0  0  0  0  0  0  0  0  0  0  0
    3.9118   -0.2306    3.3279 C   0  0  0  0  0  0  0  0  0  0  0  0
    5.0621   -0.9991    3.5832 C   0  0  0  0  0  0  0  0  0  0  0  0
    4.9386   -2.3355    4.0112 C   0  0  0  0  0  0  0  0  0  0  0  0
    3.6615   -2.9124    4.1548 C   0  0  0  0  0  0  0  0  0  0  0  0
    2.4999   -2.1503    3.9008 C   0  0  0  0  0  0  0  0  0  0  0  0
    1.1400   -2.8327    3.9759 C   0  0  0  0  0  0  0  0  0  0  0  0
    0.9155   -4.9446    5.5967 H   0  0  0  0  0  0  0  0  0  0  0  0
   -0.8015   -4.5528    5.7127 H   0  0  0  0  0  0  0  0  0  0  0  0
    0.2989   -4.1538    7.0421 H   0  0  0  0  0  0  0  0  0  0  0  0
    2.3587   -0.4008    6.1911 H   0  0  0  0  0  0  0  0  0  0  0  0
    1.2271    0.2010    7.3999 H   0  0  0  0  0  0  0  0  0  0  0  0
    1.6775    1.2358    6.0502 H   0  0  0  0  0  0  0  0  0  0  0  0
   -2.6075    0.1398    4.8667 H   0  0  0  0  0  0  0  0  0  0  0  0
   -2.8250    2.4727    4.1057 H   0  0  0  0  0  0  0  0  0  0  0  0
   -1.2066    2.8797    4.7975 H   0  0  0  0  0  0  0  0  0  0  0  0
   -1.8483    1.6083    2.0942 H   0  0  0  0  0  0  0  0  0  0  0  0
   -0.3028    2.3571    2.6155 H   0  0  0  0  0  0  0  0  0  0  0  0
    4.0035    0.8042    3.0275 H   0  0  0  0  0  0  0  0  0  0  0  0
    6.0363   -0.5495    3.4707 H   0  0  0  0  0  0  0  0  0  0  0  0
    5.8153   -2.9225    4.2257 H   0  0  0  0  0  0  0  0  0  0  0  0
    3.5804   -3.9443    4.4625 H   0  0  0  0  0  0  0  0  0  0  0  0
    1.3034   -3.8586    3.6577 H   0  0  0  0  0  0  0  0  0  0  0  0
    0.4592   -2.4553    3.2112 H   0  0  0  0  0  0  0  0  0  0  0  0
    1.5390    0.6814    2.5804 H   0  0  0  0  0  0  0  0  0  0  0  0
  1  2  1  0
  1 21  1  0
  1 22  1  0
  1 23  1  0
  2 20  1  0
  2  3  2  3
  3  4  1  0
  3  5  1  0
  5  6  1  1
  5  7  1  0
  5 12  1  0
  6 24  1  0
  6 25  1  0
  6 26  1  0
  7  8  1  0
  8  9  1  0
  8 27  1  6
  8 11  1  0
  9 10  1  0
  9 28  1  0
  9 29  1  0
 10 30  1  0
 10 31  1  0
 10 11  1  0
 11 12  2  0
 12 13  1  0
 13 14  1  0
 13 38  1  0
 14 19  2  0
 14 15  1  0
 15 16  2  0
 15 32  1  0
 16 17  1  0
 16 33  1  0
 17 18  2  0
 17 34  1  0
 18 19  1  0
 18 35  1  0
 19 20  1  0
 20 36  1  0
 20 37  1  0
M  CHG  2   3   1   4  -1
M  END
>  <i_m_ct_stereo_status>  (146) 
1

>  <s_m_source_file>  (146) 
/var/tmp/pbs.5076255.sched01/tmpp9awzhar/40nweoahkg.sdf

>  <i_m_source_file_index>  (146) 
17

>  <i_lp_mmshare_version>  (146) 
48012

>  <i_f3d_flags>  (146) 
0

>  <s_epik_input>  (146) 
W08tXS9bTitdMT1DKFxbQ0gzXSlbQ0gyXWMoW2NIXVtjSF1bY0hdW2NIXTIpYzIvTj1DKFxbQ0BdMTNbQ0gzXSlbQ0BASF00W0NAQEhdKE8zKVtDSDJdW0NIMl00

>  <s_epik_cmdline>  (146) 
J2VwaWtfcHl0aG9uJywgJy1waHQnLCAnMi4wJywgJy1waCcsICc3LjAnLCAnLXRuJywgJzgnLCAnLW1hJywgJzIwMCcsICctaW1hZScsICc8aW5maWxlLm1hZT4nLCAnLW9tYWUnLCAnPG91dGZpbGUubWFlPic=

>  <r_lp_tautomer_probability>  (146) 
1

>  <r_epik_Ionization_Penalty>  (146) 
2.74435

>  <r_epik_Ionization_Penalty_Charging>  (146) 
2.15188

>  <r_epik_Ionization_Penalty_Neutral>  (146) 
0.592463

>  <r_epik_State_Penalty>  (146) 
-0

>  <r_epik_Charging_Adjusted_Penalty>  (146) 
2.15188

>  <i_epik_Tot_Q>  (146) 
0

>  <i_epik_Tot_abs_Q>  (146) 
2

>  <s_epik_Chemistry_Notes>  (146) 
This compound has an imine and may undergo hydrolysis.

>  <s_lp_Force_Field>  (146) 
OPLS3e

>  <r_lp_Energy>  (146) 
65.9845

>  <b_lp_Chiralities_Consistent>  (146) 
1

>  <s_lp_Variant>  (146) 
40:0-2

>  <s_i_glide_gridfile>  (146) 
pfpi4k_grid

>  <i_i_glide_lignum>  (146) 
17

>  <i_i_glide_rotatable_bonds>  (146) 
0

>  <r_i_docking_score>  (146) 
-4.86729

>  <r_i_glide_ligand_efficiency>  (146) 
-0.243364

>  <r_i_glide_ligand_efficiency_sa>  (146) 
-0.660592

>  <r_i_glide_ligand_efficiency_ln>  (146) 
-1.21812

>  <r_i_glide_gscore>  (146) 
-4.86729

>  <r_i_glide_lipo>  (146) 
-0.19253

>  <r_i_glide_hbond>  (146) 
-0.0171473

>  <r_i_glide_metal>  (146) 
-0

>  <r_i_glide_rewards>  (146) 
-1.56596

>  <r_i_glide_evdw>  (146) 
-16.0397

>  <r_i_glide_ecoul>  (146) 
-14.9399

>  <r_i_glide_erotb>  (146) 
0

>  <r_i_glide_esite>  (146) 
-0.0486835

>  <r_i_glide_emodel>  (146) 
-39.7375

>  <r_i_glide_energy>  (146) 
-30.9796

>  <r_i_glide_einternal>  (146) 
0

>  <r_i_glide_intrahb_reward>  (146) 
-0

>  <i_i_glide_confnum>  (146) 
1

>  <i_i_glide_posenum>  (146) 
1

>  <r_i_glide_eff_state_penalty>  (146) 
0

>  <ligand_id>  (146) 
40

>  <original_smiles>  (146) 
CC1=[N+]([O-])C2(C)OC3CCC3C2=Nc2ccccc2C1

>  <smiles>  (146) 
[H]c1c([H])c([H])c2c(c1[H])N([H])C1=C3C([H])([H])C([H])([H])C3([H])OC1(C([H])([H])[H])[N+]([O-])=C(C([H])([H])[H])C2([H])[H]

$$$$
40:1:1
     RDKit          3D

 38 41  0  0  1  0  0  0  0  0999 V2000
    0.6312    1.3092    8.3492 C   0  0  0  0  0  0  0  0  0  0  0  0
    0.5895    0.8035    6.9361 C   0  0  0  0  0  0  0  0  0  0  0  0
    0.2258   -0.4792    6.7759 N   0  0  0  0  0  0  0  0  0  0  0  0
   -0.1815   -1.1871    7.7296 O   0  0  0  0  0  0  0  0  0  0  0  0
   -0.0587   -1.1411    5.4114 C   0  0  2  0  0  0  0  0  0  0  0  0
   -1.5624   -1.0586    5.0880 C   0  0  0  0  0  0  0  0  0  0  0  0
    0.2192   -2.5391    5.4812 O   0  0  0  0  0  0  0  0  0  0  0  0
    1.5334   -2.7979    4.9651 C   0  0  1  0  0  0  0  0  0  0  0  0
    1.6752   -3.5877    3.6405 C   0  0  0  0  0  0  0  0  0  0  0  0
    2.2165   -2.3610    2.8648 C   0  0  0  0  0  0  0  0  0  0  0  0
    1.7430   -1.6436    4.0828 C   0  0  0  0  0  0  0  0  0  0  0  0
    0.8423   -0.6981    4.2566 C   0  0  0  0  0  0  0  0  0  0  0  0
    0.4281    0.2194    3.3095 N   0  0  0  0  0  0  0  0  0  0  0  0
   -0.2475    1.4103    3.5819 C   0  0  0  0  0  0  0  0  0  0  0  0
   -1.1452    1.8906    2.6097 C   0  0  0  0  0  0  0  0  0  0  0  0
   -1.9447    3.0134    2.8795 C   0  0  0  0  0  0  0  0  0  0  0  0
   -1.8265    3.6880    4.1083 C   0  0  0  0  0  0  0  0  0  0  0  0
   -0.8857    3.2531    5.0613 C   0  0  0  0  0  0  0  0  0  0  0  0
   -0.0819    2.1231    4.8048 C   0  0  0  0  0  0  0  0  0  0  0  0
    0.9849    1.7269    5.8181 C   0  0  0  0  0  0  0  0  0  0  0  0
    0.5501    2.3950    8.3706 H   0  0  0  0  0  0  0  0  0  0  0  0
    1.5805    1.0242    8.7996 H   0  0  0  0  0  0  0  0  0  0  0  0
   -0.1837    0.9097    8.9584 H   0  0  0  0  0  0  0  0  0  0  0  0
   -1.9406   -0.0391    5.0857 H   0  0  0  0  0  0  0  0  0  0  0  0
   -2.1075   -1.6375    5.8230 H   0  0  0  0  0  0  0  0  0  0  0  0
   -1.7456   -1.4989    4.1117 H   0  0  0  0  0  0  0  0  0  0  0  0
    2.2917   -3.0192    5.7146 H   0  0  0  0  0  0  0  0  0  0  0  0
    2.4062   -4.3947    3.7169 H   0  0  0  0  0  0  0  0  0  0  0  0
    0.7147   -3.9473    3.2715 H   0  0  0  0  0  0  0  0  0  0  0  0
    3.2908   -2.4089    2.6925 H   0  0  0  0  0  0  0  0  0  0  0  0
    1.6744   -2.1755    1.9423 H   0  0  0  0  0  0  0  0  0  0  0  0
   -1.2431    1.3657    1.6678 H   0  0  0  0  0  0  0  0  0  0  0  0
   -2.6456    3.3518    2.1337 H   0  0  0  0  0  0  0  0  0  0  0  0
   -2.4485    4.5432    4.3070 H   0  0  0  0  0  0  0  0  0  0  0  0
   -0.7850    3.7928    5.9911 H   0  0  0  0  0  0  0  0  0  0  0  0
    1.3244    2.6578    6.2683 H   0  0  0  0  0  0  0  0  0  0  0  0
    1.8886    1.3550    5.3297 H   0  0  0  0  0  0  0  0  0  0  0  0
    0.8039    0.1215    2.3720 H   0  0  0  0  0  0  0  0  0  0  0  0
  1  2  1  0
  1 21  1  0
  1 22  1  0
  1 23  1  0
  2 20  1  0
  2  3  2  3
  3  4  1  0
  3  5  1  0
  5  6  1  6
  5  7  1  0
  5 12  1  0
  6 24  1  0
  6 25  1  0
  6 26  1  0
  7  8  1  0
  8  9  1  0
  8 27  1  1
  8 11  1  0
  9 10  1  0
  9 28  1  0
  9 29  1  0
 10 30  1  0
 10 31  1  0
 10 11  1  0
 11 12  2  0
 12 13  1  0
 13 14  1  0
 13 38  1  0
 14 19  2  0
 14 15  1  0
 15 16  2  0
 15 32  1  0
 16 17  1  0
 16 33  1  0
 17 18  2  0
 17 34  1  0
 18 19  1  0
 18 35  1  0
 19 20  1  0
 20 36  1  0
 20 37  1  0
M  CHG  2   3   1   4  -1
M  END
>  <i_m_ct_stereo_status>  (147) 
1

>  <s_m_source_file>  (147) 
/var/tmp/pbs.5076255.sched01/tmpp9awzhar/40nweoahkg.sdf

>  <i_m_source_file_index>  (147) 
17

>  <i_lp_mmshare_version>  (147) 
48012

>  <i_f3d_flags>  (147) 
0

>  <s_epik_input>  (147) 
W08tXS9bTitdMT1DKFxbQ0gzXSlbQ0gyXWMoW2NIXVtjSF1bY0hdW2NIXTIpYzIvTj1DKFxbQ0BdMTNbQ0gzXSlbQ0BASF00W0NAQEhdKE8zKVtDSDJdW0NIMl00

>  <s_epik_cmdline>  (147) 
J2VwaWtfcHl0aG9uJywgJy1waHQnLCAnMi4wJywgJy1waCcsICc3LjAnLCAnLXRuJywgJzgnLCAnLW1hJywgJzIwMCcsICctaW1hZScsICc8aW5maWxlLm1hZT4nLCAnLW9tYWUnLCAnPG91dGZpbGUubWFlPic=

>  <r_lp_tautomer_probability>  (147) 
1

>  <r_epik_Ionization_Penalty>  (147) 
2.74435

>  <r_epik_Ionization_Penalty_Charging>  (147) 
2.15188

>  <r_epik_Ionization_Penalty_Neutral>  (147) 
0.592463

>  <r_epik_State_Penalty>  (147) 
-0

>  <r_epik_Charging_Adjusted_Penalty>  (147) 
2.15188

>  <i_epik_Tot_Q>  (147) 
0

>  <i_epik_Tot_abs_Q>  (147) 
2

>  <s_epik_Chemistry_Notes>  (147) 
This compound has an imine and may undergo hydrolysis.

>  <s_lp_Force_Field>  (147) 
OPLS3e

>  <r_lp_Energy>  (147) 
65.9845

>  <b_lp_Chiralities_Consistent>  (147) 
1

>  <s_lp_Variant>  (147) 
40:0-2

>  <s_i_glide_gridfile>  (147) 
pfpi4k_grid

>  <i_i_glide_lignum>  (147) 
17

>  <i_i_glide_rotatable_bonds>  (147) 
0

>  <r_i_docking_score>  (147) 
-4.04583

>  <r_i_glide_ligand_efficiency>  (147) 
-0.202292

>  <r_i_glide_ligand_efficiency_sa>  (147) 
-0.549104

>  <r_i_glide_ligand_efficiency_ln>  (147) 
-1.01254

>  <r_i_glide_gscore>  (147) 
-4.04583

>  <r_i_glide_lipo>  (147) 
-0.0170452

>  <r_i_glide_hbond>  (147) 
-0.0456117

>  <r_i_glide_metal>  (147) 
-0

>  <r_i_glide_rewards>  (147) 
-1.56596

>  <r_i_glide_evdw>  (147) 
-17.3182

>  <r_i_glide_ecoul>  (147) 
-9.84891

>  <r_i_glide_erotb>  (147) 
0

>  <r_i_glide_esite>  (147) 
-0.0739741

>  <r_i_glide_emodel>  (147) 
-34.3926

>  <r_i_glide_energy>  (147) 
-27.1671

>  <r_i_glide_einternal>  (147) 
0

>  <r_i_glide_intrahb_reward>  (147) 
-0

>  <i_i_glide_confnum>  (147) 
2

>  <i_i_glide_posenum>  (147) 
2

>  <r_i_glide_eff_state_penalty>  (147) 
0

>  <ligand_id>  (147) 
40

>  <original_smiles>  (147) 
CC1=[N+]([O-])C2(C)OC3CCC3C2=Nc2ccccc2C1

>  <smiles>  (147) 
[H]c1c([H])c([H])c2c(c1[H])N([H])C1=C3C([H])([H])C([H])([H])C3([H])OC1(C([H])([H])[H])[N+]([O-])=C(C([H])([H])[H])C2([H])[H]

$$$$
40:1:2
     RDKit          3D

 38 41  0  0  1  0  0  0  0  0999 V2000
   -0.4983    1.6859    8.5527 C   0  0  0  0  0  0  0  0  0  0  0  0
   -0.0520    1.2386    7.1887 C   0  0  0  0  0  0  0  0  0  0  0  0
    0.1235   -0.0764    7.0173 N   0  0  0  0  0  0  0  0  0  0  0  0
   -0.1810   -0.9206    7.9007 O   0  0  0  0  0  0  0  0  0  0  0  0
    0.3832   -0.7586    5.6527 C   0  0  2  0  0  0  0  0  0  0  0  0
   -0.9434   -1.2206    5.0155 C   0  0  0  0  0  0  0  0  0  0  0  0
    1.1226   -1.9600    5.8468 O   0  0  0  0  0  0  0  0  0  0  0  0
    2.5186   -1.7098    5.6368 C   0  0  1  0  0  0  0  0  0  0  0  0
    3.2124   -2.3521    4.4097 C   0  0  0  0  0  0  0  0  0  0  0  0
    3.4325   -0.9881    3.7113 C   0  0  0  0  0  0  0  0  0  0  0  0
    2.4860   -0.5280    4.7663 C   0  0  0  0  0  0  0  0  0  0  0  0
    1.2901    0.0214    4.6985 C   0  0  0  0  0  0  0  0  0  0  0  0
    0.7900    0.7600    3.6439 N   0  0  0  0  0  0  0  0  0  0  0  0
   -0.3060    1.6255    3.7072 C   0  0  0  0  0  0  0  0  0  0  0  0
   -1.0722    1.7847    2.5369 C   0  0  0  0  0  0  0  0  0  0  0  0
   -2.2487    2.5451    2.5766 C   0  0  0  0  0  0  0  0  0  0  0  0
   -2.6433    3.1815    3.7592 C   0  0  0  0  0  0  0  0  0  0  0  0
   -1.8590    3.0724    4.9251 C   0  0  0  0  0  0  0  0  0  0  0  0
   -0.6737    2.3047    4.9025 C   0  0  0  0  0  0  0  0  0  0  0  0
    0.2150    2.2843    6.1385 C   0  0  0  0  0  0  0  0  0  0  0  0
   -0.9642    2.6677    8.5054 H   0  0  0  0  0  0  0  0  0  0  0  0
    0.3692    1.7472    9.2079 H   0  0  0  0  0  0  0  0  0  0  0  0
   -1.2267    1.0006    8.9953 H   0  0  0  0  0  0  0  0  0  0  0  0
   -1.6479   -0.4039    4.8729 H   0  0  0  0  0  0  0  0  0  0  0  0
   -1.3983   -1.9635    5.6591 H   0  0  0  0  0  0  0  0  0  0  0  0
   -0.7441   -1.6999    4.0584 H   0  0  0  0  0  0  0  0  0  0  0  0
    3.1237   -1.6698    6.5404 H   0  0  0  0  0  0  0  0  0  0  0  0
    4.1472   -2.8463    4.6788 H   0  0  0  0  0  0  0  0  0  0  0  0
    2.5468   -3.0208    3.8631 H   0  0  0  0  0  0  0  0  0  0  0  0
    4.4640   -0.6422    3.7726 H   0  0  0  0  0  0  0  0  0  0  0  0
    3.0711   -0.9820    2.6868 H   0  0  0  0  0  0  0  0  0  0  0  0
   -0.7841    1.2855    1.6232 H   0  0  0  0  0  0  0  0  0  0  0  0
   -2.8876    2.6191    1.7107 H   0  0  0  0  0  0  0  0  0  0  0  0
   -3.5593    3.7392    3.7326 H   0  0  0  0  0  0  0  0  0  0  0  0
   -2.1712    3.5710    5.8303 H   0  0  0  0  0  0  0  0  0  0  0  0
    0.0956    3.2572    6.6068 H   0  0  0  0  0  0  0  0  0  0  0  0
    1.2740    2.2768    5.8729 H   0  0  0  0  0  0  0  0  0  0  0  0
    1.3642    0.8301    2.8133 H   0  0  0  0  0  0  0  0  0  0  0  0
  1  2  1  0
  1 21  1  0
  1 22  1  0
  1 23  1  0
  2 20  1  0
  2  3  2  3
  3  4  1  0
  3  5  1  0
  5  6  1  6
  5  7  1  0
  5 12  1  0
  6 24  1  0
  6 25  1  0
  6 26  1  0
  7  8  1  0
  8  9  1  0
  8 27  1  1
  8 11  1  0
  9 10  1  0
  9 28  1  0
  9 29  1  0
 10 30  1  0
 10 31  1  0
 10 11  1  0
 11 12  2  0
 12 13  1  0
 13 14  1  0
 13 38  1  0
 14 19  2  0
 14 15  1  0
 15 16  2  0
 15 32  1  0
 16 17  1  0
 16 33  1  0
 17 18  2  0
 17 34  1  0
 18 19  1  0
 18 35  1  0
 19 20  1  0
 20 36  1  0
 20 37  1  0
M  CHG  2   3   1   4  -1
M  END
>  <i_m_ct_stereo_status>  (148) 
1

>  <s_m_source_file>  (148) 
/var/tmp/pbs.5076255.sched01/tmpp9awzhar/40nweoahkg.sdf

>  <i_m_source_file_index>  (148) 
17

>  <i_lp_mmshare_version>  (148) 
48012

>  <i_f3d_flags>  (148) 
0

>  <s_epik_input>  (148) 
W08tXS9bTitdMT1DKFxbQ0gzXSlbQ0gyXWMoW2NIXVtjSF1bY0hdW2NIXTIpYzIvTj1DKFxbQ0BdMTNbQ0gzXSlbQ0BASF00W0NAQEhdKE8zKVtDSDJdW0NIMl00

>  <s_epik_cmdline>  (148) 
J2VwaWtfcHl0aG9uJywgJy1waHQnLCAnMi4wJywgJy1waCcsICc3LjAnLCAnLXRuJywgJzgnLCAnLW1hJywgJzIwMCcsICctaW1hZScsICc8aW5maWxlLm1hZT4nLCAnLW9tYWUnLCAnPG91dGZpbGUubWFlPic=

>  <r_lp_tautomer_probability>  (148) 
1

>  <r_epik_Ionization_Penalty>  (148) 
2.74435

>  <r_epik_Ionization_Penalty_Charging>  (148) 
2.15188

>  <r_epik_Ionization_Penalty_Neutral>  (148) 
0.592463

>  <r_epik_State_Penalty>  (148) 
-0

>  <r_epik_Charging_Adjusted_Penalty>  (148) 
2.15188

>  <i_epik_Tot_Q>  (148) 
0

>  <i_epik_Tot_abs_Q>  (148) 
2

>  <s_epik_Chemistry_Notes>  (148) 
This compound has an imine and may undergo hydrolysis.

>  <s_lp_Force_Field>  (148) 
OPLS3e

>  <r_lp_Energy>  (148) 
65.9845

>  <b_lp_Chiralities_Consistent>  (148) 
1

>  <s_lp_Variant>  (148) 
40:0-2

>  <s_i_glide_gridfile>  (148) 
pfpi4k_grid

>  <i_i_glide_lignum>  (148) 
17

>  <i_i_glide_rotatable_bonds>  (148) 
0

>  <r_i_docking_score>  (148) 
-3.73579

>  <r_i_glide_ligand_efficiency>  (148) 
-0.186789

>  <r_i_glide_ligand_efficiency_sa>  (148) 
-0.507024

>  <r_i_glide_ligand_efficiency_ln>  (148) 
-0.934944

>  <r_i_glide_gscore>  (148) 
-3.73579

>  <r_i_glide_lipo>  (148) 
-0.00239291

>  <r_i_glide_hbond>  (148) 
-0.0390147

>  <r_i_glide_metal>  (148) 
-0

>  <r_i_glide_rewards>  (148) 
-1.56596

>  <r_i_glide_evdw>  (148) 
-13.5715

>  <r_i_glide_ecoul>  (148) 
-9.20694

>  <r_i_glide_erotb>  (148) 
0

>  <r_i_glide_esite>  (148) 
-0.0688022

>  <r_i_glide_emodel>  (148) 
-29.4075

>  <r_i_glide_energy>  (148) 
-22.7785

>  <r_i_glide_einternal>  (148) 
0

>  <r_i_glide_intrahb_reward>  (148) 
-0

>  <i_i_glide_confnum>  (148) 
2

>  <i_i_glide_posenum>  (148) 
6

>  <r_i_glide_eff_state_penalty>  (148) 
0

>  <ligand_id>  (148) 
40

>  <original_smiles>  (148) 
CC1=[N+]([O-])C2(C)OC3CCC3C2=Nc2ccccc2C1

>  <smiles>  (148) 
[H]c1c([H])c([H])c2c(c1[H])N([H])C1=C3C([H])([H])C([H])([H])C3([H])OC1(C([H])([H])[H])[N+]([O-])=C(C([H])([H])[H])C2([H])[H]

$$$$
41:0:0
     RDKit          3D

 75 81  0  0  1  0  0  0  0  0999 V2000
    3.2961  -10.3068    3.3303 C   0  0  0  0  0  0  0  0  0  0  0  0
    2.8699   -8.9453    2.7909 C   0  0  0  0  0  0  0  0  0  0  0  0
    1.7719   -8.7777    2.2596 O   0  0  0  0  0  0  0  0  0  0  0  0
    3.8143   -7.9944    2.9658 O   0  0  0  0  0  0  0  0  0  0  0  0
    3.5727   -6.6491    2.5578 C   0  0  2  0  0  0  0  0  0  0  0  0
    3.7192   -6.5468    0.9684 C   0  0  0  0  0  0  0  0  0  0  0  0
    3.9945   -5.0602    0.6498 C   0  0  2  0  0  0  0  0  0  0  0  0
    2.5867   -4.4727    1.0153 C   0  0  0  0  0  0  0  0  0  0  0  0
    4.2993   -4.3472   -0.6380 C   0  0  1  0  0  0  0  0  0  0  0  0
    3.5099   -3.4392   -1.5818 C   0  0  0  0  0  0  0  0  0  0  0  0
    4.7024   -2.4433   -1.5199 C   0  0  0  0  0  0  0  0  0  0  0  0
    5.8114   -2.6529   -2.5515 C   0  0  0  0  0  0  0  0  0  0  0  0
    4.2504   -0.9838   -1.6565 C   0  0  0  0  0  0  0  0  0  0  0  0
    4.9620   -3.0237   -0.0914 C   0  0  2  0  0  0  0  0  0  0  0  0
    6.1701   -3.6641    0.4596 C   0  0  0  0  0  0  0  0  0  0  0  0
    5.4564   -4.7883    1.2849 C   0  0  2  0  0  0  0  0  0  0  0  0
    6.5182   -5.9413    1.1658 C   0  0  0  0  0  0  0  0  0  0  0  0
    5.1562   -4.3789    2.7112 C   0  0  2  0  0  0  0  0  0  0  0  0
    4.5075   -5.6658    3.4005 C   0  0  1  0  0  0  0  0  0  0  0  0
    4.3129   -5.5083    4.9235 C   0  0  0  0  0  0  0  0  0  0  0  0
    5.2948   -5.8746    5.8042 C   0  0  0  0  0  0  0  0  0  0  0  0
    6.4467   -6.8468    5.6179 C   0  0  0  0  0  0  0  0  0  0  0  0
    5.5248   -5.0702    6.9054 O   0  0  0  0  0  0  0  0  0  0  0  0
    5.2899   -3.7259    6.6849 C   0  0  0  0  0  0  0  0  0  0  0  0
    4.2589   -3.3680    5.8937 C   0  0  0  0  0  0  0  0  0  0  0  0
    4.2095   -2.0343    5.1747 C   0  0  0  0  0  0  0  0  0  0  0  0
    3.6921   -2.1792    3.7215 C   0  0  2  0  0  0  0  0  0  0  0  0
    2.2642   -2.7137    3.7908 C   0  0  0  0  0  0  0  0  0  0  0  0
    2.1909   -4.0672    4.4869 C   0  0  0  0  0  0  0  0  0  0  0  0
    1.2160   -4.7921    4.2858 O   0  0  0  0  0  0  0  0  0  0  0  0
    3.3045   -4.4832    5.4725 C   0  0  1  0  0  0  0  0  0  0  0  0
    2.5645   -5.0438    6.7260 C   0  0  0  0  0  0  0  0  0  0  0  0
    4.6492   -2.8479    2.6570 C   0  0  2  0  0  0  0  0  0  0  0  0
    4.4897   -2.1855    1.1914 C   0  0  1  0  0  0  0  0  0  0  0  0
    5.2438   -0.9824    1.2016 O   0  0  0  0  0  0  0  0  0  0  0  0
    4.1918  -10.6515    2.8146 H   0  0  0  0  0  0  0  0  0  0  0  0
    2.5130  -11.0493    3.1777 H   0  0  0  0  0  0  0  0  0  0  0  0
    3.5069  -10.2521    4.3986 H   0  0  0  0  0  0  0  0  0  0  0  0
    2.5428   -6.4327    2.8367 H   0  0  0  0  0  0  0  0  0  0  0  0
    4.4772   -7.2195    0.5759 H   0  0  0  0  0  0  0  0  0  0  0  0
    2.8031   -6.8989    0.4976 H   0  0  0  0  0  0  0  0  0  0  0  0
    2.3989   -3.4297    0.8484 H   0  0  0  0  0  0  0  0  0  0  0  0
    2.2397   -4.6612    2.0074 H   0  0  0  0  0  0  0  0  0  0  0  0
    1.8452   -4.9365    0.3664 H   0  0  0  0  0  0  0  0  0  0  0  0
    4.9623   -4.9553   -1.2624 H   0  0  0  0  0  0  0  0  0  0  0  0
    3.3654   -3.8510   -2.5805 H   0  0  0  0  0  0  0  0  0  0  0  0
    2.5753   -3.0252   -1.2077 H   0  0  0  0  0  0  0  0  0  0  0  0
    6.6896   -2.0564   -2.3102 H   0  0  0  0  0  0  0  0  0  0  0  0
    5.4619   -2.3616   -3.5368 H   0  0  0  0  0  0  0  0  0  0  0  0
    6.1459   -3.6874   -2.6253 H   0  0  0  0  0  0  0  0  0  0  0  0
    5.0504   -0.2793   -1.4352 H   0  0  0  0  0  0  0  0  0  0  0  0
    3.4166   -0.7680   -0.9854 H   0  0  0  0  0  0  0  0  0  0  0  0
    3.8875   -0.7647   -2.6617 H   0  0  0  0  0  0  0  0  0  0  0  0
    6.7951   -4.0516   -0.3482 H   0  0  0  0  0  0  0  0  0  0  0  0
    6.8154   -3.0153    1.0498 H   0  0  0  0  0  0  0  0  0  0  0  0
    7.4843   -5.6186    1.5539 H   0  0  0  0  0  0  0  0  0  0  0  0
    6.6775   -6.2172    0.1230 H   0  0  0  0  0  0  0  0  0  0  0  0
    6.2874   -6.8732    1.6751 H   0  0  0  0  0  0  0  0  0  0  0  0
    6.1289   -4.3044    3.2005 H   0  0  0  0  0  0  0  0  0  0  0  0
    5.3797   -6.2952    3.4154 H   0  0  0  0  0  0  0  0  0  0  0  0
    6.3115   -7.5440    4.7958 H   0  0  0  0  0  0  0  0  0  0  0  0
    6.5401   -7.4504    6.5230 H   0  0  0  0  0  0  0  0  0  0  0  0
    7.3842   -6.3049    5.4798 H   0  0  0  0  0  0  0  0  0  0  0  0
    6.1117   -3.0939    6.9822 H   0  0  0  0  0  0  0  0  0  0  0  0
    3.5343   -1.3835    5.7355 H   0  0  0  0  0  0  0  0  0  0  0  0
    5.1935   -1.5628    5.1907 H   0  0  0  0  0  0  0  0  0  0  0  0
    3.5803   -1.1456    3.3808 H   0  0  0  0  0  0  0  0  0  0  0  0
    1.6551   -2.0303    4.3814 H   0  0  0  0  0  0  0  0  0  0  0  0
    1.7916   -2.7470    2.8137 H   0  0  0  0  0  0  0  0  0  0  0  0
    1.8566   -4.3136    7.1166 H   0  0  0  0  0  0  0  0  0  0  0  0
    3.2167   -5.3002    7.5581 H   0  0  0  0  0  0  0  0  0  0  0  0
    2.0045   -5.9475    6.4920 H   0  0  0  0  0  0  0  0  0  0  0  0
    5.5849   -2.3834    2.9770 H   0  0  0  0  0  0  0  0  0  0  0  0
    3.4818   -1.7959    1.0612 H   0  0  0  0  0  0  0  0  0  0  0  0
    4.9632   -0.4625    0.4648 H   0  0  0  0  0  0  0  0  0  0  0  0
  1  2  1  0
  1 36  1  0
  1 37  1  0
  1 38  1  0
  2  3  2  0
  2  4  1  0
  4  5  1  0
  5 19  1  0
  5  6  1  0
  5 39  1  6
  6  7  1  0
  6 40  1  0
  6 41  1  0
  7 16  1  0
  7  8  1  1
  7  9  1  0
  8 42  1  0
  8 43  1  0
  8 44  1  0
  9 14  1  0
  9 10  1  0
  9 45  1  6
 10 11  1  0
 10 46  1  0
 10 47  1  0
 11 12  1  0
 11 13  1  0
 14 11  1  6
 12 48  1  0
 12 49  1  0
 12 50  1  0
 13 51  1  0
 13 52  1  0
 13 53  1  0
 14 34  1  0
 14 15  1  0
 15 16  1  0
 15 54  1  0
 15 55  1  0
 16 17  1  1
 16 18  1  0
 17 56  1  0
 17 57  1  0
 17 58  1  0
 18 33  1  0
 18 19  1  0
 18 59  1  1
 19 20  1  0
 19 60  1  1
 20 31  1  0
 20 21  2  0
 21 22  1  0
 21 23  1  0
 22 61  1  0
 22 62  1  0
 22 63  1  0
 23 24  1  0
 24 25  2  0
 24 64  1  0
 25 31  1  0
 25 26  1  0
 26 27  1  0
 26 65  1  0
 26 66  1  0
 27 28  1  0
 27 33  1  0
 27 67  1  6
 28 29  1  0
 28 68  1  0
 28 69  1  0
 29 30  2  0
 29 31  1  0
 31 32  1  1
 32 70  1  0
 32 71  1  0
 32 72  1  0
 33 34  1  0
 33 73  1  1
 34 35  1  0
 34 74  1  6
 35 75  1  0
M  END
>  <i_m_ct_stereo_status>  (149) 
1

>  <s_m_source_file>  (149) 
/var/tmp/pbs.5076255.sched01/tmpp9awzhar/40nweoahkg.sdf

>  <i_m_source_file_index>  (149) 
18

>  <i_lp_mmshare_version>  (149) 
48012

>  <i_f3d_flags>  (149) 
0

>  <s_epik_input>  (149) 
W0NIM11DMShbQ0gzXSlbQ0gyXVtDQEBIXShbQ0BdMTIzKVtDQF00KFtDSDNdKVtDQF0oW0NIMl0yKShbQ0gzXSlbQ0BASF01W0NASF0oW0NAQEhdKFtDSDJdNClPQyg9TylbQ0gzXSlDPTZbQ0BAXTcoW0NIM10pQyg9W0NIXU9DNltDSDNdKVtDSDJdW0NASF0oW0NIMl1DNz1PKVtDQEBIXTVbQ0BIXTNbT0hd

>  <s_epik_cmdline>  (149) 
J2VwaWtfcHl0aG9uJywgJy1waHQnLCAnMi4wJywgJy1waCcsICc3LjAnLCAnLXRuJywgJzgnLCAnLW1hJywgJzIwMCcsICctaW1hZScsICc8aW5maWxlLm1hZT4nLCAnLW9tYWUnLCAnPG91dGZpbGUubWFlPic=

>  <r_lp_tautomer_probability>  (149) 
1

>  <r_epik_Ionization_Penalty>  (149) 
3.56786e-07

>  <r_epik_Ionization_Penalty_Charging>  (149) 
0

>  <r_epik_Ionization_Penalty_Neutral>  (149) 
3.56786e-07

>  <r_epik_State_Penalty>  (149) 
-0

>  <r_epik_Charging_Adjusted_Penalty>  (149) 
0

>  <i_epik_Tot_Q>  (149) 
0

>  <i_epik_Tot_abs_Q>  (149) 
0

>  <s_epik_Chemistry_Notes>  (149) 
This compound has an ester and may undergo hydrolysis at high or low pH.

>  <s_lp_Force_Field>  (149) 
OPLS3e

>  <r_lp_Energy>  (149) 
215.773

>  <b_lp_Chiralities_Consistent>  (149) 
1

>  <s_lp_Variant>  (149) 
41:0-1

>  <s_i_glide_gridfile>  (149) 
pfpi4k_grid

>  <i_i_glide_lignum>  (149) 
18

>  <i_i_glide_rotatable_bonds>  (149) 
3

>  <r_i_docking_score>  (149) 
-1.70228

>  <r_i_glide_ligand_efficiency>  (149) 
-0.0486367

>  <r_i_glide_ligand_efficiency_sa>  (149) 
-0.159094

>  <r_i_glide_ligand_efficiency_ln>  (149) 
-0.373689

>  <r_i_glide_gscore>  (149) 
-1.70228

>  <r_i_glide_lipo>  (149) 
-0.527118

>  <r_i_glide_hbond>  (149) 
0

>  <r_i_glide_metal>  (149) 
-0

>  <r_i_glide_rewards>  (149) 
-0.13203

>  <r_i_glide_evdw>  (149) 
-23.4083

>  <r_i_glide_ecoul>  (149) 
0.328692

>  <r_i_glide_erotb>  (149) 
0.0877903

>  <r_i_glide_esite>  (149) 
-0.00981308

>  <r_i_glide_emodel>  (149) 
-24.9737

>  <r_i_glide_energy>  (149) 
-23.0797

>  <r_i_glide_einternal>  (149) 
0.546008

>  <r_i_glide_intrahb_reward>  (149) 
-0

>  <i_i_glide_confnum>  (149) 
3

>  <i_i_glide_posenum>  (149) 
12

>  <r_i_glide_eff_state_penalty>  (149) 
0

>  <ligand_id>  (149) 
41

>  <original_smiles>  (149) 
CC(=O)OC1CC2(C)C3CC(C)(C)C34CC2(C)C2C1C1=C(C)OC=C3CC(CC(=O)C31C)C2C4O

>  <smiles>  (149) 
[H]OC1([H])C2([H])C3([H])C([H])([H])C(=O)C4(C([H])([H])[H])C(=C([H])OC(C([H])([H])[H])=C4C4([H])C([H])(OC(=O)C([H])([H])[H])C([H])([H])C5(C([H])([H])[H])C6([H])C([H])([H])C(C([H])([H])[H])(C([H])([H])[H])C16C([H])([H])C5(C([H])([H])[H])C42[H])C3([H])[H]

$$$$
41:0:1
     RDKit          3D

 75 81  0  0  1  0  0  0  0  0999 V2000
    2.0035   -9.1921    4.0174 C   0  0  0  0  0  0  0  0  0  0  0  0
    1.8151   -7.8600    3.2961 C   0  0  0  0  0  0  0  0  0  0  0  0
    0.7186   -7.5154    2.8505 O   0  0  0  0  0  0  0  0  0  0  0  0
    2.9584   -7.1432    3.2219 O   0  0  0  0  0  0  0  0  0  0  0  0
    2.9694   -5.8538    2.6116 C   0  0  2  0  0  0  0  0  0  0  0  0
    3.1963   -6.0222    1.0372 C   0  0  0  0  0  0  0  0  0  0  0  0
    3.7326   -4.6584    0.5305 C   0  0  2  0  0  0  0  0  0  0  0  0
    2.4342   -3.8120    0.7111 C   0  0  0  0  0  0  0  0  0  0  0  0
    4.1960   -4.1960   -0.8234 C   0  0  1  0  0  0  0  0  0  0  0  0
    3.5952   -3.3279   -1.9307 C   0  0  0  0  0  0  0  0  0  0  0  0
    4.9267   -2.5284   -1.9388 C   0  0  0  0  0  0  0  0  0  0  0  0
    6.0283   -3.0643   -2.8525 C   0  0  0  0  0  0  0  0  0  0  0  0
    4.7158   -1.0548   -2.3059 C   0  0  0  0  0  0  0  0  0  0  0  0
    5.0359   -2.9213   -0.4288 C   0  0  2  0  0  0  0  0  0  0  0  0
    6.1016   -3.6488    0.2843 C   0  0  0  0  0  0  0  0  0  0  0  0
    5.1852   -4.5156    1.2141 C   0  0  2  0  0  0  0  0  0  0  0  0
    6.0499   -5.8211    1.3265 C   0  0  0  0  0  0  0  0  0  0  0  0
    4.8883   -3.8569    2.5449 C   0  0  2  0  0  0  0  0  0  0  0  0
    4.0173   -4.9148    3.3653 C   0  0  1  0  0  0  0  0  0  0  0  0
    3.7858   -4.5033    4.8351 C   0  0  0  0  0  0  0  0  0  0  0  0
    4.6593   -4.8801    5.8198 C   0  0  0  0  0  0  0  0  0  0  0  0
    5.6472   -6.0323    5.8469 C   0  0  0  0  0  0  0  0  0  0  0  0
    4.9698   -3.9648    6.8089 O   0  0  0  0  0  0  0  0  0  0  0  0
    4.9627   -2.6478    6.3879 C   0  0  0  0  0  0  0  0  0  0  0  0
    4.0357   -2.2582    5.4893 C   0  0  0  0  0  0  0  0  0  0  0  0
    4.2293   -1.0540    4.5875 C   0  0  0  0  0  0  0  0  0  0  0  0
    3.7533   -1.3336    3.1388 C   0  0  2  0  0  0  0  0  0  0  0  0
    2.2568   -1.6326    3.1905 C   0  0  0  0  0  0  0  0  0  0  0  0
    1.9433   -2.8395    4.0655 C   0  0  0  0  0  0  0  0  0  0  0  0
    0.8762   -3.4364    3.9129 O   0  0  0  0  0  0  0  0  0  0  0  0
    2.9340   -3.2662    5.1685 C   0  0  1  0  0  0  0  0  0  0  0  0
    2.0612   -3.5148    6.4376 C   0  0  0  0  0  0  0  0  0  0  0  0
    4.6344   -2.2912    2.2425 C   0  0  2  0  0  0  0  0  0  0  0  0
    4.6507   -1.8399    0.6875 C   0  0  1  0  0  0  0  0  0  0  0  0
    5.5915   -0.7831    0.5736 O   0  0  0  0  0  0  0  0  0  0  0  0
    2.7229   -9.8135    3.4846 H   0  0  0  0  0  0  0  0  0  0  0  0
    1.0634   -9.7402    4.0792 H   0  0  0  0  0  0  0  0  0  0  0  0
    2.3691   -9.0357    5.0326 H   0  0  0  0  0  0  0  0  0  0  0  0
    1.9840   -5.4266    2.7876 H   0  0  0  0  0  0  0  0  0  0  0  0
    3.8533   -6.8538    0.7973 H   0  0  0  0  0  0  0  0  0  0  0  0
    2.2562   -6.3074    0.5631 H   0  0  0  0  0  0  0  0  0  0  0  0
    2.4093   -2.7884    0.3891 H   0  0  0  0  0  0  0  0  0  0  0  0
    1.9922   -3.8017    1.6849 H   0  0  0  0  0  0  0  0  0  0  0  0
    1.7054   -4.2660    0.0477 H   0  0  0  0  0  0  0  0  0  0  0  0
    4.7741   -4.9845   -1.3120 H   0  0  0  0  0  0  0  0  0  0  0  0
    3.4236   -3.8535   -2.8724 H   0  0  0  0  0  0  0  0  0  0  0  0
    2.7253   -2.7264   -1.6820 H   0  0  0  0  0  0  0  0  0  0  0  0
    6.9848   -2.5777   -2.6628 H   0  0  0  0  0  0  0  0  0  0  0  0
    5.7557   -2.9296   -3.8935 H   0  0  0  0  0  0  0  0  0  0  0  0
    6.1927   -4.1303   -2.7300 H   0  0  0  0  0  0  0  0  0  0  0  0
    5.6017   -0.4523   -2.1160 H   0  0  0  0  0  0  0  0  0  0  0  0
    3.8962   -0.6229   -1.7297 H   0  0  0  0  0  0  0  0  0  0  0  0
    4.4444   -0.9344   -3.3556 H   0  0  0  0  0  0  0  0  0  0  0  0
    6.6878   -4.2431   -0.4185 H   0  0  0  0  0  0  0  0  0  0  0  0
    6.8167   -3.0249    0.8196 H   0  0  0  0  0  0  0  0  0  0  0  0
    7.0384   -5.5958    1.7265 H   0  0  0  0  0  0  0  0  0  0  0  0
    6.2018   -6.2623    0.3415 H   0  0  0  0  0  0  0  0  0  0  0  0
    5.6498   -6.6222    1.9428 H   0  0  0  0  0  0  0  0  0  0  0  0
    5.8340   -3.8555    3.0866 H   0  0  0  0  0  0  0  0  0  0  0  0
    4.7754   -5.6617    3.5226 H   0  0  0  0  0  0  0  0  0  0  0  0
    5.4366   -6.8152    5.1234 H   0  0  0  0  0  0  0  0  0  0  0  0
    5.6051   -6.5023    6.8315 H   0  0  0  0  0  0  0  0  0  0  0  0
    6.6642   -5.6661    5.6940 H   0  0  0  0  0  0  0  0  0  0  0  0
    5.8623   -2.1115    6.6457 H   0  0  0  0  0  0  0  0  0  0  0  0
    3.6435   -0.2324    5.0062 H   0  0  0  0  0  0  0  0  0  0  0  0
    5.2747   -0.7404    4.5991 H   0  0  0  0  0  0  0  0  0  0  0  0
    3.8187   -0.3566    2.6511 H   0  0  0  0  0  0  0  0  0  0  0  0
    1.7402   -0.7834    3.6364 H   0  0  0  0  0  0  0  0  0  0  0  0
    1.8268   -1.7400    2.1986 H   0  0  0  0  0  0  0  0  0  0  0  0
    1.4624   -2.6361    6.6741 H   0  0  0  0  0  0  0  0  0  0  0  0
    2.6277   -3.7410    7.3382 H   0  0  0  0  0  0  0  0  0  0  0  0
    1.3750   -4.3478    6.2964 H   0  0  0  0  0  0  0  0  0  0  0  0
    5.6182   -1.9344    2.5580 H   0  0  0  0  0  0  0  0  0  0  0  0
    3.7276   -1.3219    0.4326 H   0  0  0  0  0  0  0  0  0  0  0  0
    5.1778    0.0090    0.8803 H   0  0  0  0  0  0  0  0  0  0  0  0
  1  2  1  0
  1 36  1  0
  1 37  1  0
  1 38  1  0
  2  3  2  0
  2  4  1  0
  4  5  1  0
  5 19  1  0
  5  6  1  0
  5 39  1  6
  6  7  1  0
  6 40  1  0
  6 41  1  0
  7 16  1  0
  7  8  1  1
  7  9  1  0
  8 42  1  0
  8 43  1  0
  8 44  1  0
  9 14  1  0
  9 10  1  0
  9 45  1  6
 10 11  1  0
 10 46  1  0
 10 47  1  0
 11 12  1  0
 11 13  1  0
 14 11  1  6
 12 48  1  0
 12 49  1  0
 12 50  1  0
 13 51  1  0
 13 52  1  0
 13 53  1  0
 14 34  1  0
 14 15  1  0
 15 16  1  0
 15 54  1  0
 15 55  1  0
 16 17  1  1
 16 18  1  0
 17 56  1  0
 17 57  1  0
 17 58  1  0
 18 33  1  0
 18 19  1  0
 18 59  1  1
 19 20  1  0
 19 60  1  1
 20 31  1  0
 20 21  2  0
 21 22  1  0
 21 23  1  0
 22 61  1  0
 22 62  1  0
 22 63  1  0
 23 24  1  0
 24 25  2  0
 24 64  1  0
 25 31  1  0
 25 26  1  0
 26 27  1  0
 26 65  1  0
 26 66  1  0
 27 28  1  0
 27 33  1  0
 27 67  1  6
 28 29  1  0
 28 68  1  0
 28 69  1  0
 29 30  2  0
 29 31  1  0
 31 32  1  1
 32 70  1  0
 32 71  1  0
 32 72  1  0
 33 34  1  0
 33 73  1  1
 34 35  1  0
 34 74  1  6
 35 75  1  0
M  END
>  <i_m_ct_stereo_status>  (150) 
1

>  <s_m_source_file>  (150) 
/var/tmp/pbs.5076255.sched01/tmpp9awzhar/40nweoahkg.sdf

>  <i_m_source_file_index>  (150) 
18

>  <i_lp_mmshare_version>  (150) 
48012

>  <i_f3d_flags>  (150) 
0

>  <s_epik_input>  (150) 
W0NIM11DMShbQ0gzXSlbQ0gyXVtDQEBIXShbQ0BdMTIzKVtDQF00KFtDSDNdKVtDQF0oW0NIMl0yKShbQ0gzXSlbQ0BASF01W0NASF0oW0NAQEhdKFtDSDJdNClPQyg9TylbQ0gzXSlDPTZbQ0BAXTcoW0NIM10pQyg9W0NIXU9DNltDSDNdKVtDSDJdW0NASF0oW0NIMl1DNz1PKVtDQEBIXTVbQ0BIXTNbT0hd

>  <s_epik_cmdline>  (150) 
J2VwaWtfcHl0aG9uJywgJy1waHQnLCAnMi4wJywgJy1waCcsICc3LjAnLCAnLXRuJywgJzgnLCAnLW1hJywgJzIwMCcsICctaW1hZScsICc8aW5maWxlLm1hZT4nLCAnLW9tYWUnLCAnPG91dGZpbGUubWFlPic=

>  <r_lp_tautomer_probability>  (150) 
1

>  <r_epik_Ionization_Penalty>  (150) 
3.56786e-07

>  <r_epik_Ionization_Penalty_Charging>  (150) 
0

>  <r_epik_Ionization_Penalty_Neutral>  (150) 
3.56786e-07

>  <r_epik_State_Penalty>  (150) 
-0

>  <r_epik_Charging_Adjusted_Penalty>  (150) 
0

>  <i_epik_Tot_Q>  (150) 
0

>  <i_epik_Tot_abs_Q>  (150) 
0

>  <s_epik_Chemistry_Notes>  (150) 
This compound has an ester and may undergo hydrolysis at high or low pH.

>  <s_lp_Force_Field>  (150) 
OPLS3e

>  <r_lp_Energy>  (150) 
215.773

>  <b_lp_Chiralities_Consistent>  (150) 
1

>  <s_lp_Variant>  (150) 
41:0-1

>  <s_i_glide_gridfile>  (150) 
pfpi4k_grid

>  <i_i_glide_lignum>  (150) 
18

>  <i_i_glide_rotatable_bonds>  (150) 
3

>  <r_i_docking_score>  (150) 
-1.50418

>  <r_i_glide_ligand_efficiency>  (150) 
-0.0429764

>  <r_i_glide_ligand_efficiency_sa>  (150) 
-0.140579

>  <r_i_glide_ligand_efficiency_ln>  (150) 
-0.3302

>  <r_i_glide_gscore>  (150) 
-1.50418

>  <r_i_glide_lipo>  (150) 
-0.484116

>  <r_i_glide_hbond>  (150) 
0

>  <r_i_glide_metal>  (150) 
-0

>  <r_i_glide_rewards>  (150) 
-0.13955

>  <r_i_glide_evdw>  (150) 
-22.3607

>  <r_i_glide_ecoul>  (150) 
1.05797

>  <r_i_glide_erotb>  (150) 
0.0877903

>  <r_i_glide_esite>  (150) 
-0.00896255

>  <r_i_glide_emodel>  (150) 
-22.7516

>  <r_i_glide_energy>  (150) 
-21.3027

>  <r_i_glide_einternal>  (150) 
0.631913

>  <r_i_glide_intrahb_reward>  (150) 
-0

>  <i_i_glide_confnum>  (150) 
3

>  <i_i_glide_posenum>  (150) 
30

>  <r_i_glide_eff_state_penalty>  (150) 
0

>  <ligand_id>  (150) 
41

>  <original_smiles>  (150) 
CC(=O)OC1CC2(C)C3CC(C)(C)C34CC2(C)C2C1C1=C(C)OC=C3CC(CC(=O)C31C)C2C4O

>  <smiles>  (150) 
[H]OC1([H])C2([H])C3([H])C([H])([H])C(=O)C4(C([H])([H])[H])C(=C([H])OC(C([H])([H])[H])=C4C4([H])C([H])(OC(=O)C([H])([H])[H])C([H])([H])C5(C([H])([H])[H])C6([H])C([H])([H])C(C([H])([H])[H])(C([H])([H])[H])C16C([H])([H])C5(C([H])([H])[H])C42[H])C3([H])[H]

$$$$
41:0:2
     RDKit          3D

 75 81  0  0  1  0  0  0  0  0999 V2000
    0.5619   -8.7207    2.5020 C   0  0  0  0  0  0  0  0  0  0  0  0
    0.6844   -7.3016    1.9490 C   0  0  0  0  0  0  0  0  0  0  0  0
   -0.2874   -6.6938    1.5020 O   0  0  0  0  0  0  0  0  0  0  0  0
    1.9396   -6.8131    2.0322 O   0  0  0  0  0  0  0  0  0  0  0  0
    2.2230   -5.4618    1.6640 C   0  0  2  0  0  0  0  0  0  0  0  0
    2.1648   -5.3419    0.0822 C   0  0  0  0  0  0  0  0  0  0  0  0
    3.0353   -4.1206   -0.3170 C   0  0  2  0  0  0  0  0  0  0  0  0
    2.1394   -3.0103    0.2497 C   0  0  0  0  0  0  0  0  0  0  0  0
    3.3787   -3.4904   -1.6405 C   0  0  1  0  0  0  0  0  0  0  0  0
    2.8372   -2.2914   -2.4382 C   0  0  0  0  0  0  0  0  0  0  0  0
    4.3040   -1.8557   -2.5717 C   0  0  0  0  0  0  0  0  0  0  0  0
    4.9997   -2.4753   -3.7825 C   0  0  0  0  0  0  0  0  0  0  0  0
    4.5186   -0.3473   -2.6280 C   0  0  0  0  0  0  0  0  0  0  0  0
    4.5919   -2.5712   -1.2091 C   0  0  2  0  0  0  0  0  0  0  0  0
    5.4916   -3.6930   -0.8631 C   0  0  0  0  0  0  0  0  0  0  0  0
    4.5230   -4.4849    0.0760 C   0  0  2  0  0  0  0  0  0  0  0  0
    4.9618   -5.9549   -0.2004 C   0  0  0  0  0  0  0  0  0  0  0  0
    4.6206   -4.0638    1.5304 C   0  0  2  0  0  0  0  0  0  0  0  0
    3.6036   -5.0141    2.3284 C   0  0  1  0  0  0  0  0  0  0  0  0
    3.7124   -4.8972    3.8575 C   0  0  0  0  0  0  0  0  0  0  0  0
    4.5741   -5.6827    4.5593 C   0  0  0  0  0  0  0  0  0  0  0  0
    5.1839   -7.0326    4.1966 C   0  0  0  0  0  0  0  0  0  0  0  0
    5.2752   -5.1238    5.6111 O   0  0  0  0  0  0  0  0  0  0  0  0
    5.5861   -3.7877    5.4333 C   0  0  0  0  0  0  0  0  0  0  0  0
    4.7047   -2.9841    4.8118 C   0  0  0  0  0  0  0  0  0  0  0  0
    5.0727   -1.6935    4.0991 C   0  0  0  0  0  0  0  0  0  0  0  0
    4.3377   -1.5246    2.7543 C   0  0  2  0  0  0  0  0  0  0  0  0
    2.8545   -1.4380    3.0618 C   0  0  0  0  0  0  0  0  0  0  0  0
    2.3267   -2.6899    3.7596 C   0  0  0  0  0  0  0  0  0  0  0  0
    1.1396   -2.9448    3.7317 O   0  0  0  0  0  0  0  0  0  0  0  0
    3.3235   -3.5779    4.5548 C   0  0  1  0  0  0  0  0  0  0  0  0
    2.6136   -3.8698    5.9179 C   0  0  0  0  0  0  0  0  0  0  0  0
    4.7828   -2.4562    1.5555 C   0  0  2  0  0  0  0  0  0  0  0  0
    4.7107   -1.6913    0.1361 C   0  0  1  0  0  0  0  0  0  0  0  0
    5.8852   -0.9108    0.0094 O   0  0  0  0  0  0  0  0  0  0  0  0
    1.2067   -9.4051    1.9526 H   0  0  0  0  0  0  0  0  0  0  0  0
   -0.4617   -9.0915    2.4253 H   0  0  0  0  0  0  0  0  0  0  0  0
    0.8500   -8.7502    3.5532 H   0  0  0  0  0  0  0  0  0  0  0  0
    1.4231   -4.8577    2.0999 H   0  0  0  0  0  0  0  0  0  0  0  0
    2.5104   -6.2607   -0.3654 H   0  0  0  0  0  0  0  0  0  0  0  0
    1.1373   -5.2636   -0.2906 H   0  0  0  0  0  0  0  0  0  0  0  0
    2.3498   -1.9710    0.1522 H   0  0  0  0  0  0  0  0  0  0  0  0
    1.7975   -3.1174    1.2397 H   0  0  0  0  0  0  0  0  0  0  0  0
    1.2768   -3.1305   -0.3594 H   0  0  0  0  0  0  0  0  0  0  0  0
    3.5972   -4.2571   -2.3697 H   0  0  0  0  0  0  0  0  0  0  0  0
    2.3980   -2.5460   -3.4013 H   0  0  0  0  0  0  0  0  0  0  0  0
    2.2772   -1.5071   -1.9282 H   0  0  0  0  0  0  0  0  0  0  0  0
    6.0565   -2.4491   -3.4942 H   0  0  0  0  0  0  0  0  0  0  0  0
    4.7294   -1.9485   -4.7184 H   0  0  0  0  0  0  0  0  0  0  0  0
    4.8181   -3.5513   -3.9170 H   0  0  0  0  0  0  0  0  0  0  0  0
    5.5637   -0.0962   -2.4736 H   0  0  0  0  0  0  0  0  0  0  0  0
    3.9721    0.1340   -1.8153 H   0  0  0  0  0  0  0  0  0  0  0  0
    4.1660    0.0773   -3.5732 H   0  0  0  0  0  0  0  0  0  0  0  0
    5.7478   -4.2516   -1.7665 H   0  0  0  0  0  0  0  0  0  0  0  0
    6.4285   -3.3998   -0.3955 H   0  0  0  0  0  0  0  0  0  0  0  0
    6.0177   -6.0778    0.0308 H   0  0  0  0  0  0  0  0  0  0  0  0
    4.8242   -6.1913   -1.2515 H   0  0  0  0  0  0  0  0  0  0  0  0
    4.4295   -6.7341    0.3371 H   0  0  0  0  0  0  0  0  0  0  0  0
    5.5968   -4.4248    1.8574 H   0  0  0  0  0  0  0  0  0  0  0  0
    4.1197   -5.9466    2.1929 H   0  0  0  0  0  0  0  0  0  0  0  0
    4.6483   -7.5562    3.4028 H   0  0  0  0  0  0  0  0  0  0  0  0
    5.1457   -7.6785    5.0716 H   0  0  0  0  0  0  0  0  0  0  0  0
    6.2276   -6.9133    3.9063 H   0  0  0  0  0  0  0  0  0  0  0  0
    6.6278   -3.5651    5.5956 H   0  0  0  0  0  0  0  0  0  0  0  0
    4.8471   -0.8649    4.7697 H   0  0  0  0  0  0  0  0  0  0  0  0
    6.1249   -1.6582    3.8722 H   0  0  0  0  0  0  0  0  0  0  0  0
    4.6257   -0.5180    2.4425 H   0  0  0  0  0  0  0  0  0  0  0  0
    2.6861   -0.6047    3.7436 H   0  0  0  0  0  0  0  0  0  0  0  0
    2.2708   -1.2111    2.1758 H   0  0  0  0  0  0  0  0  0  0  0  0
    2.3433   -2.9418    6.4199 H   0  0  0  0  0  0  0  0  0  0  0  0
    3.2203   -4.4258    6.6361 H   0  0  0  0  0  0  0  0  0  0  0  0
    1.6975   -4.4481    5.7887 H   0  0  0  0  0  0  0  0  0  0  0  0
    5.8623   -2.4398    1.7210 H   0  0  0  0  0  0  0  0  0  0  0  0
    3.9602   -0.9136    0.1617 H   0  0  0  0  0  0  0  0  0  0  0  0
    5.6632   -0.0277    0.2757 H   0  0  0  0  0  0  0  0  0  0  0  0
  1  2  1  0
  1 36  1  0
  1 37  1  0
  1 38  1  0
  2  3  2  0
  2  4  1  0
  4  5  1  0
  5 19  1  0
  5  6  1  0
  5 39  1  1
  6  7  1  0
  6 40  1  0
  6 41  1  0
  7 16  1  0
  7  8  1  1
  7  9  1  0
  8 42  1  0
  8 43  1  0
  8 44  1  0
  9 14  1  0
  9 10  1  0
  9 45  1  6
 10 11  1  0
 10 46  1  0
 10 47  1  0
 11 12  1  0
 11 13  1  0
 14 11  1  6
 12 48  1  0
 12 49  1  0
 12 50  1  0
 13 51  1  0
 13 52  1  0
 13 53  1  0
 14 34  1  0
 14 15  1  0
 15 16  1  0
 15 54  1  0
 15 55  1  0
 16 17  1  1
 16 18  1  0
 17 56  1  0
 17 57  1  0
 17 58  1  0
 18 33  1  0
 18 19  1  0
 18 59  1  1
 19 20  1  0
 19 60  1  1
 20 31  1  0
 20 21  2  0
 21 22  1  0
 21 23  1  0
 22 61  1  0
 22 62  1  0
 22 63  1  0
 23 24  1  0
 24 25  2  0
 24 64  1  0
 25 31  1  0
 25 26  1  0
 26 27  1  0
 26 65  1  0
 26 66  1  0
 27 28  1  0
 27 33  1  0
 27 67  1  6
 28 29  1  0
 28 68  1  0
 28 69  1  0
 29 30  2  0
 29 31  1  0
 31 32  1  1
 32 70  1  0
 32 71  1  0
 32 72  1  0
 33 34  1  0
 33 73  1  1
 34 35  1  0
 34 74  1  1
 35 75  1  0
M  END
>  <i_m_ct_stereo_status>  (151) 
1

>  <s_m_source_file>  (151) 
/var/tmp/pbs.5076255.sched01/tmpp9awzhar/40nweoahkg.sdf

>  <i_m_source_file_index>  (151) 
18

>  <i_lp_mmshare_version>  (151) 
48012

>  <i_f3d_flags>  (151) 
0

>  <s_epik_input>  (151) 
W0NIM11DMShbQ0gzXSlbQ0gyXVtDQEBIXShbQ0BdMTIzKVtDQF00KFtDSDNdKVtDQF0oW0NIMl0yKShbQ0gzXSlbQ0BASF01W0NASF0oW0NAQEhdKFtDSDJdNClPQyg9TylbQ0gzXSlDPTZbQ0BAXTcoW0NIM10pQyg9W0NIXU9DNltDSDNdKVtDSDJdW0NASF0oW0NIMl1DNz1PKVtDQEBIXTVbQ0BIXTNbT0hd

>  <s_epik_cmdline>  (151) 
J2VwaWtfcHl0aG9uJywgJy1waHQnLCAnMi4wJywgJy1waCcsICc3LjAnLCAnLXRuJywgJzgnLCAnLW1hJywgJzIwMCcsICctaW1hZScsICc8aW5maWxlLm1hZT4nLCAnLW9tYWUnLCAnPG91dGZpbGUubWFlPic=

>  <r_lp_tautomer_probability>  (151) 
1

>  <r_epik_Ionization_Penalty>  (151) 
3.56786e-07

>  <r_epik_Ionization_Penalty_Charging>  (151) 
0

>  <r_epik_Ionization_Penalty_Neutral>  (151) 
3.56786e-07

>  <r_epik_State_Penalty>  (151) 
-0

>  <r_epik_Charging_Adjusted_Penalty>  (151) 
0

>  <i_epik_Tot_Q>  (151) 
0

>  <i_epik_Tot_abs_Q>  (151) 
0

>  <s_epik_Chemistry_Notes>  (151) 
This compound has an ester and may undergo hydrolysis at high or low pH.

>  <s_lp_Force_Field>  (151) 
OPLS3e

>  <r_lp_Energy>  (151) 
215.773

>  <b_lp_Chiralities_Consistent>  (151) 
1

>  <s_lp_Variant>  (151) 
41:0-1

>  <s_i_glide_gridfile>  (151) 
pfpi4k_grid

>  <i_i_glide_lignum>  (151) 
18

>  <i_i_glide_rotatable_bonds>  (151) 
3

>  <r_i_docking_score>  (151) 
-1.45613

>  <r_i_glide_ligand_efficiency>  (151) 
-0.0416037

>  <r_i_glide_ligand_efficiency_sa>  (151) 
-0.136088

>  <r_i_glide_ligand_efficiency_ln>  (151) 
-0.319652

>  <r_i_glide_gscore>  (151) 
-1.45613

>  <r_i_glide_lipo>  (151) 
-0.367899

>  <r_i_glide_hbond>  (151) 
-0.22548

>  <r_i_glide_metal>  (151) 
-0

>  <r_i_glide_rewards>  (151) 
-0.132963

>  <r_i_glide_evdw>  (151) 
-8.36272

>  <r_i_glide_ecoul>  (151) 
-2.2814

>  <r_i_glide_erotb>  (151) 
0.0877903

>  <r_i_glide_esite>  (151) 
-0.0572315

>  <r_i_glide_emodel>  (151) 
-11.2164

>  <r_i_glide_energy>  (151) 
-10.6441

>  <r_i_glide_einternal>  (151) 
1.36056

>  <r_i_glide_intrahb_reward>  (151) 
-0

>  <i_i_glide_confnum>  (151) 
3

>  <i_i_glide_posenum>  (151) 
36

>  <r_i_glide_eff_state_penalty>  (151) 
0

>  <ligand_id>  (151) 
41

>  <original_smiles>  (151) 
CC(=O)OC1CC2(C)C3CC(C)(C)C34CC2(C)C2C1C1=C(C)OC=C3CC(CC(=O)C31C)C2C4O

>  <smiles>  (151) 
[H]OC1([H])C2([H])C3([H])C([H])([H])C(=O)C4(C([H])([H])[H])C(=C([H])OC(C([H])([H])[H])=C4C4([H])C([H])(OC(=O)C([H])([H])[H])C([H])([H])C5(C([H])([H])[H])C6([H])C([H])([H])C(C([H])([H])[H])(C([H])([H])[H])C16C([H])([H])C5(C([H])([H])[H])C42[H])C3([H])[H]

$$$$
42:0:0
     RDKit          3D

 45 48  0  0  1  0  0  0  0  0999 V2000
    2.7404    4.3794    2.5996 C   0  0  0  0  0  0  0  0  0  0  0  0
    2.5616    2.8988    2.9017 C   0  0  0  0  0  0  0  0  0  0  0  0
    1.1922    2.4740    3.0234 N   0  0  0  0  0  0  0  0  0  0  0  0
    0.3524    3.1232    3.8721 N   0  0  0  0  0  0  0  0  0  0  0  0
   -0.8082    2.5043    3.7760 C   0  0  0  0  0  0  0  0  0  0  0  0
   -0.7446    1.3544    2.8988 C   0  0  0  0  0  0  0  0  0  0  0  0
    0.5409    1.3773    2.5144 C   0  0  0  0  0  0  0  0  0  0  0  0
    1.1907    0.4287    1.7199 N   0  0  0  0  0  0  0  0  0  0  0  0
    2.2159   -0.3778    2.1525 C   0  0  0  0  0  0  0  0  0  0  0  0
    2.6453   -0.6968    3.7394 S   0  0  0  0  0  0  0  0  0  0  0  0
    2.8026   -0.9284    1.0876 N   0  0  0  0  0  0  0  0  0  0  0  0
    4.1008   -1.6707    1.0681 C   0  0  2  0  0  0  0  0  0  0  0  0
    5.1685   -0.9690    0.1982 C   0  0  2  0  0  0  0  0  0  0  0  0
    4.7508   -1.0149   -1.2864 C   0  0  0  0  0  0  0  0  0  0  0  0
    4.5823   -2.4830   -1.7291 C   0  0  1  0  0  0  0  0  0  0  0  0
    5.9206   -3.2269   -1.5711 C   0  0  0  0  0  0  0  0  0  0  0  0
    6.3562   -3.1827   -0.0900 C   0  0  1  0  0  0  0  0  0  0  0  0
    6.5142   -1.7198    0.3706 C   0  0  0  0  0  0  0  0  0  0  0  0
    5.2856   -3.8629    0.7834 C   0  0  0  0  0  0  0  0  0  0  0  0
    3.9324   -3.1306    0.6118 C   0  0  2  0  0  0  0  0  0  0  0  0
    3.5068   -3.1782   -0.8675 C   0  0  0  0  0  0  0  0  0  0  0  0
    3.7982    4.6333    2.4813 H   0  0  0  0  0  0  0  0  0  0  0  0
    2.3138    4.9939    3.3941 H   0  0  0  0  0  0  0  0  0  0  0  0
    2.2222    4.6166    1.6695 H   0  0  0  0  0  0  0  0  0  0  0  0
    3.0305    2.3446    2.0827 H   0  0  0  0  0  0  0  0  0  0  0  0
    3.0845    2.6306    3.8226 H   0  0  0  0  0  0  0  0  0  0  0  0
   -1.5923    2.8727    4.3946 H   0  0  0  0  0  0  0  0  0  0  0  0
   -1.5263    0.6182    2.7033 H   0  0  0  0  0  0  0  0  0  0  0  0
    2.2690   -0.8065    0.2347 H   0  0  0  0  0  0  0  0  0  0  0  0
    4.5698   -1.7428    2.0484 H   0  0  0  0  0  0  0  0  0  0  0  0
    5.2991    0.0634    0.5313 H   0  0  0  0  0  0  0  0  0  0  0  0
    3.8136   -0.4826   -1.4373 H   0  0  0  0  0  0  0  0  0  0  0  0
    5.4917   -0.5064   -1.8995 H   0  0  0  0  0  0  0  0  0  0  0  0
    4.2694   -2.5161   -2.7717 H   0  0  0  0  0  0  0  0  0  0  0  0
    5.7977   -4.2556   -1.9072 H   0  0  0  0  0  0  0  0  0  0  0  0
    6.6827   -2.7769   -2.2092 H   0  0  0  0  0  0  0  0  0  0  0  0
    7.3064   -3.7061    0.0154 H   0  0  0  0  0  0  0  0  0  0  0  0
    7.2945   -1.2407   -0.2110 H   0  0  0  0  0  0  0  0  0  0  0  0
    6.8590   -1.6826    1.4064 H   0  0  0  0  0  0  0  0  0  0  0  0
    5.1832   -4.9074    0.5046 H   0  0  0  0  0  0  0  0  0  0  0  0
    5.6059   -3.8500    1.8268 H   0  0  0  0  0  0  0  0  0  0  0  0
    3.1878   -3.6312    1.2379 H   0  0  0  0  0  0  0  0  0  0  0  0
    2.5437   -2.6834   -1.0014 H   0  0  0  0  0  0  0  0  0  0  0  0
    3.3748   -4.2095   -1.1804 H   0  0  0  0  0  0  0  0  0  0  0  0
    0.8258    0.3050    0.7988 H   0  0  0  0  0  0  0  0  0  0  0  0
  1  2  1  0
  1 22  1  0
  1 23  1  0
  1 24  1  0
  2  3  1  0
  2 25  1  0
  2 26  1  0
  3  7  1  0
  3  4  1  0
  4  5  2  0
  5  6  1  0
  5 27  1  0
  6  7  2  0
  6 28  1  0
  7  8  1  0
  8  9  1  0
  8 45  1  0
  9 10  2  0
  9 11  1  0
 11 12  1  0
 11 29  1  0
 12 20  1  0
 12 13  1  0
 12 30  1  1
 13 18  1  0
 13 14  1  0
 13 31  1  1
 14 15  1  0
 14 32  1  0
 14 33  1  0
 15 21  1  0
 15 16  1  0
 15 34  1  6
 16 17  1  0
 16 35  1  0
 16 36  1  0
 17 18  1  0
 17 19  1  0
 17 37  1  6
 18 38  1  0
 18 39  1  0
 19 20  1  0
 19 40  1  0
 19 41  1  0
 20 21  1  0
 20 42  1  1
 21 43  1  0
 21 44  1  0
M  END
>  <i_m_ct_stereo_status>  (152) 
1

>  <s_m_source_file>  (152) 
/var/tmp/pbs.5076255.sched01/tmpp9awzhar/40nweoahkg.sdf

>  <i_m_source_file_index>  (152) 
19

>  <i_lp_mmshare_version>  (152) 
48012

>  <i_f3d_flags>  (152) 
0

>  <s_epik_input>  (152) 
W0NIM11bQ0gyXW4xW25IXVtjSF1bY0hdY1wxPU4vQyg9UylbTkhdW0NASF0oW0NAQEhdMjMpW0NASF00W0NIMl1bQ0BASF0oW0NIMl0zKVtDSDJdW0NAQEhdKFtDSDJdMilbQ0gyXTQ=

>  <s_epik_cmdline>  (152) 
J2VwaWtfcHl0aG9uJywgJy1waHQnLCAnMi4wJywgJy1waCcsICc3LjAnLCAnLXRuJywgJzgnLCAnLW1hJywgJzIwMCcsICctaW1hZScsICc8aW5maWxlLm1hZT4nLCAnLW9tYWUnLCAnPG91dGZpbGUubWFlPic=

>  <r_lp_tautomer_probability>  (152) 
1

>  <r_epik_Ionization_Penalty>  (152) 
5.68263e-07

>  <r_epik_Ionization_Penalty_Charging>  (152) 
0

>  <r_epik_Ionization_Penalty_Neutral>  (152) 
5.68263e-07

>  <r_epik_State_Penalty>  (152) 
-0

>  <r_epik_Charging_Adjusted_Penalty>  (152) 
0

>  <i_epik_Tot_Q>  (152) 
0

>  <i_epik_Tot_abs_Q>  (152) 
0

>  <s_lp_Force_Field>  (152) 
OPLS3e

>  <r_lp_Energy>  (152) 
10.3893

>  <b_lp_Chiralities_Consistent>  (152) 
1

>  <s_lp_Variant>  (152) 
42:0-1

>  <s_i_glide_gridfile>  (152) 
pfpi4k_grid

>  <i_i_glide_lignum>  (152) 
19

>  <i_i_glide_rotatable_bonds>  (152) 
5

>  <r_i_docking_score>  (152) 
-3.60315

>  <r_i_glide_ligand_efficiency>  (152) 
-0.171579

>  <r_i_glide_ligand_efficiency_sa>  (152) 
-0.473372

>  <r_i_glide_ligand_efficiency_ln>  (152) 
-0.890871

>  <r_i_glide_gscore>  (152) 
-3.60315

>  <r_i_glide_lipo>  (152) 
-0.36169

>  <r_i_glide_hbond>  (152) 
-0.292459

>  <r_i_glide_metal>  (152) 
-0

>  <r_i_glide_rewards>  (152) 
-1.33326

>  <r_i_glide_evdw>  (152) 
-24.8402

>  <r_i_glide_ecoul>  (152) 
-4.81566

>  <r_i_glide_erotb>  (152) 
0.596891

>  <r_i_glide_esite>  (152) 
-0.248269

>  <r_i_glide_emodel>  (152) 
-32.201

>  <r_i_glide_energy>  (152) 
-29.6559

>  <r_i_glide_einternal>  (152) 
8.01347

>  <r_i_glide_intrahb_reward>  (152) 
-0

>  <i_i_glide_confnum>  (152) 
6

>  <i_i_glide_posenum>  (152) 
1

>  <r_i_glide_eff_state_penalty>  (152) 
0

>  <ligand_id>  (152) 
42

>  <original_smiles>  (152) 
CCn1[nH]ccc1=NC(=S)NC1C2CC3CC(C2)CC1C3

>  <smiles>  (152) 
[H]c1nn(C([H])([H])C([H])([H])[H])c(N([H])C(=S)N([H])C2([H])C3([H])C([H])([H])C4([H])C([H])([H])C([H])(C3([H])[H])C([H])([H])C2([H])C4([H])[H])c1[H]

$$$$
42:0:1
     RDKit          3D

 45 48  0  0  1  0  0  0  0  0999 V2000
    2.7089    4.2184    2.5531 C   0  0  0  0  0  0  0  0  0  0  0  0
    2.4893    2.8191    3.1157 C   0  0  0  0  0  0  0  0  0  0  0  0
    1.0738    2.5033    3.2697 N   0  0  0  0  0  0  0  0  0  0  0  0
    0.3187    3.2330    4.1167 N   0  0  0  0  0  0  0  0  0  0  0  0
   -0.8887    2.6700    4.0567 C   0  0  0  0  0  0  0  0  0  0  0  0
   -0.9418    1.5486    3.2132 C   0  0  0  0  0  0  0  0  0  0  0  0
    0.3476    1.4554    2.7726 C   0  0  0  0  0  0  0  0  0  0  0  0
    0.8708    0.4576    2.0082 N   0  0  0  0  0  0  0  0  0  0  0  0
    1.7511   -0.4854    2.4177 C   0  0  0  0  0  0  0  0  0  0  0  0
    2.1010   -0.8615    4.0273 S   0  0  0  0  0  0  0  0  0  0  0  0
    2.3094   -1.1036    1.3521 N   0  0  0  0  0  0  0  0  0  0  0  0
    3.4670   -2.0250    1.4272 C   0  0  2  0  0  0  0  0  0  0  0  0
    4.8243   -1.2734    1.5866 C   0  0  2  0  0  0  0  0  0  0  0  0
    5.1179   -0.4416    0.3230 C   0  0  0  0  0  0  0  0  0  0  0  0
    5.1951   -1.3813   -0.9034 C   0  0  1  0  0  0  0  0  0  0  0  0
    6.3370   -2.3996   -0.7036 C   0  0  0  0  0  0  0  0  0  0  0  0
    6.0615   -3.2277    0.5696 C   0  0  1  0  0  0  0  0  0  0  0  0
    5.9698   -2.2890    1.7867 C   0  0  0  0  0  0  0  0  0  0  0  0
    4.7241   -3.9773    0.4266 C   0  0  0  0  0  0  0  0  0  0  0  0
    3.5735   -2.9618    0.2060 C   0  0  2  0  0  0  0  0  0  0  0  0
    3.8585   -2.1367   -1.0662 C   0  0  0  0  0  0  0  0  0  0  0  0
    3.7727    4.4287    2.4253 H   0  0  0  0  0  0  0  0  0  0  0  0
    2.2765    4.9744    3.2049 H   0  0  0  0  0  0  0  0  0  0  0  0
    2.2191    4.2971    1.5804 H   0  0  0  0  0  0  0  0  0  0  0  0
    2.9620    2.1037    2.4399 H   0  0  0  0  0  0  0  0  0  0  0  0
    2.9644    2.6960    4.0855 H   0  0  0  0  0  0  0  0  0  0  0  0
   -1.6397    3.1155    4.7006 H   0  0  0  0  0  0  0  0  0  0  0  0
   -1.7702    0.8483    3.0205 H   0  0  0  0  0  0  0  0  0  0  0  0
    1.8928   -0.8762    0.4425 H   0  0  0  0  0  0  0  0  0  0  0  0
    3.3435   -2.6893    2.2884 H   0  0  0  0  0  0  0  0  0  0  0  0
    4.8163   -0.6154    2.4569 H   0  0  0  0  0  0  0  0  0  0  0  0
    4.3381    0.3048    0.1814 H   0  0  0  0  0  0  0  0  0  0  0  0
    6.0500    0.1099    0.4493 H   0  0  0  0  0  0  0  0  0  0  0  0
    5.3779   -0.7959   -1.8044 H   0  0  0  0  0  0  0  0  0  0  0  0
    6.4207   -3.0535   -1.5733 H   0  0  0  0  0  0  0  0  0  0  0  0
    7.2925   -1.8851   -0.6073 H   0  0  0  0  0  0  0  0  0  0  0  0
    6.8749   -3.9390    0.7140 H   0  0  0  0  0  0  0  0  0  0  0  0
    6.9055   -1.7464    1.8981 H   0  0  0  0  0  0  0  0  0  0  0  0
    5.8219   -2.8664    2.7006 H   0  0  0  0  0  0  0  0  0  0  0  0
    4.7751   -4.6743   -0.4081 H   0  0  0  0  0  0  0  0  0  0  0  0
    4.5479   -4.5779    1.3194 H   0  0  0  0  0  0  0  0  0  0  0  0
    2.6423   -3.5179    0.0932 H   0  0  0  0  0  0  0  0  0  0  0  0
    3.0473   -1.4343   -1.2512 H   0  0  0  0  0  0  0  0  0  0  0  0
    3.8965   -2.7945   -1.9322 H   0  0  0  0  0  0  0  0  0  0  0  0
    0.6222    0.4977    1.0267 H   0  0  0  0  0  0  0  0  0  0  0  0
  1  2  1  0
  1 22  1  0
  1 23  1  0
  1 24  1  0
  2  3  1  0
  2 25  1  0
  2 26  1  0
  3  7  1  0
  3  4  1  0
  4  5  2  0
  5  6  1  0
  5 27  1  0
  6  7  2  0
  6 28  1  0
  7  8  1  0
  8  9  1  0
  8 45  1  0
  9 10  2  0
  9 11  1  0
 11 12  1  0
 11 29  1  0
 12 20  1  0
 12 13  1  0
 12 30  1  1
 13 18  1  0
 13 14  1  0
 13 31  1  1
 14 15  1  0
 14 32  1  0
 14 33  1  0
 15 21  1  0
 15 16  1  0
 15 34  1  6
 16 17  1  0
 16 35  1  0
 16 36  1  0
 17 18  1  0
 17 19  1  0
 17 37  1  1
 18 38  1  0
 18 39  1  0
 19 20  1  0
 19 40  1  0
 19 41  1  0
 20 21  1  0
 20 42  1  6
 21 43  1  0
 21 44  1  0
M  END
>  <i_m_ct_stereo_status>  (153) 
1

>  <s_m_source_file>  (153) 
/var/tmp/pbs.5076255.sched01/tmpp9awzhar/40nweoahkg.sdf

>  <i_m_source_file_index>  (153) 
19

>  <i_lp_mmshare_version>  (153) 
48012

>  <i_f3d_flags>  (153) 
0

>  <s_epik_input>  (153) 
W0NIM11bQ0gyXW4xW25IXVtjSF1bY0hdY1wxPU4vQyg9UylbTkhdW0NASF0oW0NAQEhdMjMpW0NASF00W0NIMl1bQ0BASF0oW0NIMl0zKVtDSDJdW0NAQEhdKFtDSDJdMilbQ0gyXTQ=

>  <s_epik_cmdline>  (153) 
J2VwaWtfcHl0aG9uJywgJy1waHQnLCAnMi4wJywgJy1waCcsICc3LjAnLCAnLXRuJywgJzgnLCAnLW1hJywgJzIwMCcsICctaW1hZScsICc8aW5maWxlLm1hZT4nLCAnLW9tYWUnLCAnPG91dGZpbGUubWFlPic=

>  <r_lp_tautomer_probability>  (153) 
1

>  <r_epik_Ionization_Penalty>  (153) 
5.68263e-07

>  <r_epik_Ionization_Penalty_Charging>  (153) 
0

>  <r_epik_Ionization_Penalty_Neutral>  (153) 
5.68263e-07

>  <r_epik_State_Penalty>  (153) 
-0

>  <r_epik_Charging_Adjusted_Penalty>  (153) 
0

>  <i_epik_Tot_Q>  (153) 
0

>  <i_epik_Tot_abs_Q>  (153) 
0

>  <s_lp_Force_Field>  (153) 
OPLS3e

>  <r_lp_Energy>  (153) 
10.3893

>  <b_lp_Chiralities_Consistent>  (153) 
1

>  <s_lp_Variant>  (153) 
42:0-1

>  <s_i_glide_gridfile>  (153) 
pfpi4k_grid

>  <i_i_glide_lignum>  (153) 
19

>  <i_i_glide_rotatable_bonds>  (153) 
5

>  <r_i_docking_score>  (153) 
-3.49487

>  <r_i_glide_ligand_efficiency>  (153) 
-0.166422

>  <r_i_glide_ligand_efficiency_sa>  (153) 
-0.459147

>  <r_i_glide_ligand_efficiency_ln>  (153) 
-0.8641

>  <r_i_glide_gscore>  (153) 
-3.49487

>  <r_i_glide_lipo>  (153) 
-0.409193

>  <r_i_glide_hbond>  (153) 
-0.198791

>  <r_i_glide_metal>  (153) 
-0

>  <r_i_glide_rewards>  (153) 
-1.33326

>  <r_i_glide_evdw>  (153) 
-22.5409

>  <r_i_glide_ecoul>  (153) 
-5.22763

>  <r_i_glide_erotb>  (153) 
0.596891

>  <r_i_glide_esite>  (153) 
-0.239323

>  <r_i_glide_emodel>  (153) 
-31.3046

>  <r_i_glide_energy>  (153) 
-27.7686

>  <r_i_glide_einternal>  (153) 
6.70924

>  <r_i_glide_intrahb_reward>  (153) 
-0

>  <i_i_glide_confnum>  (153) 
1

>  <i_i_glide_posenum>  (153) 
27

>  <r_i_glide_eff_state_penalty>  (153) 
0

>  <ligand_id>  (153) 
42

>  <original_smiles>  (153) 
CCn1[nH]ccc1=NC(=S)NC1C2CC3CC(C2)CC1C3

>  <smiles>  (153) 
[H]c1nn(C([H])([H])C([H])([H])[H])c(N([H])C(=S)N([H])C2([H])C3([H])C([H])([H])C4([H])C([H])([H])C([H])(C3([H])[H])C([H])([H])C2([H])C4([H])[H])c1[H]

$$$$
42:0:2
     RDKit          3D

 45 48  0  0  1  0  0  0  0  0999 V2000
    2.7578    3.1383    3.9678 C   0  0  0  0  0  0  0  0  0  0  0  0
    1.6941    3.4261    2.8986 C   0  0  0  0  0  0  0  0  0  0  0  0
    0.4061    2.8843    3.2811 N   0  0  0  0  0  0  0  0  0  0  0  0
   -0.4076    3.6018    4.0926 N   0  0  0  0  0  0  0  0  0  0  0  0
   -1.4764    2.8139    4.2564 C   0  0  0  0  0  0  0  0  0  0  0  0
   -1.3834    1.5743    3.5634 C   0  0  0  0  0  0  0  0  0  0  0  0
   -0.1651    1.6738    2.9542 C   0  0  0  0  0  0  0  0  0  0  0  0
    0.4417    0.7032    2.2246 N   0  0  0  0  0  0  0  0  0  0  0  0
    1.3091   -0.2257    2.7434 C   0  0  0  0  0  0  0  0  0  0  0  0
    1.4700   -0.6108    4.3591 S   0  0  0  0  0  0  0  0  0  0  0  0
    2.0175   -0.7951    1.7409 N   0  0  0  0  0  0  0  0  0  0  0  0
    3.2198   -1.6600    1.9354 C   0  0  2  0  0  0  0  0  0  0  0  0
    4.5229   -0.8238    2.1079 C   0  0  2  0  0  0  0  0  0  0  0  0
    4.8388   -0.0652    0.8010 C   0  0  0  0  0  0  0  0  0  0  0  0
    5.0325   -1.0747   -0.3506 C   0  0  1  0  0  0  0  0  0  0  0  0
    6.2115   -2.0122   -0.0285 C   0  0  0  0  0  0  0  0  0  0  0  0
    5.9090   -2.7676    1.2828 C   0  0  1  0  0  0  0  0  0  0  0  0
    5.7053   -1.7589    2.4306 C   0  0  0  0  0  0  0  0  0  0  0  0
    4.6210   -3.5989    1.1254 C   0  0  0  0  0  0  0  0  0  0  0  0
    3.4372   -2.6641    0.7809 C   0  0  2  0  0  0  0  0  0  0  0  0
    3.7585   -1.9139   -0.5291 C   0  0  0  0  0  0  0  0  0  0  0  0
    3.7307    3.5383    3.6811 H   0  0  0  0  0  0  0  0  0  0  0  0
    2.8882    2.0692    4.1212 H   0  0  0  0  0  0  0  0  0  0  0  0
    2.4747    3.5758    4.9258 H   0  0  0  0  0  0  0  0  0  0  0  0
    1.6025    4.5040    2.7401 H   0  0  0  0  0  0  0  0  0  0  0  0
    1.9851    2.9930    1.9409 H   0  0  0  0  0  0  0  0  0  0  0  0
   -2.2418    3.1790    4.9279 H   0  0  0  0  0  0  0  0  0  0  0  0
   -2.0680    0.7405    3.5676 H   0  0  0  0  0  0  0  0  0  0  0  0
    1.7348   -0.5743    0.7826 H   0  0  0  0  0  0  0  0  0  0  0  0
    3.0892   -2.2759    2.8266 H   0  0  0  0  0  0  0  0  0  0  0  0
    4.4174   -0.1142    2.9339 H   0  0  0  0  0  0  0  0  0  0  0  0
    4.0366    0.6357    0.5707 H   0  0  0  0  0  0  0  0  0  0  0  0
    5.7403    0.5344    0.9091 H   0  0  0  0  0  0  0  0  0  0  0  0
    5.2252   -0.5383   -1.2785 H   0  0  0  0  0  0  0  0  0  0  0  0
    6.3672   -2.7131   -0.8509 H   0  0  0  0  0  0  0  0  0  0  0  0
    7.1324   -1.4357    0.0760 H   0  0  0  0  0  0  0  0  0  0  0  0
    6.7496   -3.4254    1.5089 H   0  0  0  0  0  0  0  0  0  0  0  0
    6.5970   -1.1536    2.5553 H   0  0  0  0  0  0  0  0  0  0  0  0
    5.5496   -2.2901    3.3712 H   0  0  0  0  0  0  0  0  0  0  0  0
    4.7491   -4.3438    0.3440 H   0  0  0  0  0  0  0  0  0  0  0  0
    4.4293   -4.1504    2.0484 H   0  0  0  0  0  0  0  0  0  0  0  0
    2.5368   -3.2713    0.6604 H   0  0  0  0  0  0  0  0  0  0  0  0
    2.9564   -1.2385   -0.8044 H   0  0  0  0  0  0  0  0  0  0  0  0
    3.8603   -2.6194   -1.3510 H   0  0  0  0  0  0  0  0  0  0  0  0
    0.3686    0.8010    1.2267 H   0  0  0  0  0  0  0  0  0  0  0  0
  1  2  1  0
  1 22  1  0
  1 23  1  0
  1 24  1  0
  2  3  1  0
  2 25  1  0
  2 26  1  0
  3  7  1  0
  3  4  1  0
  4  5  2  0
  5  6  1  0
  5 27  1  0
  6  7  2  0
  6 28  1  0
  7  8  1  0
  8  9  1  0
  8 45  1  0
  9 10  2  0
  9 11  1  0
 11 12  1  0
 11 29  1  0
 12 20  1  0
 12 13  1  0
 12 30  1  1
 13 18  1  0
 13 14  1  0
 13 31  1  1
 14 15  1  0
 14 32  1  0
 14 33  1  0
 15 21  1  0
 15 16  1  0
 15 34  1  6
 16 17  1  0
 16 35  1  0
 16 36  1  0
 17 18  1  0
 17 19  1  0
 17 37  1  1
 18 38  1  0
 18 39  1  0
 19 20  1  0
 19 40  1  0
 19 41  1  0
 20 21  1  0
 20 42  1  6
 21 43  1  0
 21 44  1  0
M  END
>  <i_m_ct_stereo_status>  (154) 
1

>  <s_m_source_file>  (154) 
/var/tmp/pbs.5076255.sched01/tmpp9awzhar/40nweoahkg.sdf

>  <i_m_source_file_index>  (154) 
19

>  <i_lp_mmshare_version>  (154) 
48012

>  <i_f3d_flags>  (154) 
0

>  <s_epik_input>  (154) 
W0NIM11bQ0gyXW4xW25IXVtjSF1bY0hdY1wxPU4vQyg9UylbTkhdW0NASF0oW0NAQEhdMjMpW0NASF00W0NIMl1bQ0BASF0oW0NIMl0zKVtDSDJdW0NAQEhdKFtDSDJdMilbQ0gyXTQ=

>  <s_epik_cmdline>  (154) 
J2VwaWtfcHl0aG9uJywgJy1waHQnLCAnMi4wJywgJy1waCcsICc3LjAnLCAnLXRuJywgJzgnLCAnLW1hJywgJzIwMCcsICctaW1hZScsICc8aW5maWxlLm1hZT4nLCAnLW9tYWUnLCAnPG91dGZpbGUubWFlPic=

>  <r_lp_tautomer_probability>  (154) 
1

>  <r_epik_Ionization_Penalty>  (154) 
5.68263e-07

>  <r_epik_Ionization_Penalty_Charging>  (154) 
0

>  <r_epik_Ionization_Penalty_Neutral>  (154) 
5.68263e-07

>  <r_epik_State_Penalty>  (154) 
-0

>  <r_epik_Charging_Adjusted_Penalty>  (154) 
0

>  <i_epik_Tot_Q>  (154) 
0

>  <i_epik_Tot_abs_Q>  (154) 
0

>  <s_lp_Force_Field>  (154) 
OPLS3e

>  <r_lp_Energy>  (154) 
10.3893

>  <b_lp_Chiralities_Consistent>  (154) 
1

>  <s_lp_Variant>  (154) 
42:0-1

>  <s_i_glide_gridfile>  (154) 
pfpi4k_grid

>  <i_i_glide_lignum>  (154) 
19

>  <i_i_glide_rotatable_bonds>  (154) 
5

>  <r_i_docking_score>  (154) 
-3.31574

>  <r_i_glide_ligand_efficiency>  (154) 
-0.157893

>  <r_i_glide_ligand_efficiency_sa>  (154) 
-0.435614

>  <r_i_glide_ligand_efficiency_ln>  (154) 
-0.819811

>  <r_i_glide_gscore>  (154) 
-3.31574

>  <r_i_glide_lipo>  (154) 
-0.395569

>  <r_i_glide_hbond>  (154) 
-0.16

>  <r_i_glide_metal>  (154) 
-0

>  <r_i_glide_rewards>  (154) 
-1.33326

>  <r_i_glide_evdw>  (154) 
-22.2884

>  <r_i_glide_ecoul>  (154) 
-4.42154

>  <r_i_glide_erotb>  (154) 
0.596891

>  <r_i_glide_esite>  (154) 
-0.246153

>  <r_i_glide_emodel>  (154) 
-29.8545

>  <r_i_glide_energy>  (154) 
-26.7099

>  <r_i_glide_einternal>  (154) 
6.63372

>  <r_i_glide_intrahb_reward>  (154) 
-0

>  <i_i_glide_confnum>  (154) 
1

>  <i_i_glide_posenum>  (154) 
32

>  <r_i_glide_eff_state_penalty>  (154) 
0

>  <ligand_id>  (154) 
42

>  <original_smiles>  (154) 
CCn1[nH]ccc1=NC(=S)NC1C2CC3CC(C2)CC1C3

>  <smiles>  (154) 
[H]c1nn(C([H])([H])C([H])([H])[H])c(N([H])C(=S)N([H])C2([H])C3([H])C([H])([H])C4([H])C([H])([H])C([H])(C3([H])[H])C([H])([H])C2([H])C4([H])[H])c1[H]

$$$$
43:0:0
     RDKit          3D

 59 65  0  0  1  0  0  0  0  0999 V2000
    4.4902   -7.4283    0.6340 C   0  0  0  0  0  0  0  0  0  0  0  0
    4.6319   -6.3562    1.6509 N   0  0  1  0  0  0  0  0  0  0  0  0
    6.0998   -5.8192    1.8476 C   0  0  0  0  0  0  0  0  0  0  0  0
    6.7266   -4.4401    1.2200 C   0  0  0  0  0  0  0  0  0  0  0  0
    5.8635   -3.0509    0.9358 C   0  0  0  0  0  0  0  0  0  0  0  0
    3.9718   -3.1303    0.9374 C   0  0  2  0  0  0  0  0  0  0  0  0
    2.6584   -4.2344    1.2925 C   0  0  0  0  0  0  0  0  0  0  0  0
    3.3042   -5.5898    2.0190 C   0  0  2  0  0  0  0  0  0  0  0  0
    3.6906   -4.6142    2.9475 C   0  0  1  0  0  0  0  0  0  0  0  0
    4.5952   -4.6523    4.0401 O   0  0  0  0  0  0  0  0  0  0  0  0
    4.8412   -3.3011    4.1238 C   0  0  0  0  0  0  0  0  0  0  0  0
    5.1848   -2.5381    5.2313 C   0  0  0  0  0  0  0  0  0  0  0  0
    5.4776   -3.1441    6.4141 O   0  0  0  0  0  0  0  0  0  0  0  0
    5.2053   -1.1175    5.1350 C   0  0  0  0  0  0  0  0  0  0  0  0
    4.8579   -0.4555    3.9368 C   0  0  0  0  0  0  0  0  0  0  0  0
    4.5246   -1.2056    2.8014 C   0  0  0  0  0  0  0  0  0  0  0  0
    4.5721   -2.6325    2.9273 C   0  0  0  0  0  0  0  0  0  0  0  0
    4.4047   -3.7969    1.8305 C   0  0  2  0  0  0  0  0  0  0  0  0
    4.3891   -4.3522   -0.1767 C   0  0  0  0  0  0  0  0  0  0  0  0
    4.0954   -3.3099   -1.3977 C   0  0  0  0  0  0  0  0  0  0  0  0
    3.6832   -1.9017   -0.9299 N   0  0  2  0  0  0  0  0  0  0  0  0
    4.4385   -0.8091   -1.5986 C   0  0  0  0  0  0  0  0  0  0  0  0
    4.0423   -0.6126   -3.0597 C   0  0  0  0  0  0  0  0  0  0  0  0
    2.8769   -1.3473   -3.7220 C   0  0  0  0  0  0  0  0  0  0  0  0
    4.2939   -1.6284   -4.1568 C   0  0  0  0  0  0  0  0  0  0  0  0
    3.4935   -1.7850    0.5711 C   0  0  2  0  0  0  0  0  0  0  0  0
    4.2120   -0.6994    1.3932 C   0  0  0  0  0  0  0  0  0  0  0  0
    4.9043   -7.1263   -0.3261 H   0  0  0  0  0  0  0  0  0  0  0  0
    3.4398   -7.6867    0.5063 H   0  0  0  0  0  0  0  0  0  0  0  0
    5.0174   -8.3228    0.9696 H   0  0  0  0  0  0  0  0  0  0  0  0
    6.2947   -5.7892    2.9164 H   0  0  0  0  0  0  0  0  0  0  0  0
    6.7573   -6.6149    1.5122 H   0  0  0  0  0  0  0  0  0  0  0  0
    7.5472   -4.1556    1.8690 H   0  0  0  0  0  0  0  0  0  0  0  0
    7.2335   -4.7001    0.2901 H   0  0  0  0  0  0  0  0  0  0  0  0
    6.3720   -2.2367    1.4569 H   0  0  0  0  0  0  0  0  0  0  0  0
    6.1870   -2.7198   -0.0527 H   0  0  0  0  0  0  0  0  0  0  0  0
    1.8513   -3.7025    1.8228 H   0  0  0  0  0  0  0  0  0  0  0  0
    2.0766   -4.5096    0.4025 H   0  0  0  0  0  0  0  0  0  0  0  0
    2.5270   -6.2610    2.3813 H   0  0  0  0  0  0  0  0  0  0  0  0
    2.8100   -4.2103    3.4677 H   0  0  0  0  0  0  0  0  0  0  0  0
    5.3754   -4.0858    6.3807 H   0  0  0  0  0  0  0  0  0  0  0  0
    5.4844   -0.5495    5.9943 H   0  0  0  0  0  0  0  0  0  0  0  0
    4.8683    0.6315    3.8908 H   0  0  0  0  0  0  0  0  0  0  0  0
    5.2759   -4.8623   -0.5463 H   0  0  0  0  0  0  0  0  0  0  0  0
    3.7851   -5.2146   -0.4590 H   0  0  0  0  0  0  0  0  0  0  0  0
    5.0398   -3.3024   -1.9485 H   0  0  0  0  0  0  0  0  0  0  0  0
    3.3094   -3.7550   -2.0127 H   0  0  0  0  0  0  0  0  0  0  0  0
    4.2291    0.1308   -1.0927 H   0  0  0  0  0  0  0  0  0  0  0  0
    5.5166   -0.9443   -1.5163 H   0  0  0  0  0  0  0  0  0  0  0  0
    4.1997    0.4186   -3.3556 H   0  0  0  0  0  0  0  0  0  0  0  0
    2.3131   -2.0562   -3.1148 H   0  0  0  0  0  0  0  0  0  0  0  0
    2.2564   -0.7864   -4.4227 H   0  0  0  0  0  0  0  0  0  0  0  0
    4.5621   -1.2272   -5.1300 H   0  0  0  0  0  0  0  0  0  0  0  0
    4.7828   -2.5692   -3.8997 H   0  0  0  0  0  0  0  0  0  0  0  0
    2.4281   -1.7240    0.7571 H   0  0  0  0  0  0  0  0  0  0  0  0
    3.5694    0.1804    1.4528 H   0  0  0  0  0  0  0  0  0  0  0  0
    5.1508   -0.3815    0.9371 H   0  0  0  0  0  0  0  0  0  0  0  0
    2.7361   -1.7442   -1.2642 H   0  0  0  0  0  0  0  0  0  0  0  0
    4.6335   -6.9454    2.4729 H   0  0  0  0  0  0  0  0  0  0  0  0
  1  2  1  0
  1 28  1  0
  1 29  1  0
  1 30  1  0
  2  8  1  0
  2  3  1  0
  2 59  1  1
  3  4  1  0
  3 31  1  0
  3 32  1  0
  4  5  1  0
  4 33  1  0
  4 34  1  0
  6  5  1  6
  5 35  1  0
  5 36  1  0
  6 18  1  0
  6 26  1  0
  6  7  1  0
  7  8  1  0
  7 37  1  0
  7 38  1  0
  8  9  1  0
  8 39  1  1
  9 18  1  0
  9 10  1  0
  9 40  1  1
 10 11  1  0
 11 17  2  0
 11 12  1  0
 12 13  1  0
 12 14  2  0
 13 41  1  0
 14 15  1  0
 14 42  1  0
 15 16  2  0
 15 43  1  0
 16 27  1  0
 16 17  1  0
 17 18  1  0
 18 19  1  6
 19 20  1  0
 19 44  1  0
 19 45  1  0
 20 21  1  0
 20 46  1  0
 20 47  1  0
 21 22  1  0
 21 26  1  0
 21 58  1  6
 22 23  1  0
 22 48  1  0
 22 49  1  0
 23 25  1  0
 23 24  1  0
 23 50  1  0
 24 25  1  0
 24 51  1  0
 24 52  1  0
 25 53  1  0
 25 54  1  0
 26 27  1  0
 26 55  1  6
 27 56  1  0
 27 57  1  0
M  CHG  2   2   1  21   1
M  END
>  <i_m_ct_stereo_status>  (155) 
1

>  <s_m_source_file>  (155) 
/var/tmp/pbs.5076255.sched01/tmpp9awzhar/40nweoahkg.sdf

>  <i_m_source_file_index>  (155) 
20

>  <i_lp_mmshare_version>  (155) 
48012

>  <i_f3d_flags>  (155) 
0

>  <s_epik_input>  (155) 
W0NIMl0xW0NIMl1bQ0gyXU4oW0NIM10pW0NASF0oW0NIMl0yKVtDQEhdKFtDQEBdMzRbQ0BAXTEyNSlPYzZjM2MoW2NIXVtjSF1jNltPSF0pW0NIMl1bQ0BIXTVOKFtDSDJdW0NIMl00KVtDSDJdW0NIXTdbQ0gyXVtDSDJdNw==

>  <s_epik_cmdline>  (155) 
J2VwaWtfcHl0aG9uJywgJy1waHQnLCAnMi4wJywgJy1waCcsICc3LjAnLCAnLXRuJywgJzgnLCAnLW1hJywgJzIwMCcsICctaW1hZScsICc8aW5maWxlLm1hZT4nLCAnLW9tYWUnLCAnPG91dGZpbGUubWFlPic=

>  <r_lp_tautomer_probability>  (155) 
1

>  <r_epik_Ionization_Penalty>  (155) 
0.188914

>  <r_epik_Ionization_Penalty_Charging>  (155) 
0.166225

>  <r_epik_Ionization_Penalty_Neutral>  (155) 
0.0226881

>  <r_epik_State_Penalty>  (155) 
0.155687

>  <r_epik_Charging_Adjusted_Penalty>  (155) 
0.321912

>  <i_epik_Tot_Q>  (155) 
2

>  <i_epik_Tot_abs_Q>  (155) 
2

>  <s_lp_Force_Field>  (155) 
OPLS3e

>  <r_lp_Energy>  (155) 
730.804

>  <b_lp_Chiralities_Consistent>  (155) 
1

>  <s_lp_Variant>  (155) 
43:0-1

>  <s_i_glide_gridfile>  (155) 
pfpi4k_grid

>  <i_i_glide_lignum>  (155) 
20

>  <i_i_glide_rotatable_bonds>  (155) 
3

>  <r_i_docking_score>  (155) 
-3.72271

>  <r_i_glide_ligand_efficiency>  (155) 
-0.137878

>  <r_i_glide_ligand_efficiency_sa>  (155) 
-0.413635

>  <r_i_glide_ligand_efficiency_ln>  (155) 
-0.866587

>  <r_i_glide_gscore>  (155) 
-3.72271

>  <r_i_glide_lipo>  (155) 
-1.02332

>  <r_i_glide_hbond>  (155) 
-0.1174

>  <r_i_glide_metal>  (155) 
-0

>  <r_i_glide_rewards>  (155) 
-0.896506

>  <r_i_glide_evdw>  (155) 
-20.2859

>  <r_i_glide_ecoul>  (155) 
-5.91922

>  <r_i_glide_erotb>  (155) 
0.283807

>  <r_i_glide_esite>  (155) 
-0.0671124

>  <r_i_glide_emodel>  (155) 
-26.0662

>  <r_i_glide_energy>  (155) 
-26.2052

>  <r_i_glide_einternal>  (155) 
11.9266

>  <r_i_glide_intrahb_reward>  (155) 
-0

>  <i_i_glide_confnum>  (155) 
4

>  <i_i_glide_posenum>  (155) 
12

>  <r_i_glide_eff_state_penalty>  (155) 
0

>  <ligand_id>  (155) 
43

>  <original_smiles>  (155) 
CN1CCCC23CC1C1Oc4c(O)ccc5c4C12CCN(CC1CC1)C3C5

>  <smiles>  (155) 
[H]Oc1c([H])c([H])c2c3c1OC1([H])C34C([H])([H])C([H])([H])[N+]([H])(C([H])([H])C3([H])C([H])([H])C3([H])[H])C([H])(C2([H])[H])C42C([H])([H])C([H])([H])C([H])([H])[N+]([H])(C([H])([H])[H])C1([H])C2([H])[H]

$$$$
43:0:1
     RDKit          3D

 59 65  0  0  1  0  0  0  0  0999 V2000
    2.6640    7.5581    4.1441 C   0  0  0  0  0  0  0  0  0  0  0  0
    1.6672    6.4615    4.1732 N   0  0  1  0  0  0  0  0  0  0  0  0
    1.7464    5.4552    2.9747 C   0  0  0  0  0  0  0  0  0  0  0  0
    2.4385    3.9678    2.9706 C   0  0  0  0  0  0  0  0  0  0  0  0
    2.5398    2.9608    4.2850 C   0  0  0  0  0  0  0  0  0  0  0  0
    2.1801    3.6626    6.0000 C   0  0  2  0  0  0  0  0  0  0  0  0
    1.5919    5.1218    6.7642 C   0  0  0  0  0  0  0  0  0  0  0  0
    1.0353    6.1645    5.5841 C   0  0  2  0  0  0  0  0  0  0  0  0
    0.1702    5.0804    5.3898 C   0  0  1  0  0  0  0  0  0  0  0  0
   -0.7302    4.7811    4.3365 O   0  0  0  0  0  0  0  0  0  0  0  0
   -0.7886    3.4233    4.5213 C   0  0  0  0  0  0  0  0  0  0  0  0
   -1.8368    2.5329    4.2231 C   0  0  0  0  0  0  0  0  0  0  0  0
   -2.9250    2.9602    3.5226 O   0  0  0  0  0  0  0  0  0  0  0  0
   -1.7678    1.2008    4.6987 C   0  0  0  0  0  0  0  0  0  0  0  0
   -0.6860    0.7458    5.4855 C   0  0  0  0  0  0  0  0  0  0  0  0
    0.3886    1.6091    5.7737 C   0  0  0  0  0  0  0  0  0  0  0  0
    0.3124    2.9194    5.2251 C   0  0  0  0  0  0  0  0  0  0  0  0
    1.3970    4.1194    5.2148 C   0  0  2  0  0  0  0  0  0  0  0  0
    3.3796    4.7133    5.4243 C   0  0  0  0  0  0  0  0  0  0  0  0
    4.5078    3.8705    6.3147 C   0  0  0  0  0  0  0  0  0  0  0  0
    3.9163    2.6656    7.0674 N   0  0  2  0  0  0  0  0  0  0  0  0
    4.6484    1.3971    6.8355 C   0  0  0  0  0  0  0  0  0  0  0  0
    6.1076    1.4778    7.2551 C   0  0  0  0  0  0  0  0  0  0  0  0
    7.2113    1.4328    6.2163 C   0  0  0  0  0  0  0  0  0  0  0  0
    6.9955    0.2558    7.1278 C   0  0  0  0  0  0  0  0  0  0  0  0
    2.4095    2.5734    6.9786 C   0  0  2  0  0  0  0  0  0  0  0  0
    1.6965    1.2851    6.5082 C   0  0  0  0  0  0  0  0  0  0  0  0
    3.6828    7.1869    4.0283 H   0  0  0  0  0  0  0  0  0  0  0  0
    2.6095    8.1656    5.0506 H   0  0  0  0  0  0  0  0  0  0  0  0
    2.4571    8.2182    3.2980 H   0  0  0  0  0  0  0  0  0  0  0  0
    0.7345    5.3514    2.5920 H   0  0  0  0  0  0  0  0  0  0  0  0
    2.2544    5.9617    2.1669 H   0  0  0  0  0  0  0  0  0  0  0  0
    1.9468    3.3973    2.1820 H   0  0  0  0  0  0  0  0  0  0  0  0
    3.4467    4.0821    2.5690 H   0  0  0  0  0  0  0  0  0  0  0  0
    2.0881    2.0123    3.9811 H   0  0  0  0  0  0  0  0  0  0  0  0
    3.5613    2.5734    4.2709 H   0  0  0  0  0  0  0  0  0  0  0  0
    0.9010    4.8712    7.5855 H   0  0  0  0  0  0  0  0  0  0  0  0
    2.3410    5.6140    7.3961 H   0  0  0  0  0  0  0  0  0  0  0  0
    0.5417    7.0397    6.0076 H   0  0  0  0  0  0  0  0  0  0  0  0
   -0.5292    4.9787    6.2401 H   0  0  0  0  0  0  0  0  0  0  0  0
   -3.4658    2.2468    3.2101 H   0  0  0  0  0  0  0  0  0  0  0  0
   -2.5719    0.5169    4.4793 H   0  0  0  0  0  0  0  0  0  0  0  0
   -0.6708   -0.2759    5.8418 H   0  0  0  0  0  0  0  0  0  0  0  0
    3.9234    4.9222    4.5023 H   0  0  0  0  0  0  0  0  0  0  0  0
    3.5623    5.7436    5.7488 H   0  0  0  0  0  0  0  0  0  0  0  0
    5.3344    3.5755    5.6664 H   0  0  0  0  0  0  0  0  0  0  0  0
    4.9388    4.5507    7.0525 H   0  0  0  0  0  0  0  0  0  0  0  0
    4.1850    0.6093    7.4268 H   0  0  0  0  0  0  0  0  0  0  0  0
    4.5902    1.0991    5.7883 H   0  0  0  0  0  0  0  0  0  0  0  0
    6.2933    2.0814    8.1443 H   0  0  0  0  0  0  0  0  0  0  0  0
    6.9204    1.3233    5.1730 H   0  0  0  0  0  0  0  0  0  0  0  0
    8.0912    2.0505    6.3924 H   0  0  0  0  0  0  0  0  0  0  0  0
    7.7435    0.0879    7.9015 H   0  0  0  0  0  0  0  0  0  0  0  0
    6.5658   -0.6466    6.6965 H   0  0  0  0  0  0  0  0  0  0  0  0
    2.0017    2.8616    7.9461 H   0  0  0  0  0  0  0  0  0  0  0  0
    1.4656    0.6520    7.3641 H   0  0  0  0  0  0  0  0  0  0  0  0
    2.3082    0.6844    5.8366 H   0  0  0  0  0  0  0  0  0  0  0  0
    4.0986    2.8736    8.0398 H   0  0  0  0  0  0  0  0  0  0  0  0
    0.8962    6.9985    3.7902 H   0  0  0  0  0  0  0  0  0  0  0  0
  1  2  1  0
  1 28  1  0
  1 29  1  0
  1 30  1  0
  2  8  1  0
  2  3  1  0
  2 59  1  6
  3  4  1  0
  3 31  1  0
  3 32  1  0
  4  5  1  0
  4 33  1  0
  4 34  1  0
  6  5  1  6
  5 35  1  0
  5 36  1  0
  6 18  1  0
  6 26  1  0
  6  7  1  0
  7  8  1  0
  7 37  1  0
  7 38  1  0
  8  9  1  0
  8 39  1  1
  9 18  1  0
  9 10  1  0
  9 40  1  1
 10 11  1  0
 11 17  2  0
 11 12  1  0
 12 13  1  0
 12 14  2  0
 13 41  1  0
 14 15  1  0
 14 42  1  0
 15 16  2  0
 15 43  1  0
 16 27  1  0
 16 17  1  0
 17 18  1  0
 18 19  1  6
 19 20  1  0
 19 44  1  0
 19 45  1  0
 20 21  1  0
 20 46  1  0
 20 47  1  0
 21 22  1  0
 21 26  1  0
 21 58  1  1
 22 23  1  0
 22 48  1  0
 22 49  1  0
 23 25  1  0
 23 24  1  0
 23 50  1  0
 24 25  1  0
 24 51  1  0
 24 52  1  0
 25 53  1  0
 25 54  1  0
 26 27  1  0
 26 55  1  1
 27 56  1  0
 27 57  1  0
M  CHG  2   2   1  21   1
M  END
>  <i_m_ct_stereo_status>  (156) 
1

>  <s_m_source_file>  (156) 
/var/tmp/pbs.5076255.sched01/tmpp9awzhar/40nweoahkg.sdf

>  <i_m_source_file_index>  (156) 
20

>  <i_lp_mmshare_version>  (156) 
48012

>  <i_f3d_flags>  (156) 
0

>  <s_epik_input>  (156) 
W0NIMl0xW0NIMl1bQ0gyXU4oW0NIM10pW0NASF0oW0NIMl0yKVtDQEhdKFtDQEBdMzRbQ0BAXTEyNSlPYzZjM2MoW2NIXVtjSF1jNltPSF0pW0NIMl1bQ0BIXTVOKFtDSDJdW0NIMl00KVtDSDJdW0NIXTdbQ0gyXVtDSDJdNw==

>  <s_epik_cmdline>  (156) 
J2VwaWtfcHl0aG9uJywgJy1waHQnLCAnMi4wJywgJy1waCcsICc3LjAnLCAnLXRuJywgJzgnLCAnLW1hJywgJzIwMCcsICctaW1hZScsICc8aW5maWxlLm1hZT4nLCAnLW9tYWUnLCAnPG91dGZpbGUubWFlPic=

>  <r_lp_tautomer_probability>  (156) 
1

>  <r_epik_Ionization_Penalty>  (156) 
0.188914

>  <r_epik_Ionization_Penalty_Charging>  (156) 
0.166225

>  <r_epik_Ionization_Penalty_Neutral>  (156) 
0.0226881

>  <r_epik_State_Penalty>  (156) 
0.155687

>  <r_epik_Charging_Adjusted_Penalty>  (156) 
0.321912

>  <i_epik_Tot_Q>  (156) 
2

>  <i_epik_Tot_abs_Q>  (156) 
2

>  <s_lp_Force_Field>  (156) 
OPLS3e

>  <r_lp_Energy>  (156) 
730.804

>  <b_lp_Chiralities_Consistent>  (156) 
1

>  <s_lp_Variant>  (156) 
43:0-1

>  <s_i_glide_gridfile>  (156) 
pfpi4k_grid

>  <i_i_glide_lignum>  (156) 
20

>  <i_i_glide_rotatable_bonds>  (156) 
3

>  <r_i_docking_score>  (156) 
-2.70857

>  <r_i_glide_ligand_efficiency>  (156) 
-0.100317

>  <r_i_glide_ligand_efficiency_sa>  (156) 
-0.300952

>  <r_i_glide_ligand_efficiency_ln>  (156) 
-0.630509

>  <r_i_glide_gscore>  (156) 
-2.70857

>  <r_i_glide_lipo>  (156) 
-0.195118

>  <r_i_glide_hbond>  (156) 
-0.0733977

>  <r_i_glide_metal>  (156) 
-0

>  <r_i_glide_rewards>  (156) 
-0.896506

>  <r_i_glide_evdw>  (156) 
-16.8315

>  <r_i_glide_ecoul>  (156) 
-6.27111

>  <r_i_glide_erotb>  (156) 
0.283807

>  <r_i_glide_esite>  (156) 
-0.0451104

>  <r_i_glide_emodel>  (156) 
-27.4382

>  <r_i_glide_energy>  (156) 
-23.1026

>  <r_i_glide_einternal>  (156) 
0.398157

>  <r_i_glide_intrahb_reward>  (156) 
-0

>  <i_i_glide_confnum>  (156) 
3

>  <i_i_glide_posenum>  (156) 
15

>  <r_i_glide_eff_state_penalty>  (156) 
0

>  <ligand_id>  (156) 
43

>  <original_smiles>  (156) 
CN1CCCC23CC1C1Oc4c(O)ccc5c4C12CCN(CC1CC1)C3C5

>  <smiles>  (156) 
[H]Oc1c([H])c([H])c2c3c1OC1([H])C34C([H])([H])C([H])([H])[N+]([H])(C([H])([H])C3([H])C([H])([H])C3([H])[H])C([H])(C2([H])[H])C42C([H])([H])C([H])([H])C([H])([H])[N+]([H])(C([H])([H])[H])C1([H])C2([H])[H]

$$$$
43:0:2
     RDKit          3D

 59 65  0  0  1  0  0  0  0  0999 V2000
    3.6389    7.6298    4.1201 C   0  0  0  0  0  0  0  0  0  0  0  0
    2.4100    6.8019    4.0374 N   0  0  1  0  0  0  0  0  0  0  0  0
    2.4345    5.6950    2.9255 C   0  0  0  0  0  0  0  0  0  0  0  0
    2.7301    4.0963    3.1219 C   0  0  0  0  0  0  0  0  0  0  0  0
    2.3749    3.2228    4.4863 C   0  0  0  0  0  0  0  0  0  0  0  0
    1.9364    4.1480    6.0751 C   0  0  2  0  0  0  0  0  0  0  0  0
    1.6138    5.7694    6.6461 C   0  0  0  0  0  0  0  0  0  0  0  0
    1.5188    6.7933    5.3320 C   0  0  2  0  0  0  0  0  0  0  0  0
    0.4587    5.9263    5.0469 C   0  0  1  0  0  0  0  0  0  0  0  0
   -0.2976    5.7348    3.8641 O   0  0  0  0  0  0  0  0  0  0  0  0
   -0.7117    4.4541    4.1120 C   0  0  0  0  0  0  0  0  0  0  0  0
   -1.8894    3.8188    3.6959 C   0  0  0  0  0  0  0  0  0  0  0  0
   -2.7125    4.4363    2.8105 O   0  0  0  0  0  0  0  0  0  0  0  0
   -2.2408    2.5702    4.2504 C   0  0  0  0  0  0  0  0  0  0  0  0
   -1.4427    1.9436    5.2374 C   0  0  0  0  0  0  0  0  0  0  0  0
   -0.2454    2.5525    5.6618 C   0  0  0  0  0  0  0  0  0  0  0  0
    0.0932    3.7830    5.0356 C   0  0  0  0  0  0  0  0  0  0  0  0
    1.4249    4.6952    5.1443 C   0  0  2  0  0  0  0  0  0  0  0  0
    3.4334    4.8311    5.6586 C   0  0  0  0  0  0  0  0  0  0  0  0
    4.1683    3.8386    6.7717 C   0  0  0  0  0  0  0  0  0  0  0  0
    3.1904    2.8801    7.4784 N   0  0  2  0  0  0  0  0  0  0  0  0
    3.6156    1.4584    7.4426 C   0  0  0  0  0  0  0  0  0  0  0  0
    4.9519    1.2357    8.1293 C   0  0  0  0  0  0  0  0  0  0  0  0
    6.2333    1.1607    7.3235 C   0  0  0  0  0  0  0  0  0  0  0  0
    5.6774   -0.0844    7.9609 C   0  0  0  0  0  0  0  0  0  0  0  0
    1.7398    3.1327    7.1359 C   0  0  2  0  0  0  0  0  0  0  0  0
    0.8137    2.0062    6.6242 C   0  0  0  0  0  0  0  0  0  0  0  0
    4.5400    7.0213    4.2021 H   0  0  0  0  0  0  0  0  0  0  0  0
    3.5978    8.3156    4.9686 H   0  0  0  0  0  0  0  0  0  0  0  0
    3.7387    8.2335    3.2163 H   0  0  0  0  0  0  0  0  0  0  0  0
    1.4860    5.7468    2.3981 H   0  0  0  0  0  0  0  0  0  0  0  0
    3.1611    6.0176    2.1817 H   0  0  0  0  0  0  0  0  0  0  0  0
    2.2386    3.5858    2.2929 H   0  0  0  0  0  0  0  0  0  0  0  0
    3.7851    3.9367    2.9067 H   0  0  0  0  0  0  0  0  0  0  0  0
    1.7559    2.3812    4.1618 H   0  0  0  0  0  0  0  0  0  0  0  0
    3.2578    2.6075    4.6708 H   0  0  0  0  0  0  0  0  0  0  0  0
    0.7647    5.7663    7.3464 H   0  0  0  0  0  0  0  0  0  0  0  0
    2.3551    6.1319    7.3678 H   0  0  0  0  0  0  0  0  0  0  0  0
    1.1941    7.7965    5.6109 H   0  0  0  0  0  0  0  0  0  0  0  0
   -0.3691    6.0720    5.7636 H   0  0  0  0  0  0  0  0  0  0  0  0
   -2.2397    4.7807    2.0647 H   0  0  0  0  0  0  0  0  0  0  0  0
   -3.1528    2.1097    3.9144 H   0  0  0  0  0  0  0  0  0  0  0  0
   -1.7426    0.9890    5.6432 H   0  0  0  0  0  0  0  0  0  0  0  0
    4.1459    4.8185    4.8333 H   0  0  0  0  0  0  0  0  0  0  0  0
    3.8095    5.8172    5.9510 H   0  0  0  0  0  0  0  0  0  0  0  0
    4.9782    3.3072    6.2745 H   0  0  0  0  0  0  0  0  0  0  0  0
    4.6362    4.4637    7.5343 H   0  0  0  0  0  0  0  0  0  0  0  0
    2.8804    0.8519    7.9680 H   0  0  0  0  0  0  0  0  0  0  0  0
    3.6705    1.0951    6.4172 H   0  0  0  0  0  0  0  0  0  0  0  0
    5.0225    1.6700    9.1269 H   0  0  0  0  0  0  0  0  0  0  0  0
    6.1520    1.2562    6.2420 H   0  0  0  0  0  0  0  0  0  0  0  0
    7.1234    1.6051    7.7664 H   0  0  0  0  0  0  0  0  0  0  0  0
    6.2256   -0.4822    8.8138 H   0  0  0  0  0  0  0  0  0  0  0  0
    5.2377   -0.8318    7.3030 H   0  0  0  0  0  0  0  0  0  0  0  0
    1.2696    3.5991    8.0017 H   0  0  0  0  0  0  0  0  0  0  0  0
    0.3054    1.5295    7.4602 H   0  0  0  0  0  0  0  0  0  0  0  0
    1.3549    1.2198    6.0983 H   0  0  0  0  0  0  0  0  0  0  0  0
    3.2653    3.1301    8.4551 H   0  0  0  0  0  0  0  0  0  0  0  0
    1.8314    7.4530    3.5144 H   0  0  0  0  0  0  0  0  0  0  0  0
  1  2  1  0
  1 28  1  0
  1 29  1  0
  1 30  1  0
  2  8  1  0
  2  3  1  0
  2 59  1  6
  3  4  1  0
  3 31  1  0
  3 32  1  0
  4  5  1  0
  4 33  1  0
  4 34  1  0
  6  5  1  6
  5 35  1  0
  5 36  1  0
  6 18  1  0
  6 26  1  0
  6  7  1  0
  7  8  1  0
  7 37  1  0
  7 38  1  0
  8  9  1  0
  8 39  1  1
  9 18  1  0
  9 10  1  0
  9 40  1  1
 10 11  1  0
 11 17  2  0
 11 12  1  0
 12 13  1  0
 12 14  2  0
 13 41  1  0
 14 15  1  0
 14 42  1  0
 15 16  2  0
 15 43  1  0
 16 27  1  0
 16 17  1  0
 17 18  1  0
 18 19  1  6
 19 20  1  0
 19 44  1  0
 19 45  1  0
 20 21  1  0
 20 46  1  0
 20 47  1  0
 21 22  1  0
 21 26  1  0
 21 58  1  1
 22 23  1  0
 22 48  1  0
 22 49  1  0
 23 25  1  0
 23 24  1  0
 23 50  1  0
 24 25  1  0
 24 51  1  0
 24 52  1  0
 25 53  1  0
 25 54  1  0
 26 27  1  0
 26 55  1  1
 27 56  1  0
 27 57  1  0
M  CHG  2   2   1  21   1
M  END
>  <i_m_ct_stereo_status>  (157) 
1

>  <s_m_source_file>  (157) 
/var/tmp/pbs.5076255.sched01/tmpp9awzhar/40nweoahkg.sdf

>  <i_m_source_file_index>  (157) 
20

>  <i_lp_mmshare_version>  (157) 
48012

>  <i_f3d_flags>  (157) 
0

>  <s_epik_input>  (157) 
W0NIMl0xW0NIMl1bQ0gyXU4oW0NIM10pW0NASF0oW0NIMl0yKVtDQEhdKFtDQEBdMzRbQ0BAXTEyNSlPYzZjM2MoW2NIXVtjSF1jNltPSF0pW0NIMl1bQ0BIXTVOKFtDSDJdW0NIMl00KVtDSDJdW0NIXTdbQ0gyXVtDSDJdNw==

>  <s_epik_cmdline>  (157) 
J2VwaWtfcHl0aG9uJywgJy1waHQnLCAnMi4wJywgJy1waCcsICc3LjAnLCAnLXRuJywgJzgnLCAnLW1hJywgJzIwMCcsICctaW1hZScsICc8aW5maWxlLm1hZT4nLCAnLW9tYWUnLCAnPG91dGZpbGUubWFlPic=

>  <r_lp_tautomer_probability>  (157) 
1

>  <r_epik_Ionization_Penalty>  (157) 
0.188914

>  <r_epik_Ionization_Penalty_Charging>  (157) 
0.166225

>  <r_epik_Ionization_Penalty_Neutral>  (157) 
0.0226881

>  <r_epik_State_Penalty>  (157) 
0.155687

>  <r_epik_Charging_Adjusted_Penalty>  (157) 
0.321912

>  <i_epik_Tot_Q>  (157) 
2

>  <i_epik_Tot_abs_Q>  (157) 
2

>  <s_lp_Force_Field>  (157) 
OPLS3e

>  <r_lp_Energy>  (157) 
730.804

>  <b_lp_Chiralities_Consistent>  (157) 
1

>  <s_lp_Variant>  (157) 
43:0-1

>  <s_i_glide_gridfile>  (157) 
pfpi4k_grid

>  <i_i_glide_lignum>  (157) 
20

>  <i_i_glide_rotatable_bonds>  (157) 
3

>  <r_i_docking_score>  (157) 
-2.12558

>  <r_i_glide_ligand_efficiency>  (157) 
-0.0787254

>  <r_i_glide_ligand_efficiency_sa>  (157) 
-0.236176

>  <r_i_glide_ligand_efficiency_ln>  (157) 
-0.494801

>  <r_i_glide_gscore>  (157) 
-2.12558

>  <r_i_glide_lipo>  (157) 
-0.0178485

>  <r_i_glide_hbond>  (157) 
-0.043311

>  <r_i_glide_metal>  (157) 
-0

>  <r_i_glide_rewards>  (157) 
-0.896506

>  <r_i_glide_evdw>  (157) 
-15.5746

>  <r_i_glide_ecoul>  (157) 
-4.29806

>  <r_i_glide_erotb>  (157) 
0.283807

>  <r_i_glide_esite>  (157) 
-0.0282854

>  <r_i_glide_emodel>  (157) 
-21.5396

>  <r_i_glide_energy>  (157) 
-19.8727

>  <r_i_glide_einternal>  (157) 
1.76664

>  <r_i_glide_intrahb_reward>  (157) 
-0

>  <i_i_glide_confnum>  (157) 
3

>  <i_i_glide_posenum>  (157) 
17

>  <r_i_glide_eff_state_penalty>  (157) 
0

>  <ligand_id>  (157) 
43

>  <original_smiles>  (157) 
CN1CCCC23CC1C1Oc4c(O)ccc5c4C12CCN(CC1CC1)C3C5

>  <smiles>  (157) 
[H]Oc1c([H])c([H])c2c3c1OC1([H])C34C([H])([H])C([H])([H])[N+]([H])(C([H])([H])C3([H])C([H])([H])C3([H])[H])C([H])(C2([H])[H])C42C([H])([H])C([H])([H])C([H])([H])[N+]([H])(C([H])([H])[H])C1([H])C2([H])[H]

$$$$
43:1:0
     RDKit          3D

 58 64  0  0  1  0  0  0  0  0999 V2000
   -1.7577    3.2046    5.6065 C   0  0  0  0  0  0  0  0  0  0  0  0
   -1.4366    1.9949    4.8537 N   0  0  0  0  0  0  0  0  0  0  0  0
   -1.7423    2.2356    3.4378 C   0  0  0  0  0  0  0  0  0  0  0  0
   -1.2762    1.1408    2.4620 C   0  0  0  0  0  0  0  0  0  0  0  0
    0.2148    1.1931    2.0707 C   0  0  0  0  0  0  0  0  0  0  0  0
    1.2873    1.0089    3.1930 C   0  0  1  0  0  0  0  0  0  0  0  0
    1.0328    2.1151    4.2464 C   0  0  0  0  0  0  0  0  0  0  0  0
   -0.0808    1.5239    5.1702 C   0  0  2  0  0  0  0  0  0  0  0  0
   -0.0090   -0.0305    5.0637 C   0  0  2  0  0  0  0  0  0  0  0  0
    0.4069   -0.6793    6.2859 O   0  0  0  0  0  0  0  0  0  0  0  0
    1.7725   -0.7381    6.2577 C   0  0  0  0  0  0  0  0  0  0  0  0
    2.6974   -1.0429    7.2783 C   0  0  0  0  0  0  0  0  0  0  0  0
    2.2523   -1.4838    8.4896 O   0  0  0  0  0  0  0  0  0  0  0  0
    4.0866   -0.8618    7.0515 C   0  0  0  0  0  0  0  0  0  0  0  0
    4.5606   -0.3066    5.8357 C   0  0  0  0  0  0  0  0  0  0  0  0
    3.6447   -0.0249    4.8036 C   0  0  0  0  0  0  0  0  0  0  0  0
    2.3028   -0.3502    5.0463 C   0  0  0  0  0  0  0  0  0  0  0  0
    1.1547   -0.2356    4.0726 C   0  0  2  0  0  0  0  0  0  0  0  0
    1.0924   -1.4993    3.1933 C   0  0  0  0  0  0  0  0  0  0  0  0
    2.3747   -1.6354    2.3477 C   0  0  0  0  0  0  0  0  0  0  0  0
    2.7233   -0.3654    1.6376 N   0  0  2  0  0  0  0  0  0  0  0  0
    3.9539   -0.4902    0.8078 C   0  0  0  0  0  0  0  0  0  0  0  0
    3.7650   -1.3825   -0.4152 C   0  0  0  0  0  0  0  0  0  0  0  0
    4.9719   -1.9826   -1.1151 C   0  0  0  0  0  0  0  0  0  0  0  0
    4.1804   -0.8997   -1.7892 C   0  0  0  0  0  0  0  0  0  0  0  0
    2.7042    0.8578    2.5248 C   0  0  2  0  0  0  0  0  0  0  0  0
    3.8679    0.8191    3.5553 C   0  0  0  0  0  0  0  0  0  0  0  0
   -2.7931    3.5038    5.4382 H   0  0  0  0  0  0  0  0  0  0  0  0
   -1.1145    4.0340    5.3124 H   0  0  0  0  0  0  0  0  0  0  0  0
   -1.6374    3.0501    6.6796 H   0  0  0  0  0  0  0  0  0  0  0  0
   -2.8296    2.2885    3.3740 H   0  0  0  0  0  0  0  0  0  0  0  0
   -1.3750    3.2084    3.1077 H   0  0  0  0  0  0  0  0  0  0  0  0
   -1.5780    0.1501    2.7910 H   0  0  0  0  0  0  0  0  0  0  0  0
   -1.8372    1.2939    1.5413 H   0  0  0  0  0  0  0  0  0  0  0  0
    0.3484    0.4644    1.2769 H   0  0  0  0  0  0  0  0  0  0  0  0
    0.3978    2.1436    1.5766 H   0  0  0  0  0  0  0  0  0  0  0  0
    1.9230    2.2880    4.8506 H   0  0  0  0  0  0  0  0  0  0  0  0
    0.7883    3.0867    3.8159 H   0  0  0  0  0  0  0  0  0  0  0  0
    0.1412    1.7957    6.2020 H   0  0  0  0  0  0  0  0  0  0  0  0
   -0.9465   -0.4726    4.7259 H   0  0  0  0  0  0  0  0  0  0  0  0
    2.9487   -1.6379    9.1084 H   0  0  0  0  0  0  0  0  0  0  0  0
    4.7963   -1.0803    7.8327 H   0  0  0  0  0  0  0  0  0  0  0  0
    5.6077   -0.0601    5.7178 H   0  0  0  0  0  0  0  0  0  0  0  0
    0.9505   -2.3942    3.8013 H   0  0  0  0  0  0  0  0  0  0  0  0
    0.2301   -1.4529    2.5324 H   0  0  0  0  0  0  0  0  0  0  0  0
    3.2037   -1.9605    2.9780 H   0  0  0  0  0  0  0  0  0  0  0  0
    2.2217   -2.4421    1.6326 H   0  0  0  0  0  0  0  0  0  0  0  0
    4.2637    0.4983    0.4683 H   0  0  0  0  0  0  0  0  0  0  0  0
    4.7807   -0.8890    1.3964 H   0  0  0  0  0  0  0  0  0  0  0  0
    2.8912   -2.0331   -0.3967 H   0  0  0  0  0  0  0  0  0  0  0  0
    5.9616   -1.7328   -0.7376 H   0  0  0  0  0  0  0  0  0  0  0  0
    4.8694   -2.9892   -1.5197 H   0  0  0  0  0  0  0  0  0  0  0  0
    3.5349   -1.1839   -2.6184 H   0  0  0  0  0  0  0  0  0  0  0  0
    4.6219    0.0905   -1.8656 H   0  0  0  0  0  0  0  0  0  0  0  0
    2.8712    1.7209    1.8784 H   0  0  0  0  0  0  0  0  0  0  0  0
    4.0430    1.8350    3.9099 H   0  0  0  0  0  0  0  0  0  0  0  0
    4.8144    0.5242    3.1043 H   0  0  0  0  0  0  0  0  0  0  0  0
    1.9765   -0.2241    0.9653 H   0  0  0  0  0  0  0  0  0  0  0  0
  1  2  1  0
  1 28  1  0
  1 29  1  0
  1 30  1  0
  2  8  1  0
  2  3  1  0
  3  4  1  0
  3 31  1  0
  3 32  1  0
  4  5  1  0
  4 33  1  0
  4 34  1  0
  6  5  1  6
  5 35  1  0
  5 36  1  0
  6 18  1  0
  6 26  1  0
  6  7  1  0
  7  8  1  0
  7 37  1  0
  7 38  1  0
  8  9  1  0
  8 39  1  1
  9 18  1  0
  9 10  1  0
  9 40  1  6
 10 11  1  0
 11 17  2  0
 11 12  1  0
 12 13  1  0
 12 14  2  0
 13 41  1  0
 14 15  1  0
 14 42  1  0
 15 16  2  0
 15 43  1  0
 16 27  1  0
 16 17  1  0
 17 18  1  0
 18 19  1  6
 19 20  1  0
 19 44  1  0
 19 45  1  0
 20 21  1  0
 20 46  1  0
 20 47  1  0
 21 22  1  0
 21 26  1  0
 21 58  1  6
 22 23  1  0
 22 48  1  0
 22 49  1  0
 23 25  1  0
 23 24  1  0
 23 50  1  0
 24 25  1  0
 24 51  1  0
 24 52  1  0
 25 53  1  0
 25 54  1  0
 26 27  1  0
 26 55  1  6
 27 56  1  0
 27 57  1  0
M  CHG  1  21   1
M  END
>  <i_m_ct_stereo_status>  (158) 
1

>  <s_m_source_file>  (158) 
/var/tmp/pbs.5076255.sched01/tmpp9awzhar/40nweoahkg.sdf

>  <i_m_source_file_index>  (158) 
21

>  <i_lp_mmshare_version>  (158) 
48012

>  <i_f3d_flags>  (158) 
2

>  <s_epik_input>  (158) 
W0NIMl0xW0NIMl1bQ0gyXU4oW0NIM10pW0NASF0oW0NIMl0yKVtDQEhdKFtDQEBdMzRbQ0BAXTEyNSlPYzZjM2MoW2NIXVtjSF1jNltPSF0pW0NIMl1bQ0BIXTVOKFtDSDJdW0NIMl00KVtDSDJdW0NIXTdbQ0gyXVtDSDJdNw==

>  <s_epik_cmdline>  (158) 
J2VwaWtfcHl0aG9uJywgJy1waHQnLCAnMi4wJywgJy1waCcsICc3LjAnLCAnLXRuJywgJzgnLCAnLW1hJywgJzIwMCcsICctaW1hZScsICc8aW5maWxlLm1hZT4nLCAnLW9tYWUnLCAnPG91dGZpbGUubWFlPic=

>  <r_lp_tautomer_probability>  (158) 
1

>  <r_epik_Ionization_Penalty>  (158) 
1.07313

>  <r_epik_Ionization_Penalty_Charging>  (158) 
0.00691513

>  <r_epik_Ionization_Penalty_Neutral>  (158) 
1.06621

>  <r_epik_State_Penalty>  (158) 
1.14936

>  <r_epik_Charging_Adjusted_Penalty>  (158) 
1.15627

>  <i_epik_Tot_Q>  (158) 
1

>  <i_epik_Tot_abs_Q>  (158) 
1

>  <s_lp_Force_Field>  (158) 
OPLS3e

>  <r_lp_Energy>  (158) 
85.9168

>  <b_lp_Chiralities_Consistent>  (158) 
0

>  <s_lp_Variant>  (158) 
43:0-2

>  <s_i_glide_gridfile>  (158) 
pfpi4k_grid

>  <i_i_glide_lignum>  (158) 
21

>  <i_i_glide_rotatable_bonds>  (158) 
3

>  <r_i_docking_score>  (158) 
-2.67371

>  <r_i_glide_ligand_efficiency>  (158) 
-0.0990263

>  <r_i_glide_ligand_efficiency_sa>  (158) 
-0.297079

>  <r_i_glide_ligand_efficiency_ln>  (158) 
-0.622396

>  <r_i_glide_gscore>  (158) 
-2.67371

>  <r_i_glide_lipo>  (158) 
-0.0827479

>  <r_i_glide_hbond>  (158) 
-0.0773797

>  <r_i_glide_metal>  (158) 
-0

>  <r_i_glide_rewards>  (158) 
-0.903379

>  <r_i_glide_evdw>  (158) 
-19.7799

>  <r_i_glide_ecoul>  (158) 
-5.70736

>  <r_i_glide_erotb>  (158) 
0.285199

>  <r_i_glide_esite>  (158) 
-0.0503054

>  <r_i_glide_emodel>  (158) 
-29.9303

>  <r_i_glide_energy>  (158) 
-25.4872

>  <r_i_glide_einternal>  (158) 
0.882916

>  <r_i_glide_intrahb_reward>  (158) 
-0

>  <i_i_glide_confnum>  (158) 
1

>  <i_i_glide_posenum>  (158) 
27

>  <r_i_glide_eff_state_penalty>  (158) 
0

>  <ligand_id>  (158) 
43

>  <original_smiles>  (158) 
CN1CCCC23CC1C1Oc4c(O)ccc5c4C12CCN(CC1CC1)C3C5

>  <smiles>  (158) 
[H]Oc1c([H])c([H])c2c3c1OC1([H])C4([H])N(C([H])([H])[H])C([H])([H])C([H])([H])C([H])([H])C5(C4([H])[H])C31C([H])([H])C([H])([H])[N+]([H])(C([H])([H])C1([H])C([H])([H])C1([H])[H])C5([H])C2([H])[H]

$$$$
43:1:1
     RDKit          3D

 58 64  0  0  1  0  0  0  0  0999 V2000
   -1.6767    3.1068    5.6930 C   0  0  0  0  0  0  0  0  0  0  0  0
   -1.3444    1.9236    4.9033 N   0  0  0  0  0  0  0  0  0  0  0  0
   -1.6427    2.2082    3.4938 C   0  0  0  0  0  0  0  0  0  0  0  0
   -1.1623    1.1503    2.4834 C   0  0  0  0  0  0  0  0  0  0  0  0
    0.3322    1.2289    2.1034 C   0  0  0  0  0  0  0  0  0  0  0  0
    1.3976    1.0094    3.2279 C   0  0  1  0  0  0  0  0  0  0  0  0
    1.1292    2.0778    4.3164 C   0  0  0  0  0  0  0  0  0  0  0  0
    0.0128    1.4504    5.2127 C   0  0  2  0  0  0  0  0  0  0  0  0
    0.0950   -0.0996    5.0559 C   0  0  2  0  0  0  0  0  0  0  0  0
    0.5072   -0.7857    6.2607 O   0  0  0  0  0  0  0  0  0  0  0  0
    1.8727   -0.8356    6.2344 C   0  0  0  0  0  0  0  0  0  0  0  0
    2.7942   -1.1687    7.2490 C   0  0  0  0  0  0  0  0  0  0  0  0
    2.3475   -1.6526    8.4411 O   0  0  0  0  0  0  0  0  0  0  0  0
    4.1825   -0.9729    7.0404 C   0  0  0  0  0  0  0  0  0  0  0  0
    4.6607   -0.3747    5.8477 C   0  0  0  0  0  0  0  0  0  0  0  0
    3.7495   -0.0643    4.8200 C   0  0  0  0  0  0  0  0  0  0  0  0
    2.4073   -0.4057    5.0410 C   0  0  0  0  0  0  0  0  0  0  0  0
    1.2653   -0.2651    4.0638 C   0  0  2  0  0  0  0  0  0  0  0  0
    1.2174   -1.4995    3.1422 C   0  0  0  0  0  0  0  0  0  0  0  0
    2.5040   -1.5985    2.2975 C   0  0  0  0  0  0  0  0  0  0  0  0
    2.8523   -0.3028    1.6405 N   0  0  2  0  0  0  0  0  0  0  0  0
    4.0895   -0.3969    0.8177 C   0  0  0  0  0  0  0  0  0  0  0  0
    3.9130   -1.2820   -0.4050 C   0  0  0  0  0  0  0  0  0  0  0  0
    4.3545   -2.7324   -0.3732 C   0  0  0  0  0  0  0  0  0  0  0  0
    5.1217   -1.7363   -1.2006 C   0  0  0  0  0  0  0  0  0  0  0  0
    2.8210    0.8885    2.5678 C   0  0  2  0  0  0  0  0  0  0  0  0
    3.9782    0.8210    3.6047 C   0  0  0  0  0  0  0  0  0  0  0  0
   -2.7126    3.4069    5.5286 H   0  0  0  0  0  0  0  0  0  0  0  0
   -1.0367    3.9498    5.4314 H   0  0  0  0  0  0  0  0  0  0  0  0
   -1.5623    2.9189    6.7614 H   0  0  0  0  0  0  0  0  0  0  0  0
   -2.7297    2.2579    3.4237 H   0  0  0  0  0  0  0  0  0  0  0  0
   -1.2785    3.1943    3.1990 H   0  0  0  0  0  0  0  0  0  0  0  0
   -1.4584    0.1480    2.7752 H   0  0  0  0  0  0  0  0  0  0  0  0
   -1.7186    1.3332    1.5646 H   0  0  0  0  0  0  0  0  0  0  0  0
    0.4754    0.5345    1.2788 H   0  0  0  0  0  0  0  0  0  0  0  0
    0.5122    2.2051    1.6558 H   0  0  0  0  0  0  0  0  0  0  0  0
    2.0141    2.2357    4.9318 H   0  0  0  0  0  0  0  0  0  0  0  0
    0.8823    3.0624    3.9179 H   0  0  0  0  0  0  0  0  0  0  0  0
    0.2267    1.6906    6.2542 H   0  0  0  0  0  0  0  0  0  0  0  0
   -0.8380   -0.5354    4.6993 H   0  0  0  0  0  0  0  0  0  0  0  0
    1.4079   -1.7324    8.4630 H   0  0  0  0  0  0  0  0  0  0  0  0
    4.8784   -1.2159    7.8260 H   0  0  0  0  0  0  0  0  0  0  0  0
    5.7072   -0.1190    5.7470 H   0  0  0  0  0  0  0  0  0  0  0  0
    1.0781   -2.4147    3.7199 H   0  0  0  0  0  0  0  0  0  0  0  0
    0.3586   -1.4379    2.4793 H   0  0  0  0  0  0  0  0  0  0  0  0
    3.3310   -1.9440    2.9195 H   0  0  0  0  0  0  0  0  0  0  0  0
    2.3619   -2.3685    1.5399 H   0  0  0  0  0  0  0  0  0  0  0  0
    4.3765    0.5948    0.4758 H   0  0  0  0  0  0  0  0  0  0  0  0
    4.9270   -0.7788    1.4020 H   0  0  0  0  0  0  0  0  0  0  0  0
    3.0298   -1.0554   -1.0027 H   0  0  0  0  0  0  0  0  0  0  0  0
    4.8121   -3.0953    0.5462 H   0  0  0  0  0  0  0  0  0  0  0  0
    3.7294   -3.4544   -0.8982 H   0  0  0  0  0  0  0  0  0  0  0  0
    5.0217   -1.8237   -2.2815 H   0  0  0  0  0  0  0  0  0  0  0  0
    6.1095   -1.4499   -0.8462 H   0  0  0  0  0  0  0  0  0  0  0  0
    2.9886    1.7700    1.9495 H   0  0  0  0  0  0  0  0  0  0  0  0
    4.1497    1.8251    3.9933 H   0  0  0  0  0  0  0  0  0  0  0  0
    4.9283    0.5403    3.1534 H   0  0  0  0  0  0  0  0  0  0  0  0
    2.1073   -0.1429    0.9715 H   0  0  0  0  0  0  0  0  0  0  0  0
  1  2  1  0
  1 28  1  0
  1 29  1  0
  1 30  1  0
  2  8  1  0
  2  3  1  0
  3  4  1  0
  3 31  1  0
  3 32  1  0
  4  5  1  0
  4 33  1  0
  4 34  1  0
  6  5  1  6
  5 35  1  0
  5 36  1  0
  6 18  1  0
  6 26  1  0
  6  7  1  0
  7  8  1  0
  7 37  1  0
  7 38  1  0
  8  9  1  0
  8 39  1  1
  9 18  1  0
  9 10  1  0
  9 40  1  6
 10 11  1  0
 11 17  2  0
 11 12  1  0
 12 13  1  0
 12 14  2  0
 13 41  1  0
 14 15  1  0
 14 42  1  0
 15 16  2  0
 15 43  1  0
 16 27  1  0
 16 17  1  0
 17 18  1  0
 18 19  1  6
 19 20  1  0
 19 44  1  0
 19 45  1  0
 20 21  1  0
 20 46  1  0
 20 47  1  0
 21 22  1  0
 21 26  1  0
 21 58  1  6
 22 23  1  0
 22 48  1  0
 22 49  1  0
 23 25  1  0
 23 24  1  0
 23 50  1  0
 24 25  1  0
 24 51  1  0
 24 52  1  0
 25 53  1  0
 25 54  1  0
 26 27  1  0
 26 55  1  6
 27 56  1  0
 27 57  1  0
M  CHG  1  21   1
M  END
>  <i_m_ct_stereo_status>  (159) 
1

>  <s_m_source_file>  (159) 
/var/tmp/pbs.5076255.sched01/tmpp9awzhar/40nweoahkg.sdf

>  <i_m_source_file_index>  (159) 
21

>  <i_lp_mmshare_version>  (159) 
48012

>  <i_f3d_flags>  (159) 
2

>  <s_epik_input>  (159) 
W0NIMl0xW0NIMl1bQ0gyXU4oW0NIM10pW0NASF0oW0NIMl0yKVtDQEhdKFtDQEBdMzRbQ0BAXTEyNSlPYzZjM2MoW2NIXVtjSF1jNltPSF0pW0NIMl1bQ0BIXTVOKFtDSDJdW0NIMl00KVtDSDJdW0NIXTdbQ0gyXVtDSDJdNw==

>  <s_epik_cmdline>  (159) 
J2VwaWtfcHl0aG9uJywgJy1waHQnLCAnMi4wJywgJy1waCcsICc3LjAnLCAnLXRuJywgJzgnLCAnLW1hJywgJzIwMCcsICctaW1hZScsICc8aW5maWxlLm1hZT4nLCAnLW9tYWUnLCAnPG91dGZpbGUubWFlPic=

>  <r_lp_tautomer_probability>  (159) 
1

>  <r_epik_Ionization_Penalty>  (159) 
1.07313

>  <r_epik_Ionization_Penalty_Charging>  (159) 
0.00691513

>  <r_epik_Ionization_Penalty_Neutral>  (159) 
1.06621

>  <r_epik_State_Penalty>  (159) 
1.14936

>  <r_epik_Charging_Adjusted_Penalty>  (159) 
1.15627

>  <i_epik_Tot_Q>  (159) 
1

>  <i_epik_Tot_abs_Q>  (159) 
1

>  <s_lp_Force_Field>  (159) 
OPLS3e

>  <r_lp_Energy>  (159) 
85.9168

>  <b_lp_Chiralities_Consistent>  (159) 
0

>  <s_lp_Variant>  (159) 
43:0-2

>  <s_i_glide_gridfile>  (159) 
pfpi4k_grid

>  <i_i_glide_lignum>  (159) 
21

>  <i_i_glide_rotatable_bonds>  (159) 
3

>  <r_i_docking_score>  (159) 
-2.52324

>  <r_i_glide_ligand_efficiency>  (159) 
-0.0934532

>  <r_i_glide_ligand_efficiency_sa>  (159) 
-0.28036

>  <r_i_glide_ligand_efficiency_ln>  (159) 
-0.587368

>  <r_i_glide_gscore>  (159) 
-2.52324

>  <r_i_glide_lipo>  (159) 
-0.160712

>  <r_i_glide_hbond>  (159) 
-0.0237795

>  <r_i_glide_metal>  (159) 
-0

>  <r_i_glide_rewards>  (159) 
-0.903379

>  <r_i_glide_evdw>  (159) 
-19.2369

>  <r_i_glide_ecoul>  (159) 
-4.79378

>  <r_i_glide_erotb>  (159) 
0.285199

>  <r_i_glide_esite>  (159) 
-0.0396531

>  <r_i_glide_emodel>  (159) 
-28.6532

>  <r_i_glide_energy>  (159) 
-24.0307

>  <r_i_glide_einternal>  (159) 
0.0196232

>  <r_i_glide_intrahb_reward>  (159) 
-0

>  <i_i_glide_confnum>  (159) 
1

>  <i_i_glide_posenum>  (159) 
1

>  <r_i_glide_eff_state_penalty>  (159) 
0

>  <ligand_id>  (159) 
43

>  <original_smiles>  (159) 
CN1CCCC23CC1C1Oc4c(O)ccc5c4C12CCN(CC1CC1)C3C5

>  <smiles>  (159) 
[H]Oc1c([H])c([H])c2c3c1OC1([H])C4([H])N(C([H])([H])[H])C([H])([H])C([H])([H])C([H])([H])C5(C4([H])[H])C31C([H])([H])C([H])([H])[N+]([H])(C([H])([H])C1([H])C([H])([H])C1([H])[H])C5([H])C2([H])[H]

$$$$
43:1:2
     RDKit          3D

 58 64  0  0  1  0  0  0  0  0999 V2000
   -2.8946    2.0468    6.8704 C   0  0  0  0  0  0  0  0  0  0  0  0
   -1.7645    1.1633    6.5967 N   0  0  0  0  0  0  0  0  0  0  0  0
   -2.1648    0.0813    5.6925 C   0  0  0  0  0  0  0  0  0  0  0  0
   -1.0465   -0.8187    5.1685 C   0  0  0  0  0  0  0  0  0  0  0  0
   -0.3105   -0.2337    3.9444 C   0  0  0  0  0  0  0  0  0  0  0  0
    0.4814    1.1016    4.1312 C   0  0  1  0  0  0  0  0  0  0  0  0
   -0.5337    2.1654    4.6126 C   0  0  0  0  0  0  0  0  0  0  0  0
   -0.6144    1.9602    6.1612 C   0  0  2  0  0  0  0  0  0  0  0  0
    0.7103    1.2842    6.6207 C   0  0  2  0  0  0  0  0  0  0  0  0
    1.5343    2.1322    7.4512 O   0  0  0  0  0  0  0  0  0  0  0  0
    2.3326    2.8583    6.6170 C   0  0  0  0  0  0  0  0  0  0  0  0
    3.1404    3.9829    6.8690 C   0  0  0  0  0  0  0  0  0  0  0  0
    3.3203    4.4189    8.1510 O   0  0  0  0  0  0  0  0  0  0  0  0
    3.7423    4.6819    5.7901 C   0  0  0  0  0  0  0  0  0  0  0  0
    3.4675    4.3119    4.4512 C   0  0  0  0  0  0  0  0  0  0  0  0
    2.7013    3.1626    4.1926 C   0  0  0  0  0  0  0  0  0  0  0  0
    2.2490    2.4413    5.3033 C   0  0  0  0  0  0  0  0  0  0  0  0
    1.4783    1.1454    5.2915 C   0  0  2  0  0  0  0  0  0  0  0  0
    2.4545   -0.0423    5.1885 C   0  0  0  0  0  0  0  0  0  0  0  0
    3.2417    0.0179    3.8644 C   0  0  0  0  0  0  0  0  0  0  0  0
    2.3502    0.2329    2.6785 N   0  0  2  0  0  0  0  0  0  0  0  0
    3.0907    0.2582    1.3862 C   0  0  0  0  0  0  0  0  0  0  0  0
    3.8519   -1.0254    1.1145 C   0  0  0  0  0  0  0  0  0  0  0  0
    5.3621   -1.0717    1.2714 C   0  0  0  0  0  0  0  0  0  0  0  0
    4.7507   -1.1268   -0.0999 C   0  0  0  0  0  0  0  0  0  0  0  0
    1.3576    1.3622    2.8513 C   0  0  2  0  0  0  0  0  0  0  0  0
    2.0809    2.7364    2.8672 C   0  0  0  0  0  0  0  0  0  0  0  0
   -3.7420    1.4857    7.2607 H   0  0  0  0  0  0  0  0  0  0  0  0
   -3.2302    2.5500    5.9695 H   0  0  0  0  0  0  0  0  0  0  0  0
   -2.6598    2.8155    7.6083 H   0  0  0  0  0  0  0  0  0  0  0  0
   -2.8518   -0.5331    6.2641 H   0  0  0  0  0  0  0  0  0  0  0  0
   -2.6928    0.4347    4.8091 H   0  0  0  0  0  0  0  0  0  0  0  0
   -0.3777   -1.1754    5.9491 H   0  0  0  0  0  0  0  0  0  0  0  0
   -1.5426   -1.7198    4.8163 H   0  0  0  0  0  0  0  0  0  0  0  0
    0.3195   -1.0323    3.5588 H   0  0  0  0  0  0  0  0  0  0  0  0
   -1.0471   -0.0620    3.1588 H   0  0  0  0  0  0  0  0  0  0  0  0
   -0.1575    3.1679    4.4149 H   0  0  0  0  0  0  0  0  0  0  0  0
   -1.4951    2.1221    4.0988 H   0  0  0  0  0  0  0  0  0  0  0  0
   -0.6741    2.9383    6.6359 H   0  0  0  0  0  0  0  0  0  0  0  0
    0.5441    0.3296    7.1207 H   0  0  0  0  0  0  0  0  0  0  0  0
    3.8358    5.2064    8.1996 H   0  0  0  0  0  0  0  0  0  0  0  0
    4.3603    5.5424    5.9759 H   0  0  0  0  0  0  0  0  0  0  0  0
    3.8189    4.9208    3.6241 H   0  0  0  0  0  0  0  0  0  0  0  0
    3.1532   -0.0447    6.0256 H   0  0  0  0  0  0  0  0  0  0  0  0
    1.9125   -0.9871    5.2521 H   0  0  0  0  0  0  0  0  0  0  0  0
    3.9987    0.8028    3.9110 H   0  0  0  0  0  0  0  0  0  0  0  0
    3.7826   -0.9192    3.7491 H   0  0  0  0  0  0  0  0  0  0  0  0
    2.3681    0.3978    0.5839 H   0  0  0  0  0  0  0  0  0  0  0  0
    3.8122    1.0758    1.3496 H   0  0  0  0  0  0  0  0  0  0  0  0
    3.2995   -1.9378    1.3503 H   0  0  0  0  0  0  0  0  0  0  0  0
    5.8784   -0.1561    1.5612 H   0  0  0  0  0  0  0  0  0  0  0  0
    5.7921   -1.9910    1.6690 H   0  0  0  0  0  0  0  0  0  0  0  0
    4.7886   -2.0855   -0.6145 H   0  0  0  0  0  0  0  0  0  0  0  0
    4.8549   -0.2546   -0.7407 H   0  0  0  0  0  0  0  0  0  0  0  0
    0.7105    1.3436    1.9746 H   0  0  0  0  0  0  0  0  0  0  0  0
    1.3407    3.4956    2.6239 H   0  0  0  0  0  0  0  0  0  0  0  0
    2.8227    2.8250    2.0853 H   0  0  0  0  0  0  0  0  0  0  0  0
    1.7734   -0.5993    2.6164 H   0  0  0  0  0  0  0  0  0  0  0  0
  1  2  1  0
  1 28  1  0
  1 29  1  0
  1 30  1  0
  2  8  1  0
  2  3  1  0
  3  4  1  0
  3 31  1  0
  3 32  1  0
  4  5  1  0
  4 33  1  0
  4 34  1  0
  6  5  1  6
  5 35  1  0
  5 36  1  0
  6 18  1  0
  6 26  1  0
  6  7  1  0
  7  8  1  0
  7 37  1  0
  7 38  1  0
  8  9  1  0
  8 39  1  1
  9 18  1  0
  9 10  1  0
  9 40  1  1
 10 11  1  0
 11 17  2  0
 11 12  1  0
 12 13  1  0
 12 14  2  0
 13 41  1  0
 14 15  1  0
 14 42  1  0
 15 16  2  0
 15 43  1  0
 16 27  1  0
 16 17  1  0
 17 18  1  0
 18 19  1  1
 19 20  1  0
 19 44  1  0
 19 45  1  0
 20 21  1  0
 20 46  1  0
 20 47  1  0
 21 22  1  0
 21 26  1  0
 21 58  1  6
 22 23  1  0
 22 48  1  0
 22 49  1  0
 23 25  1  0
 23 24  1  0
 23 50  1  0
 24 25  1  0
 24 51  1  0
 24 52  1  0
 25 53  1  0
 25 54  1  0
 26 27  1  0
 26 55  1  6
 27 56  1  0
 27 57  1  0
M  CHG  1  21   1
M  END
>  <i_m_ct_stereo_status>  (160) 
1

>  <s_m_source_file>  (160) 
/var/tmp/pbs.5076255.sched01/tmpp9awzhar/40nweoahkg.sdf

>  <i_m_source_file_index>  (160) 
21

>  <i_lp_mmshare_version>  (160) 
48012

>  <i_f3d_flags>  (160) 
2

>  <s_epik_input>  (160) 
W0NIMl0xW0NIMl1bQ0gyXU4oW0NIM10pW0NASF0oW0NIMl0yKVtDQEhdKFtDQEBdMzRbQ0BAXTEyNSlPYzZjM2MoW2NIXVtjSF1jNltPSF0pW0NIMl1bQ0BIXTVOKFtDSDJdW0NIMl00KVtDSDJdW0NIXTdbQ0gyXVtDSDJdNw==

>  <s_epik_cmdline>  (160) 
J2VwaWtfcHl0aG9uJywgJy1waHQnLCAnMi4wJywgJy1waCcsICc3LjAnLCAnLXRuJywgJzgnLCAnLW1hJywgJzIwMCcsICctaW1hZScsICc8aW5maWxlLm1hZT4nLCAnLW9tYWUnLCAnPG91dGZpbGUubWFlPic=

>  <r_lp_tautomer_probability>  (160) 
1

>  <r_epik_Ionization_Penalty>  (160) 
1.07313

>  <r_epik_Ionization_Penalty_Charging>  (160) 
0.00691513

>  <r_epik_Ionization_Penalty_Neutral>  (160) 
1.06621

>  <r_epik_State_Penalty>  (160) 
1.14936

>  <r_epik_Charging_Adjusted_Penalty>  (160) 
1.15627

>  <i_epik_Tot_Q>  (160) 
1

>  <i_epik_Tot_abs_Q>  (160) 
1

>  <s_lp_Force_Field>  (160) 
OPLS3e

>  <r_lp_Energy>  (160) 
85.9168

>  <b_lp_Chiralities_Consistent>  (160) 
0

>  <s_lp_Variant>  (160) 
43:0-2

>  <s_i_glide_gridfile>  (160) 
pfpi4k_grid

>  <i_i_glide_lignum>  (160) 
21

>  <i_i_glide_rotatable_bonds>  (160) 
3

>  <r_i_docking_score>  (160) 
-2.38611

>  <r_i_glide_ligand_efficiency>  (160) 
-0.0883746

>  <r_i_glide_ligand_efficiency_sa>  (160) 
-0.265124

>  <r_i_glide_ligand_efficiency_ln>  (160) 
-0.555448

>  <r_i_glide_gscore>  (160) 
-2.38611

>  <r_i_glide_lipo>  (160) 
-0.226691

>  <r_i_glide_hbond>  (160) 
-0.0487996

>  <r_i_glide_metal>  (160) 
-0

>  <r_i_glide_rewards>  (160) 
-0.903379

>  <r_i_glide_evdw>  (160) 
-15.5456

>  <r_i_glide_ecoul>  (160) 
-4.70646

>  <r_i_glide_erotb>  (160) 
0.285199

>  <r_i_glide_esite>  (160) 
-0.00919379

>  <r_i_glide_emodel>  (160) 
-24.4216

>  <r_i_glide_energy>  (160) 
-20.2521

>  <r_i_glide_einternal>  (160) 
0.323623

>  <r_i_glide_intrahb_reward>  (160) 
-0

>  <i_i_glide_confnum>  (160) 
1

>  <i_i_glide_posenum>  (160) 
2

>  <r_i_glide_eff_state_penalty>  (160) 
0

>  <ligand_id>  (160) 
43

>  <original_smiles>  (160) 
CN1CCCC23CC1C1Oc4c(O)ccc5c4C12CCN(CC1CC1)C3C5

>  <smiles>  (160) 
[H]Oc1c([H])c([H])c2c3c1OC1([H])C4([H])N(C([H])([H])[H])C([H])([H])C([H])([H])C([H])([H])C5(C4([H])[H])C31C([H])([H])C([H])([H])[N+]([H])(C([H])([H])C1([H])C([H])([H])C1([H])[H])C5([H])C2([H])[H]

$$$$
43:2:0
     RDKit          3D

 58 64  0  0  1  0  0  0  0  0999 V2000
  -12.7641   -9.2459   -9.5880 C   0  0  0  0  0  0  0  0  0  0  0  0
  -11.3672   -8.7718   -9.7445 N   0  0  1  0  0  0  0  0  0  0  0  0
  -11.2873   -7.3065   -9.4971 C   0  0  0  0  0  0  0  0  0  0  0  0
   -9.8607   -6.7279   -9.5140 C   0  0  0  0  0  0  0  0  0  0  0  0
   -9.0677   -6.8960   -8.2007 C   0  0  0  0  0  0  0  0  0  0  0  0
   -8.7336   -8.3428   -7.7082 C   0  0  1  0  0  0  0  0  0  0  0  0
  -10.0740   -9.1060   -7.5718 C   0  0  0  0  0  0  0  0  0  0  0  0
  -10.3886   -9.6271   -9.0066 C   0  0  2  0  0  0  0  0  0  0  0  0
   -9.0174   -9.7496   -9.7549 C   0  0  2  0  0  0  0  0  0  0  0  0
   -8.6483  -11.1219  -10.0520 O   0  0  0  0  0  0  0  0  0  0  0  0
   -7.9530  -11.5832   -8.9705 C   0  0  0  0  0  0  0  0  0  0  0  0
   -7.5845  -12.9012   -8.6099 C   0  0  0  0  0  0  0  0  0  0  0  0
   -7.8078  -13.9347   -9.4697 O   0  0  0  0  0  0  0  0  0  0  0  0
   -7.0198  -13.1654   -7.3412 C   0  0  0  0  0  0  0  0  0  0  0  0
   -6.8750  -12.1289   -6.3928 C   0  0  0  0  0  0  0  0  0  0  0  0
   -7.2078  -10.8047   -6.7421 C   0  0  0  0  0  0  0  0  0  0  0  0
   -7.6496  -10.5889   -8.0533 C   0  0  0  0  0  0  0  0  0  0  0  0
   -8.0179   -9.2591   -8.6802 C   0  0  2  0  0  0  0  0  0  0  0  0
   -6.7604   -8.5288   -9.1602 C   0  0  0  0  0  0  0  0  0  0  0  0
   -5.7821   -8.2147   -8.0052 C   0  0  0  0  0  0  0  0  0  0  0  0
   -6.4905   -7.5718   -6.9028 N   0  0  0  0  0  0  0  0  0  0  0  0
   -5.5870   -7.2079   -5.8064 C   0  0  0  0  0  0  0  0  0  0  0  0
   -6.1906   -6.1091   -4.9505 C   0  0  0  0  0  0  0  0  0  0  0  0
   -6.7966   -4.8725   -5.5840 C   0  0  0  0  0  0  0  0  0  0  0  0
   -5.4986   -4.7677   -4.8433 C   0  0  0  0  0  0  0  0  0  0  0  0
   -7.7405   -8.2386   -6.4920 C   0  0  2  0  0  0  0  0  0  0  0  0
   -7.3855   -9.6098   -5.8201 C   0  0  0  0  0  0  0  0  0  0  0  0
  -13.0982   -9.1829   -8.5450 H   0  0  0  0  0  0  0  0  0  0  0  0
  -12.8697  -10.2816   -9.9249 H   0  0  0  0  0  0  0  0  0  0  0  0
  -13.4451   -8.6380  -10.1922 H   0  0  0  0  0  0  0  0  0  0  0  0
  -11.8467   -6.8226  -10.2970 H   0  0  0  0  0  0  0  0  0  0  0  0
  -11.8072   -7.0155   -8.5817 H   0  0  0  0  0  0  0  0  0  0  0  0
   -9.2944   -7.0654  -10.3844 H   0  0  0  0  0  0  0  0  0  0  0  0
   -9.9686   -5.6522   -9.6634 H   0  0  0  0  0  0  0  0  0  0  0  0
   -8.1611   -6.3067   -8.3223 H   0  0  0  0  0  0  0  0  0  0  0  0
   -9.6090   -6.3790   -7.4078 H   0  0  0  0  0  0  0  0  0  0  0  0
   -9.9434   -9.9806   -6.9358 H   0  0  0  0  0  0  0  0  0  0  0  0
  -10.8850   -8.5268   -7.1199 H   0  0  0  0  0  0  0  0  0  0  0  0
  -10.8059  -10.6333   -8.9193 H   0  0  0  0  0  0  0  0  0  0  0  0
   -8.9827   -9.1641  -10.6764 H   0  0  0  0  0  0  0  0  0  0  0  0
   -8.2801  -13.6558  -10.2356 H   0  0  0  0  0  0  0  0  0  0  0  0
   -6.7598  -14.1749   -7.0598 H   0  0  0  0  0  0  0  0  0  0  0  0
   -6.5487  -12.3941   -5.4018 H   0  0  0  0  0  0  0  0  0  0  0  0
   -6.2835   -9.1855   -9.8491 H   0  0  0  0  0  0  0  0  0  0  0  0
   -7.0099   -7.6343   -9.7350 H   0  0  0  0  0  0  0  0  0  0  0  0
   -5.2660   -9.1129   -7.6762 H   0  0  0  0  0  0  0  0  0  0  0  0
   -4.9995   -7.5437   -8.3465 H   0  0  0  0  0  0  0  0  0  0  0  0
   -5.2864   -8.0349   -5.1649 H   0  0  0  0  0  0  0  0  0  0  0  0
   -4.6502   -6.8448   -6.2173 H   0  0  0  0  0  0  0  0  0  0  0  0
   -6.6667   -6.4731   -4.0417 H   0  0  0  0  0  0  0  0  0  0  0  0
   -6.7775   -4.7933   -6.6701 H   0  0  0  0  0  0  0  0  0  0  0  0
   -7.6704   -4.4447   -5.0970 H   0  0  0  0  0  0  0  0  0  0  0  0
   -5.5598   -4.1751   -3.9324 H   0  0  0  0  0  0  0  0  0  0  0  0
   -4.6026   -4.6168   -5.4433 H   0  0  0  0  0  0  0  0  0  0  0  0
   -8.1731   -7.5040   -5.8145 H   0  0  0  0  0  0  0  0  0  0  0  0
   -8.2046   -9.8880   -5.1729 H   0  0  0  0  0  0  0  0  0  0  0  0
   -6.5399   -9.5861   -5.1409 H   0  0  0  0  0  0  0  0  0  0  0  0
  -11.1536   -8.8995  -10.7245 H   0  0  0  0  0  0  0  0  0  0  0  0
  1  2  1  0
  1 28  1  0
  1 29  1  0
  1 30  1  0
  2  8  1  0
  2  3  1  0
  2 58  1  6
  3  4  1  0
  3 31  1  0
  3 32  1  0
  4  5  1  0
  4 33  1  0
  4 34  1  0
  6  5  1  6
  5 35  1  0
  5 36  1  0
  6 18  1  0
  6 26  1  0
  6  7  1  0
  7  8  1  0
  7 37  1  0
  7 38  1  0
  8  9  1  0
  8 39  1  1
  9 18  1  0
  9 10  1  0
  9 40  1  6
 10 11  1  0
 11 17  2  0
 11 12  1  0
 12 13  1  0
 12 14  2  0
 13 41  1  0
 14 15  1  0
 14 42  1  0
 15 16  2  0
 15 43  1  0
 16 27  1  0
 16 17  1  0
 17 18  1  0
 18 19  1  6
 19 20  1  0
 19 44  1  0
 19 45  1  0
 20 21  1  0
 20 46  1  0
 20 47  1  0
 21 22  1  0
 21 26  1  0
 22 23  1  0
 22 48  1  0
 22 49  1  0
 23 25  1  0
 23 24  1  0
 23 50  1  0
 24 25  1  0
 24 51  1  0
 24 52  1  0
 25 53  1  0
 25 54  1  0
 26 27  1  0
 26 55  1  1
 27 56  1  0
 27 57  1  0
M  CHG  1   2   1
M  END
>  <i_m_ct_stereo_status>  (161) 
1

>  <s_m_source_file>  (161) 
/var/tmp/pbs.5076255.sched01/tmpp9awzhar/40nweoahkg.sdf

>  <i_m_source_file_index>  (161) 
22

>  <i_lp_mmshare_version>  (161) 
48012

>  <i_f3d_flags>  (161) 
0

>  <s_epik_input>  (161) 
W0NIMl0xW0NIMl1bQ0gyXU4oW0NIM10pW0NASF0oW0NIMl0yKVtDQEhdKFtDQEBdMzRbQ0BAXTEyNSlPYzZjM2MoW2NIXVtjSF1jNltPSF0pW0NIMl1bQ0BIXTVOKFtDSDJdW0NIMl00KVtDSDJdW0NIXTdbQ0gyXVtDSDJdNw==

>  <s_epik_cmdline>  (161) 
J2VwaWtfcHl0aG9uJywgJy1waHQnLCAnMi4wJywgJy1waCcsICc3LjAnLCAnLXRuJywgJzgnLCAnLW1hJywgJzIwMCcsICctaW1hZScsICc8aW5maWxlLm1hZT4nLCAnLW9tYWUnLCAnPG91dGZpbGUubWFlPic=

>  <r_epik_Ionization_Penalty>  (161) 
1.46105

>  <r_epik_Ionization_Penalty_Charging>  (161) 
0.0118851

>  <r_epik_Ionization_Penalty_Neutral>  (161) 
1.44917

>  <r_epik_State_Penalty>  (161) 
1.63599

>  <r_epik_Charging_Adjusted_Penalty>  (161) 
1.64788

>  <i_epik_Tot_Q>  (161) 
1

>  <i_epik_Tot_abs_Q>  (161) 
1

>  <s_lp_Force_Field>  (161) 
OPLS3e

>  <r_lp_Energy>  (161) 
94.3438

>  <b_lp_Chiralities_Consistent>  (161) 
1

>  <s_lp_Variant>  (161) 
43:0-3

>  <s_i_glide_gridfile>  (161) 
pfpi4k_grid

>  <i_i_glide_lignum>  (161) 
22

>  <i_i_glide_rotatable_bonds>  (161) 
3

>  <r_i_docking_score>  (161) 
-3.44318

>  <r_i_glide_ligand_efficiency>  (161) 
-0.127525

>  <r_i_glide_ligand_efficiency_sa>  (161) 
-0.382576

>  <r_i_glide_ligand_efficiency_ln>  (161) 
-0.801516

>  <r_i_glide_gscore>  (161) 
-3.44318

>  <r_i_glide_lipo>  (161) 
-2.51418

>  <r_i_glide_hbond>  (161) 
0

>  <r_i_glide_metal>  (161) 
-0

>  <r_i_glide_rewards>  (161) 
-0.103379

>  <r_i_glide_evdw>  (161) 
-17.1464

>  <r_i_glide_ecoul>  (161) 
-1.64753

>  <r_i_glide_erotb>  (161) 
0.285199

>  <r_i_glide_esite>  (161) 
-0.00637004

>  <r_i_glide_emodel>  (161) 
-18.9755

>  <r_i_glide_energy>  (161) 
-18.7939

>  <r_i_glide_einternal>  (161) 
11.2258

>  <r_i_glide_intrahb_reward>  (161) 
-0

>  <i_i_glide_confnum>  (161) 
3

>  <i_i_glide_posenum>  (161) 
22

>  <r_i_glide_eff_state_penalty>  (161) 
0

>  <ligand_id>  (161) 
43

>  <original_smiles>  (161) 
CN1CCCC23CC1C1Oc4c(O)ccc5c4C12CCN(CC1CC1)C3C5

>  <smiles>  (161) 
[H]Oc1c([H])c([H])c2c3c1OC1([H])C34C([H])([H])C([H])([H])N(C([H])([H])C3([H])C([H])([H])C3([H])[H])C([H])(C2([H])[H])C42C([H])([H])C([H])([H])C([H])([H])[N+]([H])(C([H])([H])[H])C1([H])C2([H])[H]

$$$$
43:2:1
     RDKit          3D

 58 64  0  0  1  0  0  0  0  0999 V2000
    1.9972    4.7975    3.2630 C   0  0  0  0  0  0  0  0  0  0  0  0
    1.2055    3.5416    3.2299 N   0  0  1  0  0  0  0  0  0  0  0  0
    1.8674    2.5259    2.3644 C   0  0  0  0  0  0  0  0  0  0  0  0
    1.1893    1.1469    2.3394 C   0  0  0  0  0  0  0  0  0  0  0  0
    1.5209    0.2306    3.5362 C   0  0  0  0  0  0  0  0  0  0  0  0
    1.0877    0.6777    4.9761 C   0  0  1  0  0  0  0  0  0  0  0  0
    1.7381    2.0576    5.2396 C   0  0  0  0  0  0  0  0  0  0  0  0
    0.7615    3.0851    4.5852 C   0  0  2  0  0  0  0  0  0  0  0  0
   -0.6588    2.4190    4.5596 C   0  0  2  0  0  0  0  0  0  0  0  0
   -1.6090    3.0623    5.4392 O   0  0  0  0  0  0  0  0  0  0  0  0
   -1.4893    2.4620    6.6636 C   0  0  0  0  0  0  0  0  0  0  0  0
   -1.9768    2.8569    7.9314 C   0  0  0  0  0  0  0  0  0  0  0  0
   -2.8310    3.9131    8.0442 O   0  0  0  0  0  0  0  0  0  0  0  0
   -1.5460    2.1757    9.0978 C   0  0  0  0  0  0  0  0  0  0  0  0
   -0.5780    1.1428    9.0206 C   0  0  0  0  0  0  0  0  0  0  0  0
   -0.1234    0.7098    7.7604 C   0  0  0  0  0  0  0  0  0  0  0  0
   -0.6778    1.3441    6.6367 C   0  0  0  0  0  0  0  0  0  0  0  0
   -0.3872    1.0291    5.1859 C   0  0  2  0  0  0  0  0  0  0  0  0
   -1.2718   -0.1422    4.7085 C   0  0  0  0  0  0  0  0  0  0  0  0
   -0.9132   -1.4495    5.4567 C   0  0  0  0  0  0  0  0  0  0  0  0
    0.5406   -1.6786    5.5307 N   0  0  0  0  0  0  0  0  0  0  0  0
    0.8872   -2.9149    6.2396 C   0  0  0  0  0  0  0  0  0  0  0  0
    0.5252   -4.1640    5.4578 C   0  0  0  0  0  0  0  0  0  0  0  0
   -0.3919   -5.2156    6.0495 C   0  0  0  0  0  0  0  0  0  0  0  0
    1.0791   -5.4979    5.9175 C   0  0  0  0  0  0  0  0  0  0  0  0
    1.3490   -0.5122    5.9691 C   0  0  2  0  0  0  0  0  0  0  0  0
    1.0761   -0.1804    7.4618 C   0  0  0  0  0  0  0  0  0  0  0  0
    2.9370    4.6566    3.7999 H   0  0  0  0  0  0  0  0  0  0  0  0
    1.4368    5.6040    3.7389 H   0  0  0  0  0  0  0  0  0  0  0  0
    2.2337    5.1260    2.2483 H   0  0  0  0  0  0  0  0  0  0  0  0
    1.8132    2.9260    1.3536 H   0  0  0  0  0  0  0  0  0  0  0  0
    2.9288    2.4338    2.5974 H   0  0  0  0  0  0  0  0  0  0  0  0
    0.1179    1.2318    2.1642 H   0  0  0  0  0  0  0  0  0  0  0  0
    1.5618    0.6383    1.4503 H   0  0  0  0  0  0  0  0  0  0  0  0
    1.0975   -0.7409    3.2850 H   0  0  0  0  0  0  0  0  0  0  0  0
    2.5974    0.0545    3.5460 H   0  0  0  0  0  0  0  0  0  0  0  0
    1.7814    2.2644    6.3072 H   0  0  0  0  0  0  0  0  0  0  0  0
    2.7725    2.1328    4.8923 H   0  0  0  0  0  0  0  0  0  0  0  0
    0.7028    3.9653    5.2252 H   0  0  0  0  0  0  0  0  0  0  0  0
   -1.0757    2.3648    3.5532 H   0  0  0  0  0  0  0  0  0  0  0  0
   -3.0672    4.1048    8.9396 H   0  0  0  0  0  0  0  0  0  0  0  0
   -1.8993    2.4831   10.0706 H   0  0  0  0  0  0  0  0  0  0  0  0
   -0.1674    0.7208    9.9287 H   0  0  0  0  0  0  0  0  0  0  0  0
   -2.3291    0.0915    4.8395 H   0  0  0  0  0  0  0  0  0  0  0  0
   -1.1406   -0.2892    3.6386 H   0  0  0  0  0  0  0  0  0  0  0  0
   -1.3452   -1.4298    6.4548 H   0  0  0  0  0  0  0  0  0  0  0  0
   -1.3778   -2.2871    4.9404 H   0  0  0  0  0  0  0  0  0  0  0  0
    1.9648   -2.9411    6.4074 H   0  0  0  0  0  0  0  0  0  0  0  0
    0.4205   -2.9596    7.2235 H   0  0  0  0  0  0  0  0  0  0  0  0
    0.5017   -4.0307    4.3766 H   0  0  0  0  0  0  0  0  0  0  0  0
   -0.7887   -5.0380    7.0482 H   0  0  0  0  0  0  0  0  0  0  0  0
   -1.0497   -5.7585    5.3754 H   0  0  0  0  0  0  0  0  0  0  0  0
    1.3756   -6.2182    5.1577 H   0  0  0  0  0  0  0  0  0  0  0  0
    1.6723   -5.5197    6.8305 H   0  0  0  0  0  0  0  0  0  0  0  0
    2.3954   -0.8083    5.8802 H   0  0  0  0  0  0  0  0  0  0  0  0
    1.9450    0.3555    7.8414 H   0  0  0  0  0  0  0  0  0  0  0  0
    1.0185   -1.0689    8.0866 H   0  0  0  0  0  0  0  0  0  0  0  0
    0.3769    3.7961    2.6924 H   0  0  0  0  0  0  0  0  0  0  0  0
  1  2  1  0
  1 28  1  0
  1 29  1  0
  1 30  1  0
  2  8  1  0
  2  3  1  0
  2 58  1  6
  3  4  1  0
  3 31  1  0
  3 32  1  0
  4  5  1  0
  4 33  1  0
  4 34  1  0
  6  5  1  6
  5 35  1  0
  5 36  1  0
  6 18  1  0
  6 26  1  0
  6  7  1  0
  7  8  1  0
  7 37  1  0
  7 38  1  0
  8  9  1  0
  8 39  1  1
  9 18  1  0
  9 10  1  0
  9 40  1  6
 10 11  1  0
 11 17  2  0
 11 12  1  0
 12 13  1  0
 12 14  2  0
 13 41  1  0
 14 15  1  0
 14 42  1  0
 15 16  2  0
 15 43  1  0
 16 27  1  0
 16 17  1  0
 17 18  1  0
 18 19  1  6
 19 20  1  0
 19 44  1  0
 19 45  1  0
 20 21  1  0
 20 46  1  0
 20 47  1  0
 21 22  1  0
 21 26  1  0
 22 23  1  0
 22 48  1  0
 22 49  1  0
 23 25  1  0
 23 24  1  0
 23 50  1  0
 24 25  1  0
 24 51  1  0
 24 52  1  0
 25 53  1  0
 25 54  1  0
 26 27  1  0
 26 55  1  1
 27 56  1  0
 27 57  1  0
M  CHG  1   2   1
M  END
>  <i_m_ct_stereo_status>  (162) 
1

>  <s_m_source_file>  (162) 
/var/tmp/pbs.5076255.sched01/tmpp9awzhar/40nweoahkg.sdf

>  <i_m_source_file_index>  (162) 
22

>  <i_lp_mmshare_version>  (162) 
48012

>  <i_f3d_flags>  (162) 
0

>  <s_epik_input>  (162) 
W0NIMl0xW0NIMl1bQ0gyXU4oW0NIM10pW0NASF0oW0NIMl0yKVtDQEhdKFtDQEBdMzRbQ0BAXTEyNSlPYzZjM2MoW2NIXVtjSF1jNltPSF0pW0NIMl1bQ0BIXTVOKFtDSDJdW0NIMl00KVtDSDJdW0NIXTdbQ0gyXVtDSDJdNw==

>  <s_epik_cmdline>  (162) 
J2VwaWtfcHl0aG9uJywgJy1waHQnLCAnMi4wJywgJy1waCcsICc3LjAnLCAnLXRuJywgJzgnLCAnLW1hJywgJzIwMCcsICctaW1hZScsICc8aW5maWxlLm1hZT4nLCAnLW9tYWUnLCAnPG91dGZpbGUubWFlPic=

>  <r_epik_Ionization_Penalty>  (162) 
1.46105

>  <r_epik_Ionization_Penalty_Charging>  (162) 
0.0118851

>  <r_epik_Ionization_Penalty_Neutral>  (162) 
1.44917

>  <r_epik_State_Penalty>  (162) 
1.63599

>  <r_epik_Charging_Adjusted_Penalty>  (162) 
1.64788

>  <i_epik_Tot_Q>  (162) 
1

>  <i_epik_Tot_abs_Q>  (162) 
1

>  <s_lp_Force_Field>  (162) 
OPLS3e

>  <r_lp_Energy>  (162) 
94.3438

>  <b_lp_Chiralities_Consistent>  (162) 
1

>  <s_lp_Variant>  (162) 
43:0-3

>  <s_i_glide_gridfile>  (162) 
pfpi4k_grid

>  <i_i_glide_lignum>  (162) 
22

>  <i_i_glide_rotatable_bonds>  (162) 
3

>  <r_i_docking_score>  (162) 
-2.65392

>  <r_i_glide_ligand_efficiency>  (162) 
-0.0982932

>  <r_i_glide_ligand_efficiency_sa>  (162) 
-0.29488

>  <r_i_glide_ligand_efficiency_ln>  (162) 
-0.617788

>  <r_i_glide_gscore>  (162) 
-2.65392

>  <r_i_glide_lipo>  (162) 
-0.0437985

>  <r_i_glide_hbond>  (162) 
-0.132603

>  <r_i_glide_metal>  (162) 
-0

>  <r_i_glide_rewards>  (162) 
-0.903379

>  <r_i_glide_evdw>  (162) 
-19.4418

>  <r_i_glide_ecoul>  (162) 
-5.31261

>  <r_i_glide_erotb>  (162) 
0.285199

>  <r_i_glide_esite>  (162) 
-0.0903535

>  <r_i_glide_emodel>  (162) 
-29.9002

>  <r_i_glide_energy>  (162) 
-24.7544

>  <r_i_glide_einternal>  (162) 
0.346465

>  <r_i_glide_intrahb_reward>  (162) 
-0

>  <i_i_glide_confnum>  (162) 
4

>  <i_i_glide_posenum>  (162) 
34

>  <r_i_glide_eff_state_penalty>  (162) 
0

>  <ligand_id>  (162) 
43

>  <original_smiles>  (162) 
CN1CCCC23CC1C1Oc4c(O)ccc5c4C12CCN(CC1CC1)C3C5

>  <smiles>  (162) 
[H]Oc1c([H])c([H])c2c3c1OC1([H])C34C([H])([H])C([H])([H])N(C([H])([H])C3([H])C([H])([H])C3([H])[H])C([H])(C2([H])[H])C42C([H])([H])C([H])([H])C([H])([H])[N+]([H])(C([H])([H])[H])C1([H])C2([H])[H]

$$$$
43:2:2
     RDKit          3D

 58 64  0  0  1  0  0  0  0  0999 V2000
   -0.2006    4.6671    3.7713 C   0  0  0  0  0  0  0  0  0  0  0  0
   -0.7347    3.2879    3.9209 N   0  0  1  0  0  0  0  0  0  0  0  0
   -0.4016    2.4620    2.7300 C   0  0  0  0  0  0  0  0  0  0  0  0
   -0.8003    0.9847    2.8195 C   0  0  0  0  0  0  0  0  0  0  0  0
    0.1765    0.0847    3.5973 C   0  0  0  0  0  0  0  0  0  0  0  0
    0.4061    0.3669    5.1204 C   0  0  1  0  0  0  0  0  0  0  0  0
    0.8944    1.8314    5.2447 C   0  0  0  0  0  0  0  0  0  0  0  0
   -0.4115    2.6882    5.2494 C   0  0  2  0  0  0  0  0  0  0  0  0
   -1.5634    1.7701    5.7751 C   0  0  2  0  0  0  0  0  0  0  0  0
   -2.0769    2.1710    7.0663 O   0  0  0  0  0  0  0  0  0  0  0  0
   -1.2956    1.5611    8.0115 C   0  0  0  0  0  0  0  0  0  0  0  0
   -1.1953    1.7787    9.4067 C   0  0  0  0  0  0  0  0  0  0  0  0
   -2.0794    2.6046   10.0413 O   0  0  0  0  0  0  0  0  0  0  0  0
   -0.1832    1.1204   10.1502 C   0  0  0  0  0  0  0  0  0  0  0  0
    0.7703    0.2893    9.5068 C   0  0  0  0  0  0  0  0  0  0  0  0
    0.6422    0.0223    8.1299 C   0  0  0  0  0  0  0  0  0  0  0  0
   -0.4467    0.6131    7.4707 C   0  0  0  0  0  0  0  0  0  0  0  0
   -0.8300    0.4294    6.0162 C   0  0  2  0  0  0  0  0  0  0  0  0
   -1.6589   -0.8552    5.8245 C   0  0  0  0  0  0  0  0  0  0  0  0
   -0.8214   -2.1096    6.1693 C   0  0  0  0  0  0  0  0  0  0  0  0
    0.5095   -2.0781    5.5403 N   0  0  0  0  0  0  0  0  0  0  0  0
    1.3211   -3.2643    5.8364 C   0  0  0  0  0  0  0  0  0  0  0  0
    0.7409   -4.5480    5.2685 C   0  0  0  0  0  0  0  0  0  0  0  0
    1.6106   -5.7814    5.1717 C   0  0  0  0  0  0  0  0  0  0  0  0
    1.1990   -5.0484    3.9212 C   0  0  0  0  0  0  0  0  0  0  0  0
    1.2607   -0.8077    5.7195 C   0  0  2  0  0  0  0  0  0  0  0  0
    1.6731   -0.6105    7.2044 C   0  0  0  0  0  0  0  0  0  0  0  0
    0.8930    4.6744    3.7863 H   0  0  0  0  0  0  0  0  0  0  0  0
   -0.5679    5.3189    4.5661 H   0  0  0  0  0  0  0  0  0  0  0  0
   -0.5271    5.1158    2.8330 H   0  0  0  0  0  0  0  0  0  0  0  0
   -0.9908    2.8836    1.9296 H   0  0  0  0  0  0  0  0  0  0  0  0
    0.6409    2.5647    2.4319 H   0  0  0  0  0  0  0  0  0  0  0  0
   -1.8197    0.8755    3.1745 H   0  0  0  0  0  0  0  0  0  0  0  0
   -0.8223    0.6126    1.7932 H   0  0  0  0  0  0  0  0  0  0  0  0
   -0.1766   -0.9324    3.4363 H   0  0  0  0  0  0  0  0  0  0  0  0
    1.1428    0.1178    3.0939 H   0  0  0  0  0  0  0  0  0  0  0  0
    1.3990    1.9863    6.1972 H   0  0  0  0  0  0  0  0  0  0  0  0
    1.6235    2.1210    4.4815 H   0  0  0  0  0  0  0  0  0  0  0  0
   -0.2912    3.5014    5.9634 H   0  0  0  0  0  0  0  0  0  0  0  0
   -2.3868    1.6890    5.0632 H   0  0  0  0  0  0  0  0  0  0  0  0
   -2.0703    2.5347   10.9903 H   0  0  0  0  0  0  0  0  0  0  0  0
   -0.0938    1.2938   11.2112 H   0  0  0  0  0  0  0  0  0  0  0  0
    1.6083   -0.1033   10.0653 H   0  0  0  0  0  0  0  0  0  0  0  0
   -2.5673   -0.8075    6.4159 H   0  0  0  0  0  0  0  0  0  0  0  0
   -2.0150   -0.9302    4.7983 H   0  0  0  0  0  0  0  0  0  0  0  0
   -0.7194   -2.2337    7.2460 H   0  0  0  0  0  0  0  0  0  0  0  0
   -1.3753   -2.9732    5.8140 H   0  0  0  0  0  0  0  0  0  0  0  0
    2.3166   -3.1262    5.4098 H   0  0  0  0  0  0  0  0  0  0  0  0
    1.4634   -3.4021    6.9071 H   0  0  0  0  0  0  0  0  0  0  0  0
   -0.2824   -4.7731    5.5659 H   0  0  0  0  0  0  0  0  0  0  0  0
    2.6473   -5.6985    5.4943 H   0  0  0  0  0  0  0  0  0  0  0  0
    1.1431   -6.7477    5.3505 H   0  0  0  0  0  0  0  0  0  0  0  0
    0.4515   -5.5161    3.2863 H   0  0  0  0  0  0  0  0  0  0  0  0
    1.9500   -4.4499    3.4072 H   0  0  0  0  0  0  0  0  0  0  0  0
    2.1742   -0.8955    5.1304 H   0  0  0  0  0  0  0  0  0  0  0  0
    2.5256    0.0655    7.2171 H   0  0  0  0  0  0  0  0  0  0  0  0
    2.0486   -1.5206    7.6649 H   0  0  0  0  0  0  0  0  0  0  0  0
   -1.7424    3.3826    3.8923 H   0  0  0  0  0  0  0  0  0  0  0  0
  1  2  1  0
  1 28  1  0
  1 29  1  0
  1 30  1  0
  2  8  1  0
  2  3  1  0
  2 58  1  1
  3  4  1  0
  3 31  1  0
  3 32  1  0
  4  5  1  0
  4 33  1  0
  4 34  1  0
  6  5  1  6
  5 35  1  0
  5 36  1  0
  6 18  1  0
  6 26  1  0
  6  7  1  0
  7  8  1  0
  7 37  1  0
  7 38  1  0
  8  9  1  0
  8 39  1  1
  9 18  1  0
  9 10  1  0
  9 40  1  6
 10 11  1  0
 11 17  2  0
 11 12  1  0
 12 13  1  0
 12 14  2  0
 13 41  1  0
 14 15  1  0
 14 42  1  0
 15 16  2  0
 15 43  1  0
 16 27  1  0
 16 17  1  0
 17 18  1  0
 18 19  1  1
 19 20  1  0
 19 44  1  0
 19 45  1  0
 20 21  1  0
 20 46  1  0
 20 47  1  0
 21 22  1  0
 21 26  1  0
 22 23  1  0
 22 48  1  0
 22 49  1  0
 23 25  1  0
 23 24  1  0
 23 50  1  0
 24 25  1  0
 24 51  1  0
 24 52  1  0
 25 53  1  0
 25 54  1  0
 26 27  1  0
 26 55  1  6
 27 56  1  0
 27 57  1  0
M  CHG  1   2   1
M  END
>  <i_m_ct_stereo_status>  (163) 
1

>  <s_m_source_file>  (163) 
/var/tmp/pbs.5076255.sched01/tmpp9awzhar/40nweoahkg.sdf

>  <i_m_source_file_index>  (163) 
22

>  <i_lp_mmshare_version>  (163) 
48012

>  <i_f3d_flags>  (163) 
0

>  <s_epik_input>  (163) 
W0NIMl0xW0NIMl1bQ0gyXU4oW0NIM10pW0NASF0oW0NIMl0yKVtDQEhdKFtDQEBdMzRbQ0BAXTEyNSlPYzZjM2MoW2NIXVtjSF1jNltPSF0pW0NIMl1bQ0BIXTVOKFtDSDJdW0NIMl00KVtDSDJdW0NIXTdbQ0gyXVtDSDJdNw==

>  <s_epik_cmdline>  (163) 
J2VwaWtfcHl0aG9uJywgJy1waHQnLCAnMi4wJywgJy1waCcsICc3LjAnLCAnLXRuJywgJzgnLCAnLW1hJywgJzIwMCcsICctaW1hZScsICc8aW5maWxlLm1hZT4nLCAnLW9tYWUnLCAnPG91dGZpbGUubWFlPic=

>  <r_epik_Ionization_Penalty>  (163) 
1.46105

>  <r_epik_Ionization_Penalty_Charging>  (163) 
0.0118851

>  <r_epik_Ionization_Penalty_Neutral>  (163) 
1.44917

>  <r_epik_State_Penalty>  (163) 
1.63599

>  <r_epik_Charging_Adjusted_Penalty>  (163) 
1.64788

>  <i_epik_Tot_Q>  (163) 
1

>  <i_epik_Tot_abs_Q>  (163) 
1

>  <s_lp_Force_Field>  (163) 
OPLS3e

>  <r_lp_Energy>  (163) 
94.3438

>  <b_lp_Chiralities_Consistent>  (163) 
1

>  <s_lp_Variant>  (163) 
43:0-3

>  <s_i_glide_gridfile>  (163) 
pfpi4k_grid

>  <i_i_glide_lignum>  (163) 
22

>  <i_i_glide_rotatable_bonds>  (163) 
3

>  <r_i_docking_score>  (163) 
-1.90909

>  <r_i_glide_ligand_efficiency>  (163) 
-0.070707

>  <r_i_glide_ligand_efficiency_sa>  (163) 
-0.212121

>  <r_i_glide_ligand_efficiency_ln>  (163) 
-0.444404

>  <r_i_glide_gscore>  (163) 
-1.90909

>  <r_i_glide_lipo>  (163) 
0

>  <r_i_glide_hbond>  (163) 
0

>  <r_i_glide_metal>  (163) 
-0

>  <r_i_glide_rewards>  (163) 
-0.903379

>  <r_i_glide_evdw>  (163) 
-15.5125

>  <r_i_glide_ecoul>  (163) 
-3.03892

>  <r_i_glide_erotb>  (163) 
0.285199

>  <r_i_glide_esite>  (163) 
-0.0594434

>  <r_i_glide_emodel>  (163) 
-21.9054

>  <r_i_glide_energy>  (163) 
-18.5514

>  <r_i_glide_einternal>  (163) 
0.688212

>  <r_i_glide_intrahb_reward>  (163) 
-0

>  <i_i_glide_confnum>  (163) 
4

>  <i_i_glide_posenum>  (163) 
1

>  <r_i_glide_eff_state_penalty>  (163) 
0

>  <ligand_id>  (163) 
43

>  <original_smiles>  (163) 
CN1CCCC23CC1C1Oc4c(O)ccc5c4C12CCN(CC1CC1)C3C5

>  <smiles>  (163) 
[H]Oc1c([H])c([H])c2c3c1OC1([H])C34C([H])([H])C([H])([H])N(C([H])([H])C3([H])C([H])([H])C3([H])[H])C([H])(C2([H])[H])C42C([H])([H])C([H])([H])C([H])([H])[N+]([H])(C([H])([H])[H])C1([H])C2([H])[H]

$$$$
43:3:0
     RDKit          3D

 58 64  0  0  1  0  0  0  0  0999 V2000
   -2.1443    2.9634    4.7905 C   0  0  0  0  0  0  0  0  0  0  0  0
   -1.5342    1.8869    3.9711 N   0  0  1  0  0  0  0  0  0  0  0  0
   -0.9931    2.4434    2.7013 C   0  0  0  0  0  0  0  0  0  0  0  0
   -0.2299    1.4274    1.8330 C   0  0  0  0  0  0  0  0  0  0  0  0
    1.2384    1.1680    2.2324 C   0  0  0  0  0  0  0  0  0  0  0  0
    1.5308    0.5267    3.6285 C   0  0  1  0  0  0  0  0  0  0  0  0
    0.8920    1.4533    4.6960 C   0  0  0  0  0  0  0  0  0  0  0  0
   -0.6089    1.0165    4.7661 C   0  0  2  0  0  0  0  0  0  0  0  0
   -0.6624   -0.4763    4.3127 C   0  0  2  0  0  0  0  0  0  0  0  0
   -1.0145   -1.4027    5.3681 O   0  0  0  0  0  0  0  0  0  0  0  0
    0.1597   -1.7929    5.9546 C   0  0  0  0  0  0  0  0  0  0  0  0
    0.4063   -2.5027    7.1553 C   0  0  0  0  0  0  0  0  0  0  0  0
   -0.6108   -3.0584    7.8650 O   0  0  0  0  0  0  0  0  0  0  0  0
    1.7218   -2.6157    7.6595 C   0  0  0  0  0  0  0  0  0  0  0  0
    2.8101   -1.9870    7.0154 C   0  0  0  0  0  0  0  0  0  0  0  0
    2.5853   -1.3162    5.7977 C   0  0  0  0  0  0  0  0  0  0  0  0
    1.2752   -1.3423    5.2913 C   0  0  0  0  0  0  0  0  0  0  0  0
    0.8123   -0.7815    3.9636 C   0  0  2  0  0  0  0  0  0  0  0  0
    1.0574   -1.8157    2.8465 C   0  0  0  0  0  0  0  0  0  0  0  0
    2.5620   -2.1170    2.7095 C   0  0  0  0  0  0  0  0  0  0  0  0
    3.3866   -0.8737    2.6364 N   0  0  2  0  0  0  0  0  0  0  0  0
    4.8438   -1.1495    2.4866 C   0  0  0  0  0  0  0  0  0  0  0  0
    5.1933   -1.7891    1.1521 C   0  0  0  0  0  0  0  0  0  0  0  0
    6.6099   -1.7278    0.6211 C   0  0  0  0  0  0  0  0  0  0  0  0
    5.5206   -0.9278   -0.0395 C   0  0  0  0  0  0  0  0  0  0  0  0
    3.0610    0.1499    3.6975 C   0  0  2  0  0  0  0  0  0  0  0  0
    3.5169   -0.3427    5.0968 C   0  0  0  0  0  0  0  0  0  0  0  0
   -1.3869    3.6581    5.1630 H   0  0  0  0  0  0  0  0  0  0  0  0
   -2.6836    2.5570    5.6489 H   0  0  0  0  0  0  0  0  0  0  0  0
   -2.8639    3.5402    4.2044 H   0  0  0  0  0  0  0  0  0  0  0  0
   -1.8494    2.7977    2.1259 H   0  0  0  0  0  0  0  0  0  0  0  0
   -0.3876    3.3318    2.8838 H   0  0  0  0  0  0  0  0  0  0  0  0
   -0.7981    0.5104    1.7011 H   0  0  0  0  0  0  0  0  0  0  0  0
   -0.1856    1.8463    0.8302 H   0  0  0  0  0  0  0  0  0  0  0  0
    1.6601    0.5710    1.4247 H   0  0  0  0  0  0  0  0  0  0  0  0
    1.7737    2.1184    2.1706 H   0  0  0  0  0  0  0  0  0  0  0  0
    1.3357    1.2719    5.6741 H   0  0  0  0  0  0  0  0  0  0  0  0
    1.0423    2.5196    4.5088 H   0  0  0  0  0  0  0  0  0  0  0  0
   -0.9314    1.0499    5.8067 H   0  0  0  0  0  0  0  0  0  0  0  0
   -1.3454   -0.6136    3.4797 H   0  0  0  0  0  0  0  0  0  0  0  0
    1.8866   -3.1358    8.5887 H   0  0  0  0  0  0  0  0  0  0  0  0
    3.7888   -1.9855    7.4737 H   0  0  0  0  0  0  0  0  0  0  0  0
    0.5248   -2.7437    3.0528 H   0  0  0  0  0  0  0  0  0  0  0  0
    0.6744   -1.4545    1.8915 H   0  0  0  0  0  0  0  0  0  0  0  0
    2.8989   -2.7484    3.5333 H   0  0  0  0  0  0  0  0  0  0  0  0
    2.6962   -2.7169    1.8109 H   0  0  0  0  0  0  0  0  0  0  0  0
    5.4022   -0.2162    2.5716 H   0  0  0  0  0  0  0  0  0  0  0  0
    5.2104   -1.8063    3.2759 H   0  0  0  0  0  0  0  0  0  0  0  0
    4.7003   -2.7400    0.9498 H   0  0  0  0  0  0  0  0  0  0  0  0
    7.3530   -1.1926    1.2091 H   0  0  0  0  0  0  0  0  0  0  0  0
    6.9832   -2.5904    0.0708 H   0  0  0  0  0  0  0  0  0  0  0  0
    5.1516   -1.2584   -1.0068 H   0  0  0  0  0  0  0  0  0  0  0  0
    5.5089    0.1432    0.1265 H   0  0  0  0  0  0  0  0  0  0  0  0
    3.6431    1.0450    3.4616 H   0  0  0  0  0  0  0  0  0  0  0  0
    3.6027    0.5232    5.7529 H   0  0  0  0  0  0  0  0  0  0  0  0
    4.5192   -0.7689    5.0841 H   0  0  0  0  0  0  0  0  0  0  0  0
    3.1211   -0.4327    1.7666 H   0  0  0  0  0  0  0  0  0  0  0  0
   -2.3150    1.3007    3.6966 H   0  0  0  0  0  0  0  0  0  0  0  0
  1  2  1  0
  1 28  1  0
  1 29  1  0
  1 30  1  0
  2  8  1  0
  2  3  1  0
  2 58  1  6
  3  4  1  0
  3 31  1  0
  3 32  1  0
  4  5  1  0
  4 33  1  0
  4 34  1  0
  6  5  1  6
  5 35  1  0
  5 36  1  0
  6 18  1  0
  6 26  1  0
  6  7  1  0
  7  8  1  0
  7 37  1  0
  7 38  1  0
  8  9  1  0
  8 39  1  1
  9 18  1  0
  9 10  1  0
  9 40  1  6
 10 11  1  0
 11 17  2  0
 11 12  1  0
 12 13  1  0
 12 14  2  0
 14 15  1  0
 14 41  1  0
 15 16  2  0
 15 42  1  0
 16 27  1  0
 16 17  1  0
 17 18  1  0
 18 19  1  6
 19 20  1  0
 19 43  1  0
 19 44  1  0
 20 21  1  0
 20 45  1  0
 20 46  1  0
 21 22  1  0
 21 26  1  0
 21 57  1  6
 22 23  1  0
 22 47  1  0
 22 48  1  0
 23 25  1  0
 23 24  1  0
 23 49  1  0
 24 25  1  0
 24 50  1  0
 24 51  1  0
 25 52  1  0
 25 53  1  0
 26 27  1  0
 26 54  1  6
 27 55  1  0
 27 56  1  0
M  CHG  3   2   1  13  -1  21   1
M  END
>  <i_m_ct_stereo_status>  (164) 
1

>  <s_m_source_file>  (164) 
/var/tmp/pbs.5076255.sched01/tmpp9awzhar/40nweoahkg.sdf

>  <i_m_source_file_index>  (164) 
23

>  <i_lp_mmshare_version>  (164) 
48012

>  <i_f3d_flags>  (164) 
2

>  <s_epik_input>  (164) 
W0NIMl0xW0NIMl1bQ0gyXU4oW0NIM10pW0NASF0oW0NIMl0yKVtDQEhdKFtDQEBdMzRbQ0BAXTEyNSlPYzZjM2MoW2NIXVtjSF1jNltPSF0pW0NIMl1bQ0BIXTVOKFtDSDJdW0NIMl00KVtDSDJdW0NIXTdbQ0gyXVtDSDJdNw==

>  <s_epik_cmdline>  (164) 
J2VwaWtfcHl0aG9uJywgJy1waHQnLCAnMi4wJywgJy1waCcsICc3LjAnLCAnLXRuJywgJzgnLCAnLW1hJywgJzIwMCcsICctaW1hZScsICc8aW5maWxlLm1hZT4nLCAnLW9tYWUnLCAnPG91dGZpbGUubWFlPic=

>  <r_epik_Ionization_Penalty>  (164) 
2.10464

>  <r_epik_Ionization_Penalty_Charging>  (164) 
2.10464

>  <r_epik_Ionization_Penalty_Neutral>  (164) 
0

>  <r_epik_State_Penalty>  (164) 
2.20618

>  <r_epik_Charging_Adjusted_Penalty>  (164) 
4.31083

>  <i_epik_Tot_Q>  (164) 
1

>  <i_epik_Tot_abs_Q>  (164) 
3

>  <s_lp_Force_Field>  (164) 
OPLS3e

>  <r_lp_Energy>  (164) 
87.5765

>  <b_lp_Chiralities_Consistent>  (164) 
0

>  <s_lp_Variant>  (164) 
43:0-4

>  <s_i_glide_gridfile>  (164) 
pfpi4k_grid

>  <i_i_glide_lignum>  (164) 
23

>  <i_i_glide_rotatable_bonds>  (164) 
2

>  <r_i_docking_score>  (164) 
-3.49767

>  <r_i_glide_ligand_efficiency>  (164) 
-0.129543

>  <r_i_glide_ligand_efficiency_sa>  (164) 
-0.38863

>  <r_i_glide_ligand_efficiency_ln>  (164) 
-0.814201

>  <r_i_glide_gscore>  (164) 
-3.49767

>  <r_i_glide_lipo>  (164) 
-0.187337

>  <r_i_glide_hbond>  (164) 
-0.121677

>  <r_i_glide_metal>  (164) 
-0

>  <r_i_glide_rewards>  (164) 
-1.20338

>  <r_i_glide_evdw>  (164) 
-18.6944

>  <r_i_glide_ecoul>  (164) 
-8.7246

>  <r_i_glide_erotb>  (164) 
0.285199

>  <r_i_glide_esite>  (164) 
-0.0270677

>  <r_i_glide_emodel>  (164) 
-36.0508

>  <r_i_glide_energy>  (164) 
-27.419

>  <r_i_glide_einternal>  (164) 
0.310304

>  <r_i_glide_intrahb_reward>  (164) 
-0

>  <i_i_glide_confnum>  (164) 
4

>  <i_i_glide_posenum>  (164) 
7

>  <r_i_glide_eff_state_penalty>  (164) 
0

>  <ligand_id>  (164) 
43

>  <original_smiles>  (164) 
CN1CCCC23CC1C1Oc4c(O)ccc5c4C12CCN(CC1CC1)C3C5

>  <smiles>  (164) 
[H]c1c([H])c2c3c(c1[O-])OC1([H])C34C([H])([H])C([H])([H])[N+]([H])(C([H])([H])C3([H])C([H])([H])C3([H])[H])C([H])(C2([H])[H])C42C([H])([H])C([H])([H])C([H])([H])[N+]([H])(C([H])([H])[H])C1([H])C2([H])[H]

$$$$
43:3:1
     RDKit          3D

 58 64  0  0  1  0  0  0  0  0999 V2000
   -2.3588    3.0298    4.7528 C   0  0  0  0  0  0  0  0  0  0  0  0
   -1.6564    2.0142    3.9333 N   0  0  1  0  0  0  0  0  0  0  0  0
   -1.0920    2.6293    2.6955 C   0  0  0  0  0  0  0  0  0  0  0  0
   -0.2388    1.6791    1.8423 C   0  0  0  0  0  0  0  0  0  0  0  0
    1.2239    1.5041    2.2972 C   0  0  0  0  0  0  0  0  0  0  0  0
    1.4919    0.8520    3.6918 C   0  0  1  0  0  0  0  0  0  0  0  0
    0.7541    1.7076    4.7469 C   0  0  0  0  0  0  0  0  0  0  0  0
   -0.7190    1.1769    4.7453 C   0  0  2  0  0  0  0  0  0  0  0  0
   -0.6737   -0.2952    4.2480 C   0  0  2  0  0  0  0  0  0  0  0  0
   -1.0133   -1.2791    5.2591 O   0  0  0  0  0  0  0  0  0  0  0  0
    0.1665   -1.6104    5.8918 C   0  0  0  0  0  0  0  0  0  0  0  0
    0.4030   -2.3513    7.0787 C   0  0  0  0  0  0  0  0  0  0  0  0
   -0.5926   -3.0152    7.7199 O   0  0  0  0  0  0  0  0  0  0  0  0
    1.7094   -2.3977    7.6326 C   0  0  0  0  0  0  0  0  0  0  0  0
    2.7781   -1.6903    7.0547 C   0  0  0  0  0  0  0  0  0  0  0  0
    2.5683   -0.9829    5.8520 C   0  0  0  0  0  0  0  0  0  0  0  0
    1.2695   -1.0705    5.3004 C   0  0  0  0  0  0  0  0  0  0  0  0
    0.8305   -0.4958    3.9688 C   0  0  2  0  0  0  0  0  0  0  0  0
    1.1645   -1.4857    2.8504 C   0  0  0  0  0  0  0  0  0  0  0  0
    2.6754   -1.7050    2.7909 C   0  0  0  0  0  0  0  0  0  0  0  0
    3.4565   -0.4196    2.7822 N   0  0  2  0  0  0  0  0  0  0  0  0
    4.9300   -0.6219    2.6419 C   0  0  0  0  0  0  0  0  0  0  0  0
    5.3652   -0.8654    1.2020 C   0  0  0  0  0  0  0  0  0  0  0  0
    4.3917   -0.8376    0.0285 C   0  0  0  0  0  0  0  0  0  0  0  0
    5.0489   -2.1371    0.4368 C   0  0  0  0  0  0  0  0  0  0  0  0
    3.0366    0.5683    3.8329 C   0  0  2  0  0  0  0  0  0  0  0  0
    3.4665    0.0589    5.2227 C   0  0  0  0  0  0  0  0  0  0  0  0
   -1.6549    3.7507    5.1705 H   0  0  0  0  0  0  0  0  0  0  0  0
   -2.9103    2.5675    5.5712 H   0  0  0  0  0  0  0  0  0  0  0  0
   -3.0695    3.5701    4.1328 H   0  0  0  0  0  0  0  0  0  0  0  0
   -1.9408    2.9530    2.0947 H   0  0  0  0  0  0  0  0  0  0  0  0
   -0.5435    3.5440    2.9174 H   0  0  0  0  0  0  0  0  0  0  0  0
   -0.7446    0.7323    1.6643 H   0  0  0  0  0  0  0  0  0  0  0  0
   -0.1822    2.1368    0.8603 H   0  0  0  0  0  0  0  0  0  0  0  0
    1.7131    0.9557    1.4928 H   0  0  0  0  0  0  0  0  0  0  0  0
    1.7001    2.4873    2.2757 H   0  0  0  0  0  0  0  0  0  0  0  0
    1.1706    1.5223    5.7362 H   0  0  0  0  0  0  0  0  0  0  0  0
    0.8542    2.7898    4.5863 H   0  0  0  0  0  0  0  0  0  0  0  0
   -1.0765    1.1580    5.7697 H   0  0  0  0  0  0  0  0  0  0  0  0
   -1.2939   -0.4370    3.3644 H   0  0  0  0  0  0  0  0  0  0  0  0
    1.8589   -2.9365    8.5517 H   0  0  0  0  0  0  0  0  0  0  0  0
    3.7425   -1.6476    7.5566 H   0  0  0  0  0  0  0  0  0  0  0  0
    0.6775   -2.4458    2.9990 H   0  0  0  0  0  0  0  0  0  0  0  0
    0.8197   -1.1221    1.8828 H   0  0  0  0  0  0  0  0  0  0  0  0
    3.0193   -2.3627    3.5962 H   0  0  0  0  0  0  0  0  0  0  0  0
    2.7864   -2.2585    1.8617 H   0  0  0  0  0  0  0  0  0  0  0  0
    5.4594    0.2644    2.9898 H   0  0  0  0  0  0  0  0  0  0  0  0
    5.2943   -1.4276    3.2772 H   0  0  0  0  0  0  0  0  0  0  0  0
    6.3757   -0.5131    1.0261 H   0  0  0  0  0  0  0  0  0  0  0  0
    3.3385   -0.6475    0.2360 H   0  0  0  0  0  0  0  0  0  0  0  0
    4.7434   -0.3619   -0.8871 H   0  0  0  0  0  0  0  0  0  0  0  0
    5.7804   -2.5204   -0.2758 H   0  0  0  0  0  0  0  0  0  0  0  0
    4.5329   -2.9165    1.0041 H   0  0  0  0  0  0  0  0  0  0  0  0
    3.5752    1.4987    3.6338 H   0  0  0  0  0  0  0  0  0  0  0  0
    3.4770    0.9011    5.9060 H   0  0  0  0  0  0  0  0  0  0  0  0
    4.4860   -0.3229    5.2134 H   0  0  0  0  0  0  0  0  0  0  0  0
    3.2050    0.0383    1.9139 H   0  0  0  0  0  0  0  0  0  0  0  0
   -2.3868    1.3796    3.6040 H   0  0  0  0  0  0  0  0  0  0  0  0
  1  2  1  0
  1 28  1  0
  1 29  1  0
  1 30  1  0
  2  8  1  0
  2  3  1  0
  2 58  1  6
  3  4  1  0
  3 31  1  0
  3 32  1  0
  4  5  1  0
  4 33  1  0
  4 34  1  0
  6  5  1  6
  5 35  1  0
  5 36  1  0
  6 18  1  0
  6 26  1  0
  6  7  1  0
  7  8  1  0
  7 37  1  0
  7 38  1  0
  8  9  1  0
  8 39  1  1
  9 18  1  0
  9 10  1  0
  9 40  1  6
 10 11  1  0
 11 17  2  0
 11 12  1  0
 12 13  1  0
 12 14  2  0
 14 15  1  0
 14 41  1  0
 15 16  2  0
 15 42  1  0
 16 27  1  0
 16 17  1  0
 17 18  1  0
 18 19  1  6
 19 20  1  0
 19 43  1  0
 19 44  1  0
 20 21  1  0
 20 45  1  0
 20 46  1  0
 21 22  1  0
 21 26  1  0
 21 57  1  6
 22 23  1  0
 22 47  1  0
 22 48  1  0
 23 25  1  0
 23 24  1  0
 23 49  1  0
 24 25  1  0
 24 50  1  0
 24 51  1  0
 25 52  1  0
 25 53  1  0
 26 27  1  0
 26 54  1  6
 27 55  1  0
 27 56  1  0
M  CHG  3   2   1  13  -1  21   1
M  END
>  <i_m_ct_stereo_status>  (165) 
1

>  <s_m_source_file>  (165) 
/var/tmp/pbs.5076255.sched01/tmpp9awzhar/40nweoahkg.sdf

>  <i_m_source_file_index>  (165) 
23

>  <i_lp_mmshare_version>  (165) 
48012

>  <i_f3d_flags>  (165) 
2

>  <s_epik_input>  (165) 
W0NIMl0xW0NIMl1bQ0gyXU4oW0NIM10pW0NASF0oW0NIMl0yKVtDQEhdKFtDQEBdMzRbQ0BAXTEyNSlPYzZjM2MoW2NIXVtjSF1jNltPSF0pW0NIMl1bQ0BIXTVOKFtDSDJdW0NIMl00KVtDSDJdW0NIXTdbQ0gyXVtDSDJdNw==

>  <s_epik_cmdline>  (165) 
J2VwaWtfcHl0aG9uJywgJy1waHQnLCAnMi4wJywgJy1waCcsICc3LjAnLCAnLXRuJywgJzgnLCAnLW1hJywgJzIwMCcsICctaW1hZScsICc8aW5maWxlLm1hZT4nLCAnLW9tYWUnLCAnPG91dGZpbGUubWFlPic=

>  <r_epik_Ionization_Penalty>  (165) 
2.10464

>  <r_epik_Ionization_Penalty_Charging>  (165) 
2.10464

>  <r_epik_Ionization_Penalty_Neutral>  (165) 
0

>  <r_epik_State_Penalty>  (165) 
2.20618

>  <r_epik_Charging_Adjusted_Penalty>  (165) 
4.31083

>  <i_epik_Tot_Q>  (165) 
1

>  <i_epik_Tot_abs_Q>  (165) 
3

>  <s_lp_Force_Field>  (165) 
OPLS3e

>  <r_lp_Energy>  (165) 
87.5765

>  <b_lp_Chiralities_Consistent>  (165) 
0

>  <s_lp_Variant>  (165) 
43:0-4

>  <s_i_glide_gridfile>  (165) 
pfpi4k_grid

>  <i_i_glide_lignum>  (165) 
23

>  <i_i_glide_rotatable_bonds>  (165) 
2

>  <r_i_docking_score>  (165) 
-3.4706

>  <r_i_glide_ligand_efficiency>  (165) 
-0.128541

>  <r_i_glide_ligand_efficiency_sa>  (165) 
-0.385623

>  <r_i_glide_ligand_efficiency_ln>  (165) 
-0.807899

>  <r_i_glide_gscore>  (165) 
-3.4706

>  <r_i_glide_lipo>  (165) 
-0.271454

>  <r_i_glide_hbond>  (165) 
-0.0967151

>  <r_i_glide_metal>  (165) 
-0

>  <r_i_glide_rewards>  (165) 
-1.20338

>  <r_i_glide_evdw>  (165) 
-18.5688

>  <r_i_glide_ecoul>  (165) 
-8.18966

>  <r_i_glide_erotb>  (165) 
0.285199

>  <r_i_glide_esite>  (165) 
-0.0273659

>  <r_i_glide_emodel>  (165) 
-30.0303

>  <r_i_glide_energy>  (165) 
-26.7585

>  <r_i_glide_einternal>  (165) 
9.70598

>  <r_i_glide_intrahb_reward>  (165) 
-0

>  <i_i_glide_confnum>  (165) 
4

>  <i_i_glide_posenum>  (165) 
1

>  <r_i_glide_eff_state_penalty>  (165) 
0

>  <ligand_id>  (165) 
43

>  <original_smiles>  (165) 
CN1CCCC23CC1C1Oc4c(O)ccc5c4C12CCN(CC1CC1)C3C5

>  <smiles>  (165) 
[H]c1c([H])c2c3c(c1[O-])OC1([H])C34C([H])([H])C([H])([H])[N+]([H])(C([H])([H])C3([H])C([H])([H])C3([H])[H])C([H])(C2([H])[H])C42C([H])([H])C([H])([H])C([H])([H])[N+]([H])(C([H])([H])[H])C1([H])C2([H])[H]

$$$$
43:3:2
     RDKit          3D

 58 64  0  0  1  0  0  0  0  0999 V2000
    2.7528   -8.2773    4.5435 C   0  0  0  0  0  0  0  0  0  0  0  0
    3.6195   -7.6222    3.5300 N   0  0  1  0  0  0  0  0  0  0  0  0
    3.3999   -8.2237    2.1841 C   0  0  0  0  0  0  0  0  0  0  0  0
    4.1674   -7.5338    1.0395 C   0  0  0  0  0  0  0  0  0  0  0  0
    3.5207   -6.2408    0.4838 C   0  0  0  0  0  0  0  0  0  0  0  0
    3.3705   -5.0019    1.4245 C   0  0  1  0  0  0  0  0  0  0  0  0
    2.5399   -5.4649    2.6505 C   0  0  0  0  0  0  0  0  0  0  0  0
    3.5808   -6.1268    3.6117 C   0  0  2  0  0  0  0  0  0  0  0  0
    4.9666   -5.4745    3.2937 C   0  0  2  0  0  0  0  0  0  0  0  0
    5.4688   -4.6386    4.3580 O   0  0  0  0  0  0  0  0  0  0  0  0
    4.9998   -3.3753    4.1275 C   0  0  0  0  0  0  0  0  0  0  0  0
    4.9990   -2.2301    4.9592 C   0  0  0  0  0  0  0  0  0  0  0  0
    5.6609   -2.2517    6.1517 O   0  0  0  0  0  0  0  0  0  0  0  0
    4.2829   -1.0713    4.5672 C   0  0  0  0  0  0  0  0  0  0  0  0
    3.5026   -1.0549    3.3858 C   0  0  0  0  0  0  0  0  0  0  0  0
    3.5260   -2.1809    2.5389 C   0  0  0  0  0  0  0  0  0  0  0  0
    4.3597   -3.2432    2.9195 C   0  0  0  0  0  0  0  0  0  0  0  0
    4.6312   -4.5091    2.1340 C   0  0  2  0  0  0  0  0  0  0  0  0
    5.7527   -4.2555    1.1045 C   0  0  0  0  0  0  0  0  0  0  0  0
    5.3165   -3.1774    0.0905 C   0  0  0  0  0  0  0  0  0  0  0  0
    3.9581   -3.4412   -0.4764 N   0  0  2  0  0  0  0  0  0  0  0  0
    3.5314   -2.4135   -1.4692 C   0  0  0  0  0  0  0  0  0  0  0  0
    4.3237   -2.4850   -2.7678 C   0  0  0  0  0  0  0  0  0  0  0  0
    3.8151   -1.7862   -4.0115 C   0  0  0  0  0  0  0  0  0  0  0  0
    3.7983   -3.2920   -3.9315 C   0  0  0  0  0  0  0  0  0  0  0  0
    2.9115   -3.7622    0.5613 C   0  0  2  0  0  0  0  0  0  0  0  0
    2.5657   -2.5061    1.4073 C   0  0  0  0  0  0  0  0  0  0  0  0
    1.6987   -8.0394    4.3793 H   0  0  0  0  0  0  0  0  0  0  0  0
    3.0204   -7.9677    5.5570 H   0  0  0  0  0  0  0  0  0  0  0  0
    2.8559   -9.3657    4.5053 H   0  0  0  0  0  0  0  0  0  0  0  0
    3.7400   -9.2592    2.2416 H   0  0  0  0  0  0  0  0  0  0  0  0
    2.3372   -8.2923    1.9492 H   0  0  0  0  0  0  0  0  0  0  0  0
    5.2153   -7.3884    1.2954 H   0  0  0  0  0  0  0  0  0  0  0  0
    4.2024   -8.2480    0.2158 H   0  0  0  0  0  0  0  0  0  0  0  0
    4.0932   -5.9895   -0.4073 H   0  0  0  0  0  0  0  0  0  0  0  0
    2.5241   -6.4796    0.1109 H   0  0  0  0  0  0  0  0  0  0  0  0
    2.1078   -4.6081    3.1666 H   0  0  0  0  0  0  0  0  0  0  0  0
    1.6908   -6.1065    2.4018 H   0  0  0  0  0  0  0  0  0  0  0  0
    3.3243   -5.8581    4.6370 H   0  0  0  0  0  0  0  0  0  0  0  0
    5.7251   -6.2130    3.0344 H   0  0  0  0  0  0  0  0  0  0  0  0
    4.2690   -0.2076    5.2115 H   0  0  0  0  0  0  0  0  0  0  0  0
    2.8602   -0.2158    3.1588 H   0  0  0  0  0  0  0  0  0  0  0  0
    6.6697   -3.9375    1.6022 H   0  0  0  0  0  0  0  0  0  0  0  0
    6.0121   -5.1715    0.5740 H   0  0  0  0  0  0  0  0  0  0  0  0
    5.3474   -2.1901    0.5548 H   0  0  0  0  0  0  0  0  0  0  0  0
    6.0607   -3.1477   -0.7030 H   0  0  0  0  0  0  0  0  0  0  0  0
    2.4761   -2.5510   -1.7100 H   0  0  0  0  0  0  0  0  0  0  0  0
    3.6276   -1.4055   -1.0642 H   0  0  0  0  0  0  0  0  0  0  0  0
    5.4065   -2.4338   -2.6570 H   0  0  0  0  0  0  0  0  0  0  0  0
    2.8627   -1.2626   -3.9481 H   0  0  0  0  0  0  0  0  0  0  0  0
    4.5488   -1.3336   -4.6760 H   0  0  0  0  0  0  0  0  0  0  0  0
    4.5304   -3.8451   -4.5176 H   0  0  0  0  0  0  0  0  0  0  0  0
    2.8366   -3.7850   -3.7945 H   0  0  0  0  0  0  0  0  0  0  0  0
    2.0138   -4.0477    0.0068 H   0  0  0  0  0  0  0  0  0  0  0  0
    1.5939   -2.6622    1.8746 H   0  0  0  0  0  0  0  0  0  0  0  0
    2.4289   -1.6151    0.7960 H   0  0  0  0  0  0  0  0  0  0  0  0
    4.0434   -4.2897   -1.0208 H   0  0  0  0  0  0  0  0  0  0  0  0
    4.5586   -7.8848    3.7999 H   0  0  0  0  0  0  0  0  0  0  0  0
  1  2  1  0
  1 28  1  0
  1 29  1  0
  1 30  1  0
  2  8  1  0
  2  3  1  0
  2 58  1  1
  3  4  1  0
  3 31  1  0
  3 32  1  0
  4  5  1  0
  4 33  1  0
  4 34  1  0
  6  5  1  6
  5 35  1  0
  5 36  1  0
  6 18  1  0
  6 26  1  0
  6  7  1  0
  7  8  1  0
  7 37  1  0
  7 38  1  0
  8  9  1  0
  8 39  1  1
  9 18  1  0
  9 10  1  0
  9 40  1  6
 10 11  1  0
 11 17  2  0
 11 12  1  0
 12 13  1  0
 12 14  2  0
 14 15  1  0
 14 41  1  0
 15 16  2  0
 15 42  1  0
 16 27  1  0
 16 17  1  0
 17 18  1  0
 18 19  1  6
 19 20  1  0
 19 43  1  0
 19 44  1  0
 20 21  1  0
 20 45  1  0
 20 46  1  0
 21 22  1  0
 21 26  1  0
 21 57  1  6
 22 23  1  0
 22 47  1  0
 22 48  1  0
 23 25  1  0
 23 24  1  0
 23 49  1  0
 24 25  1  0
 24 50  1  0
 24 51  1  0
 25 52  1  0
 25 53  1  0
 26 27  1  0
 26 54  1  6
 27 55  1  0
 27 56  1  0
M  CHG  3   2   1  13  -1  21   1
M  END
>  <i_m_ct_stereo_status>  (166) 
1

>  <s_m_source_file>  (166) 
/var/tmp/pbs.5076255.sched01/tmpp9awzhar/40nweoahkg.sdf

>  <i_m_source_file_index>  (166) 
23

>  <i_lp_mmshare_version>  (166) 
48012

>  <i_f3d_flags>  (166) 
2

>  <s_epik_input>  (166) 
W0NIMl0xW0NIMl1bQ0gyXU4oW0NIM10pW0NASF0oW0NIMl0yKVtDQEhdKFtDQEBdMzRbQ0BAXTEyNSlPYzZjM2MoW2NIXVtjSF1jNltPSF0pW0NIMl1bQ0BIXTVOKFtDSDJdW0NIMl00KVtDSDJdW0NIXTdbQ0gyXVtDSDJdNw==

>  <s_epik_cmdline>  (166) 
J2VwaWtfcHl0aG9uJywgJy1waHQnLCAnMi4wJywgJy1waCcsICc3LjAnLCAnLXRuJywgJzgnLCAnLW1hJywgJzIwMCcsICctaW1hZScsICc8aW5maWxlLm1hZT4nLCAnLW9tYWUnLCAnPG91dGZpbGUubWFlPic=

>  <r_epik_Ionization_Penalty>  (166) 
2.10464

>  <r_epik_Ionization_Penalty_Charging>  (166) 
2.10464

>  <r_epik_Ionization_Penalty_Neutral>  (166) 
0

>  <r_epik_State_Penalty>  (166) 
2.20618

>  <r_epik_Charging_Adjusted_Penalty>  (166) 
4.31083

>  <i_epik_Tot_Q>  (166) 
1

>  <i_epik_Tot_abs_Q>  (166) 
3

>  <s_lp_Force_Field>  (166) 
OPLS3e

>  <r_lp_Energy>  (166) 
87.5765

>  <b_lp_Chiralities_Consistent>  (166) 
0

>  <s_lp_Variant>  (166) 
43:0-4

>  <s_i_glide_gridfile>  (166) 
pfpi4k_grid

>  <i_i_glide_lignum>  (166) 
23

>  <i_i_glide_rotatable_bonds>  (166) 
2

>  <r_i_docking_score>  (166) 
-2.92489

>  <r_i_glide_ligand_efficiency>  (166) 
-0.108329

>  <r_i_glide_ligand_efficiency_sa>  (166) 
-0.324988

>  <r_i_glide_ligand_efficiency_ln>  (166) 
-0.680867

>  <r_i_glide_gscore>  (166) 
-2.92489

>  <r_i_glide_lipo>  (166) 
-0.551113

>  <r_i_glide_hbond>  (166) 
0

>  <r_i_glide_metal>  (166) 
-0

>  <r_i_glide_rewards>  (166) 
-0.903379

>  <r_i_glide_evdw>  (166) 
-19.4023

>  <r_i_glide_ecoul>  (166) 
-5.23607

>  <r_i_glide_erotb>  (166) 
0.285199

>  <r_i_glide_esite>  (166) 
-7.80061e-05

>  <r_i_glide_emodel>  (166) 
-31.8851

>  <r_i_glide_energy>  (166) 
-24.6383

>  <r_i_glide_einternal>  (166) 
0.206394

>  <r_i_glide_intrahb_reward>  (166) 
-0

>  <i_i_glide_confnum>  (166) 
6

>  <i_i_glide_posenum>  (166) 
2

>  <r_i_glide_eff_state_penalty>  (166) 
0

>  <ligand_id>  (166) 
43

>  <original_smiles>  (166) 
CN1CCCC23CC1C1Oc4c(O)ccc5c4C12CCN(CC1CC1)C3C5

>  <smiles>  (166) 
[H]c1c([H])c2c3c(c1[O-])OC1([H])C34C([H])([H])C([H])([H])[N+]([H])(C([H])([H])C3([H])C([H])([H])C3([H])[H])C([H])(C2([H])[H])C42C([H])([H])C([H])([H])C([H])([H])[N+]([H])(C([H])([H])[H])C1([H])C2([H])[H]

$$$$
44:0:0
     RDKit          3D

 83 90  0  0  1  0  0  0  0  0999 V2000
    5.5515    0.0536    3.6939 C   0  0  0  0  0  0  0  0  0  0  0  0
    4.9574   -0.6298    2.7040 C   0  0  0  0  0  0  0  0  0  0  0  0
    3.5308   -0.9086    2.6753 C   0  0  0  0  0  0  0  0  0  0  0  0
    2.7220   -0.6867    3.5858 O   0  0  0  0  0  0  0  0  0  0  0  0
    3.1143   -1.4572    1.3253 C   0  0  2  0  0  0  0  0  0  0  0  0
    2.8673   -2.9727    1.4056 C   0  0  0  0  0  0  0  0  0  0  0  0
    4.0932   -3.9024    1.1322 C   0  0  2  0  0  0  0  0  0  0  0  0
    3.5808   -4.9854    0.3256 O   0  0  0  0  0  0  0  0  0  0  0  0
    2.5486   -5.7603    1.1372 O   0  0  0  0  0  0  0  0  0  0  0  0
    3.2060   -6.3239    2.3002 C   0  0  2  0  0  0  0  0  0  0  0  0
    4.4355   -7.1370    1.6515 C   0  0  0  0  0  0  0  0  0  0  0  0
    5.6297   -7.7057    2.4711 C   0  0  0  0  0  0  0  0  0  0  0  0
    5.5162   -9.0785    3.2184 C   0  0  1  0  0  0  0  0  0  0  0  0
    5.8459  -10.2175    2.2253 C   0  0  0  0  0  0  0  0  0  0  0  0
    6.5510   -9.1078    4.4256 C   0  0  1  0  0  0  0  0  0  0  0  0
    8.0171   -8.8463    4.0247 C   0  0  0  0  0  0  0  0  0  0  0  0
    6.1541   -8.1788    5.6394 C   0  0  0  0  0  0  0  0  0  0  0  0
    4.6440   -8.1229    6.0297 C   0  0  0  0  0  0  0  0  0  0  0  0
    3.8242   -8.0661    4.7350 C   0  0  1  0  0  0  0  0  0  0  0  0
    4.1420   -9.3307    3.9123 C   0  0  1  0  0  0  0  0  0  0  0  0
    2.9577  -10.1127    3.2354 C   0  0  2  0  0  0  0  0  0  0  0  0
    2.2478   -9.4592    2.0434 C   0  0  0  0  0  0  0  0  0  0  0  0
    1.4096   -8.2073    2.3152 C   0  0  0  0  0  0  0  0  0  0  0  0
    2.0398   -7.0633    3.1465 C   0  0  2  0  0  0  0  0  0  0  0  0
    0.8875   -6.0382    3.3408 C   0  0  0  0  0  0  0  0  0  0  0  0
    2.4014   -7.5407    4.6202 C   0  0  1  0  0  0  0  0  0  0  0  0
    1.3454   -8.4454    5.3548 C   0  0  0  0  0  0  0  0  0  0  0  0
    1.6776   -9.9386    5.5350 C   0  0  0  0  0  0  0  0  0  0  0  0
    1.9972  -10.7719    4.2787 C   0  0  1  0  0  0  0  0  0  0  0  0
    0.7454  -11.4442    3.6932 C   0  0  0  0  0  0  0  0  0  0  0  0
    3.7024   -5.2449    3.1377 O   0  0  0  0  0  0  0  0  0  0  0  0
    4.7071   -4.4056    2.3428 O   0  0  0  0  0  0  0  0  0  0  0  0
    5.2227   -3.1899    0.3213 C   0  0  2  0  0  0  0  0  0  0  0  0
    6.1934   -2.3421    1.1692 C   0  0  0  0  0  0  0  0  0  0  0  0
    5.5294   -0.9658    1.3440 C   0  0  1  0  0  0  0  0  0  0  0  0
    4.2957   -1.0422    0.4132 C   0  0  1  0  0  0  0  0  0  0  0  0
    4.6313   -2.1337   -0.6076 C   0  0  0  0  0  0  0  0  0  0  0  0
    6.5784    0.3805    3.6333 H   0  0  0  0  0  0  0  0  0  0  0  0
    4.9830    0.3743    4.5538 H   0  0  0  0  0  0  0  0  0  0  0  0
    2.2086   -0.9621    1.0094 H   0  0  0  0  0  0  0  0  0  0  0  0
    2.3727   -3.2452    2.3440 H   0  0  0  0  0  0  0  0  0  0  0  0
    2.1262   -3.1703    0.6316 H   0  0  0  0  0  0  0  0  0  0  0  0
    4.1364   -7.8213    0.8684 H   0  0  0  0  0  0  0  0  0  0  0  0
    5.0002   -6.4314    1.0355 H   0  0  0  0  0  0  0  0  0  0  0  0
    6.4700   -7.8054    1.7908 H   0  0  0  0  0  0  0  0  0  0  0  0
    5.9783   -6.9239    3.1473 H   0  0  0  0  0  0  0  0  0  0  0  0
    5.8092  -11.1923    2.7141 H   0  0  0  0  0  0  0  0  0  0  0  0
    6.8318  -10.1042    1.7792 H   0  0  0  0  0  0  0  0  0  0  0  0
    5.1360  -10.2360    1.3989 H   0  0  0  0  0  0  0  0  0  0  0  0
    6.5473  -10.1319    4.8186 H   0  0  0  0  0  0  0  0  0  0  0  0
    8.1632   -7.8421    3.6271 H   0  0  0  0  0  0  0  0  0  0  0  0
    8.3685   -9.5534    3.2771 H   0  0  0  0  0  0  0  0  0  0  0  0
    8.6691   -8.9495    4.8883 H   0  0  0  0  0  0  0  0  0  0  0  0
    6.7248   -8.4835    6.5146 H   0  0  0  0  0  0  0  0  0  0  0  0
    6.4820   -7.1621    5.4173 H   0  0  0  0  0  0  0  0  0  0  0  0
    4.3799   -8.9845    6.6436 H   0  0  0  0  0  0  0  0  0  0  0  0
    4.4524   -7.2389    6.6409 H   0  0  0  0  0  0  0  0  0  0  0  0
    4.3057   -7.1941    4.3467 H   0  0  0  0  0  0  0  0  0  0  0  0
    4.3759  -10.1053    4.6539 H   0  0  0  0  0  0  0  0  0  0  0  0
    3.4156  -10.9866    2.7724 H   0  0  0  0  0  0  0  0  0  0  0  0
    2.9428   -9.3213    1.2338 H   0  0  0  0  0  0  0  0  0  0  0  0
    1.5784  -10.1889    1.5998 H   0  0  0  0  0  0  0  0  0  0  0  0
    1.0667   -7.8253    1.3511 H   0  0  0  0  0  0  0  0  0  0  0  0
    0.4821   -8.5403    2.7917 H   0  0  0  0  0  0  0  0  0  0  0  0
    0.0816   -6.4472    3.9530 H   0  0  0  0  0  0  0  0  0  0  0  0
    0.4219   -5.7501    2.3986 H   0  0  0  0  0  0  0  0  0  0  0  0
    1.2200   -5.1293    3.8424 H   0  0  0  0  0  0  0  0  0  0  0  0
    2.4188   -6.6238    5.2124 H   0  0  0  0  0  0  0  0  0  0  0  0
    1.2379   -8.0448    6.3644 H   0  0  0  0  0  0  0  0  0  0  0  0
    0.3472   -8.3510    4.9311 H   0  0  0  0  0  0  0  0  0  0  0  0
    2.5009  -10.0400    6.2378 H   0  0  0  0  0  0  0  0  0  0  0  0
    0.8435  -10.4073    6.0586 H   0  0  0  0  0  0  0  0  0  0  0  0
    2.5598  -11.6151    4.6750 H   0  0  0  0  0  0  0  0  0  0  0  0
    0.0121  -10.7192    3.3337 H   0  0  0  0  0  0  0  0  0  0  0  0
    0.2451  -12.0571    4.4461 H   0  0  0  0  0  0  0  0  0  0  0  0
    1.0041  -12.1127    2.8713 H   0  0  0  0  0  0  0  0  0  0  0  0
    5.7758   -3.9400   -0.2260 H   0  0  0  0  0  0  0  0  0  0  0  0
    6.5239   -2.7969    2.0991 H   0  0  0  0  0  0  0  0  0  0  0  0
    7.0973   -2.1875    0.5820 H   0  0  0  0  0  0  0  0  0  0  0  0
    6.1998   -0.1649    1.0176 H   0  0  0  0  0  0  0  0  0  0  0  0
    4.0879   -0.0824   -0.0693 H   0  0  0  0  0  0  0  0  0  0  0  0
    5.3847   -1.7716   -1.3140 H   0  0  0  0  0  0  0  0  0  0  0  0
    3.7714   -2.4848   -1.1860 H   0  0  0  0  0  0  0  0  0  0  0  0
  1  2  2  0
  1 38  1  0
  1 39  1  0
  2 35  1  0
  2  3  1  0
  3  4  2  0
  3  5  1  0
  5 36  1  0
  5  6  1  0
  5 40  1  6
  6  7  1  0
  6 41  1  0
  6 42  1  0
  7 32  1  1
  7  8  1  0
  7 33  1  0
  8  9  1  0
 10  9  1  6
 10 24  1  0
 10 11  1  0
 10 31  1  0
 11 12  1  0
 11 43  1  0
 11 44  1  0
 12 13  1  0
 12 45  1  0
 12 46  1  0
 13 20  1  0
 13 14  1  6
 13 15  1  0
 14 47  1  0
 14 48  1  0
 14 49  1  0
 15 16  1  0
 15 17  1  0
 15 50  1  1
 16 51  1  0
 16 52  1  0
 16 53  1  0
 17 18  1  0
 17 54  1  0
 17 55  1  0
 18 19  1  0
 18 56  1  0
 18 57  1  0
 19 26  1  0
 19 20  1  0
 19 58  1  6
 20 21  1  0
 20 59  1  1
 21 29  1  0
 21 22  1  0
 21 60  1  6
 22 23  1  0
 22 61  1  0
 22 62  1  0
 23 24  1  0
 23 63  1  0
 23 64  1  0
 24 25  1  1
 24 26  1  0
 25 65  1  0
 25 66  1  0
 25 67  1  0
 26 27  1  0
 26 68  1  1
 27 28  1  0
 27 69  1  0
 27 70  1  0
 28 29  1  0
 28 71  1  0
 28 72  1  0
 29 30  1  0
 29 73  1  1
 30 74  1  0
 30 75  1  0
 30 76  1  0
 31 32  1  0
 33 37  1  0
 33 34  1  0
 33 77  1  6
 34 35  1  0
 34 78  1  0
 34 79  1  0
 35 36  1  0
 35 80  1  6
 36 37  1  0
 36 81  1  6
 37 82  1  0
 37 83  1  0
M  END
>  <i_m_ct_stereo_status>  (167) 
1

>  <s_m_source_file>  (167) 
/var/tmp/pbs.5076255.sched01/tmpp9awzhar/40nweoahkg.sdf

>  <i_m_source_file_index>  (167) 
24

>  <i_lp_mmshare_version>  (167) 
48012

>  <i_f3d_flags>  (167) 
0

>  <s_epik_input>  (167) 
W0NIMl09QzFDKD1PKVtDQEhdKFtDSDJdMilbQ0BIXShbQ0gyXTMpW0NAQEhdMVtDSDJdW0NASF0zW0NAXTI0T09bQ0BAXTUoT080KVtDQF02KFtDSDNdKVtDQEBIXTdbQ0BASF04W0NASF0oW0NAQF0oW0NIM10pKFtDSDJdW0NIMl01KVtDQEBIXShbQ0gzXSlbQ0gyXVtDSDJdOClbQ0BIXShbQ0gyXVtDSDJdNilbQ0BIXShbQ0gzXSlbQ0gyXVtDSDJdNw==

>  <s_epik_cmdline>  (167) 
J2VwaWtfcHl0aG9uJywgJy1waHQnLCAnMi4wJywgJy1waCcsICc3LjAnLCAnLXRuJywgJzgnLCAnLW1hJywgJzIwMCcsICctaW1hZScsICc8aW5maWxlLm1hZT4nLCAnLW9tYWUnLCAnPG91dGZpbGUubWFlPic=

>  <r_lp_tautomer_probability>  (167) 
1

>  <r_epik_Ionization_Penalty>  (167) 
0

>  <r_epik_Ionization_Penalty_Charging>  (167) 
0

>  <r_epik_Ionization_Penalty_Neutral>  (167) 
0

>  <r_epik_State_Penalty>  (167) 
-0

>  <r_epik_Charging_Adjusted_Penalty>  (167) 
0

>  <i_epik_Tot_Q>  (167) 
0

>  <i_epik_Tot_abs_Q>  (167) 
0

>  <s_lp_Force_Field>  (167) 
OPLS3e

>  <r_lp_Energy>  (167) 
131.435

>  <b_lp_Chiralities_Consistent>  (167) 
1

>  <s_lp_Variant>  (167) 
44:0-1

>  <s_i_glide_gridfile>  (167) 
pfpi4k_grid

>  <i_i_glide_lignum>  (167) 
24

>  <i_i_glide_rotatable_bonds>  (167) 
0

>  <r_i_docking_score>  (167) 
-2.61522

>  <r_i_glide_ligand_efficiency>  (167) 
-0.0706816

>  <r_i_glide_ligand_efficiency_sa>  (167) 
-0.235527

>  <r_i_glide_ligand_efficiency_ln>  (167) 
-0.56718

>  <r_i_glide_gscore>  (167) 
-2.61522

>  <r_i_glide_lipo>  (167) 
-0.716105

>  <r_i_glide_hbond>  (167) 
0

>  <r_i_glide_metal>  (167) 
-0

>  <r_i_glide_rewards>  (167) 
-0.0309811

>  <r_i_glide_evdw>  (167) 
-35.6352

>  <r_i_glide_ecoul>  (167) 
-0.575811

>  <r_i_glide_erotb>  (167) 
0

>  <r_i_glide_esite>  (167) 
0

>  <r_i_glide_emodel>  (167) 
-41.5167

>  <r_i_glide_energy>  (167) 
-36.211

>  <r_i_glide_einternal>  (167) 
0

>  <r_i_glide_intrahb_reward>  (167) 
-0

>  <i_i_glide_confnum>  (167) 
2

>  <i_i_glide_posenum>  (167) 
1

>  <r_i_glide_eff_state_penalty>  (167) 
0

>  <ligand_id>  (167) 
44

>  <original_smiles>  (167) 
C=C1C(=O)C2CC3(OOC4(CCC5(C)C(C)CCC6C5C5CCC4(C)C6CCC5C)OO3)C3CC1C2C3

>  <smiles>  (167) 
[H]C([H])=C1C(=O)C2([H])C([H])([H])C3(OOC4(OO3)C([H])([H])C([H])([H])C3(C([H])([H])[H])C([H])(C([H])([H])[H])C([H])([H])C([H])([H])C5([H])C6([H])C([H])([H])C([H])([H])C([H])(C([H])([H])[H])C([H])(C([H])([H])C([H])([H])C46C([H])([H])[H])C53[H])C3([H])C([H])([H])C1([H])C2([H])C3([H])[H]

$$$$
44:0:1
     RDKit          3D

 83 90  0  0  1  0  0  0  0  0999 V2000
    5.1491   -0.2043    2.8697 C   0  0  0  0  0  0  0  0  0  0  0  0
    4.8428   -1.0937    1.9231 C   0  0  0  0  0  0  0  0  0  0  0  0
    3.4725   -1.4400    1.5803 C   0  0  0  0  0  0  0  0  0  0  0  0
    2.4472   -1.0997    2.1881 O   0  0  0  0  0  0  0  0  0  0  0  0
    3.4269   -2.2690    0.3148 C   0  0  2  0  0  0  0  0  0  0  0  0
    3.1567   -3.7509    0.6573 C   0  0  0  0  0  0  0  0  0  0  0  0
    4.4189   -4.6190    0.9291 C   0  0  2  0  0  0  0  0  0  0  0  0
    4.1518   -5.8813    0.2956 O   0  0  0  0  0  0  0  0  0  0  0  0
    2.9788   -6.5068    0.9662 O   0  0  0  0  0  0  0  0  0  0  0  0
    3.3103   -6.8039    2.3459 C   0  0  2  0  0  0  0  0  0  0  0  0
    4.6727   -7.6701    2.2285 C   0  0  0  0  0  0  0  0  0  0  0  0
    5.6038   -7.9592    3.4306 C   0  0  0  0  0  0  0  0  0  0  0  0
    5.3203   -9.1391    4.4147 C   0  0  1  0  0  0  0  0  0  0  0  0
    5.9088  -10.4348    3.8145 C   0  0  0  0  0  0  0  0  0  0  0  0
    5.9928   -8.8444    5.8257 C   0  0  1  0  0  0  0  0  0  0  0  0
    7.5088   -8.5719    5.7548 C   0  0  0  0  0  0  0  0  0  0  0  0
    5.2857   -7.6968    6.6429 C   0  0  0  0  0  0  0  0  0  0  0  0
    3.7258   -7.6672    6.6217 C   0  0  0  0  0  0  0  0  0  0  0  0
    3.2810   -7.9465    5.1821 C   0  0  1  0  0  0  0  0  0  0  0  0
    3.8158   -9.3303    4.7746 C   0  0  1  0  0  0  0  0  0  0  0  0
    2.8751  -10.3053    4.0008 C   0  0  2  0  0  0  0  0  0  0  0  0
    2.5005   -9.9659    2.5560 C   0  0  0  0  0  0  0  0  0  0  0  0
    1.5976   -8.7515    2.3234 C   0  0  0  0  0  0  0  0  0  0  0  0
    1.9839   -7.4147    3.0017 C   0  0  2  0  0  0  0  0  0  0  0  0
    0.8046   -6.4630    2.6603 C   0  0  0  0  0  0  0  0  0  0  0  0
    1.9244   -7.5554    4.5937 C   0  0  1  0  0  0  0  0  0  0  0  0
    0.7255   -8.3564    5.2110 C   0  0  0  0  0  0  0  0  0  0  0  0
    1.0234   -9.7491    5.7940 C   0  0  0  0  0  0  0  0  0  0  0  0
    1.6909  -10.7903    4.8829 C   0  0  1  0  0  0  0  0  0  0  0  0
    0.6740  -11.6537    4.1484 C   0  0  0  0  0  0  0  0  0  0  0  0
    3.5797   -5.5422    3.0145 O   0  0  0  0  0  0  0  0  0  0  0  0
    4.7024   -4.8106    2.3319 O   0  0  0  0  0  0  0  0  0  0  0  0
    5.7005   -4.0212    0.3004 C   0  0  2  0  0  0  0  0  0  0  0  0
    6.4061   -2.9442    1.1511 C   0  0  0  0  0  0  0  0  0  0  0  0
    5.7273   -1.6069    0.8243 C   0  0  1  0  0  0  0  0  0  0  0  0
    4.7756   -1.9714   -0.3491 C   0  0  1  0  0  0  0  0  0  0  0  0
    5.3860   -3.2332   -0.9699 C   0  0  0  0  0  0  0  0  0  0  0  0
    6.1454    0.1798    2.9935 H   0  0  0  0  0  0  0  0  0  0  0  0
    4.3646    0.2487    3.4574 H   0  0  0  0  0  0  0  0  0  0  0  0
    2.6377   -1.8903   -0.3276 H   0  0  0  0  0  0  0  0  0  0  0  0
    2.4509   -3.8208    1.4868 H   0  0  0  0  0  0  0  0  0  0  0  0
    2.6289   -4.1507   -0.2131 H   0  0  0  0  0  0  0  0  0  0  0  0
    4.6018   -8.5177    1.5751 H   0  0  0  0  0  0  0  0  0  0  0  0
    5.3977   -7.0918    1.6514 H   0  0  0  0  0  0  0  0  0  0  0  0
    6.6099   -8.1537    3.0494 H   0  0  0  0  0  0  0  0  0  0  0  0
    5.7573   -7.0321    3.9932 H   0  0  0  0  0  0  0  0  0  0  0  0
    5.7597  -11.2846    4.4832 H   0  0  0  0  0  0  0  0  0  0  0  0
    6.9776  -10.3436    3.6165 H   0  0  0  0  0  0  0  0  0  0  0  0
    5.4400  -10.6697    2.8556 H   0  0  0  0  0  0  0  0  0  0  0  0
    5.9083   -9.7631    6.4226 H   0  0  0  0  0  0  0  0  0  0  0  0
    7.7376   -7.6614    5.1913 H   0  0  0  0  0  0  0  0  0  0  0  0
    8.0521   -9.3987    5.2995 H   0  0  0  0  0  0  0  0  0  0  0  0
    7.9088   -8.4416    6.7568 H   0  0  0  0  0  0  0  0  0  0  0  0
    5.5975   -7.7813    7.6757 H   0  0  0  0  0  0  0  0  0  0  0  0
    5.6594   -6.7328    6.2940 H   0  0  0  0  0  0  0  0  0  0  0  0
    3.3416   -8.4111    7.3190 H   0  0  0  0  0  0  0  0  0  0  0  0
    3.3575   -6.6961    6.9566 H   0  0  0  0  0  0  0  0  0  0  0  0
    3.8259   -7.1478    4.7401 H   0  0  0  0  0  0  0  0  0  0  0  0
    3.8503   -9.9150    5.7061 H   0  0  0  0  0  0  0  0  0  0  0  0
    3.4346  -11.2240    3.8761 H   0  0  0  0  0  0  0  0  0  0  0  0
    3.3716   -9.9701    1.9319 H   0  0  0  0  0  0  0  0  0  0  0  0
    1.9769  -10.8070    2.1281 H   0  0  0  0  0  0  0  0  0  0  0  0
    1.5125   -8.6032    1.2460 H   0  0  0  0  0  0  0  0  0  0  0  0
    0.5779   -9.0408    2.6107 H   0  0  0  0  0  0  0  0  0  0  0  0
   -0.1214   -6.7989    3.1219 H   0  0  0  0  0  0  0  0  0  0  0  0
    0.6071   -6.4176    1.5887 H   0  0  0  0  0  0  0  0  0  0  0  0
    0.9879   -5.4520    3.0217 H   0  0  0  0  0  0  0  0  0  0  0  0
    1.7825   -6.5280    4.9474 H   0  0  0  0  0  0  0  0  0  0  0  0
    0.3595   -7.7595    6.0431 H   0  0  0  0  0  0  0  0  0  0  0  0
   -0.1253   -8.4222    4.5366 H   0  0  0  0  0  0  0  0  0  0  0  0
    1.6320   -9.6416    6.6869 H   0  0  0  0  0  0  0  0  0  0  0  0
    0.0949  -10.1606    6.1688 H   0  0  0  0  0  0  0  0  0  0  0  0
    2.1390  -11.4866    5.5826 H   0  0  0  0  0  0  0  0  0  0  0  0
    0.0306  -11.0553    3.4906 H   0  0  0  0  0  0  0  0  0  0  0  0
    0.0222  -12.1490    4.8745 H   0  0  0  0  0  0  0  0  0  0  0  0
    1.1322  -12.4456    3.5545 H   0  0  0  0  0  0  0  0  0  0  0  0
    6.3919   -4.8338    0.1162 H   0  0  0  0  0  0  0  0  0  0  0  0
    6.4286   -3.1690    2.2223 H   0  0  0  0  0  0  0  0  0  0  0  0
    7.4491   -2.8789    0.8257 H   0  0  0  0  0  0  0  0  0  0  0  0
    6.4549   -0.8344    0.5343 H   0  0  0  0  0  0  0  0  0  0  0  0
    4.6894   -1.1622   -1.0867 H   0  0  0  0  0  0  0  0  0  0  0  0
    6.3090   -2.9951   -1.5098 H   0  0  0  0  0  0  0  0  0  0  0  0
    4.7211   -3.7784   -1.6524 H   0  0  0  0  0  0  0  0  0  0  0  0
  1  2  2  0
  1 38  1  0
  1 39  1  0
  2 35  1  0
  2  3  1  0
  3  4  2  0
  3  5  1  0
  5 36  1  0
  5  6  1  0
  5 40  1  6
  6  7  1  0
  6 41  1  0
  6 42  1  0
  7 32  1  1
  7  8  1  0
  7 33  1  0
  8  9  1  0
 10  9  1  6
 10 24  1  0
 10 11  1  0
 10 31  1  0
 11 12  1  0
 11 43  1  0
 11 44  1  0
 12 13  1  0
 12 45  1  0
 12 46  1  0
 13 20  1  0
 13 14  1  6
 13 15  1  0
 14 47  1  0
 14 48  1  0
 14 49  1  0
 15 16  1  0
 15 17  1  0
 15 50  1  1
 16 51  1  0
 16 52  1  0
 16 53  1  0
 17 18  1  0
 17 54  1  0
 17 55  1  0
 18 19  1  0
 18 56  1  0
 18 57  1  0
 19 26  1  0
 19 20  1  0
 19 58  1  6
 20 21  1  0
 20 59  1  1
 21 29  1  0
 21 22  1  0
 21 60  1  6
 22 23  1  0
 22 61  1  0
 22 62  1  0
 23 24  1  0
 23 63  1  0
 23 64  1  0
 24 25  1  6
 24 26  1  0
 25 65  1  0
 25 66  1  0
 25 67  1  0
 26 27  1  0
 26 68  1  1
 27 28  1  0
 27 69  1  0
 27 70  1  0
 28 29  1  0
 28 71  1  0
 28 72  1  0
 29 30  1  0
 29 73  1  1
 30 74  1  0
 30 75  1  0
 30 76  1  0
 31 32  1  0
 33 37  1  0
 33 34  1  0
 33 77  1  6
 34 35  1  0
 34 78  1  0
 34 79  1  0
 35 36  1  0
 35 80  1  6
 36 37  1  0
 36 81  1  6
 37 82  1  0
 37 83  1  0
M  END
>  <i_m_ct_stereo_status>  (168) 
1

>  <s_m_source_file>  (168) 
/var/tmp/pbs.5076255.sched01/tmpp9awzhar/40nweoahkg.sdf

>  <i_m_source_file_index>  (168) 
24

>  <i_lp_mmshare_version>  (168) 
48012

>  <i_f3d_flags>  (168) 
0

>  <s_epik_input>  (168) 
W0NIMl09QzFDKD1PKVtDQEhdKFtDSDJdMilbQ0BIXShbQ0gyXTMpW0NAQEhdMVtDSDJdW0NASF0zW0NAXTI0T09bQ0BAXTUoT080KVtDQF02KFtDSDNdKVtDQEBIXTdbQ0BASF04W0NASF0oW0NAQF0oW0NIM10pKFtDSDJdW0NIMl01KVtDQEBIXShbQ0gzXSlbQ0gyXVtDSDJdOClbQ0BIXShbQ0gyXVtDSDJdNilbQ0BIXShbQ0gzXSlbQ0gyXVtDSDJdNw==

>  <s_epik_cmdline>  (168) 
J2VwaWtfcHl0aG9uJywgJy1waHQnLCAnMi4wJywgJy1waCcsICc3LjAnLCAnLXRuJywgJzgnLCAnLW1hJywgJzIwMCcsICctaW1hZScsICc8aW5maWxlLm1hZT4nLCAnLW9tYWUnLCAnPG91dGZpbGUubWFlPic=

>  <r_lp_tautomer_probability>  (168) 
1

>  <r_epik_Ionization_Penalty>  (168) 
0

>  <r_epik_Ionization_Penalty_Charging>  (168) 
0

>  <r_epik_Ionization_Penalty_Neutral>  (168) 
0

>  <r_epik_State_Penalty>  (168) 
-0

>  <r_epik_Charging_Adjusted_Penalty>  (168) 
0

>  <i_epik_Tot_Q>  (168) 
0

>  <i_epik_Tot_abs_Q>  (168) 
0

>  <s_lp_Force_Field>  (168) 
OPLS3e

>  <r_lp_Energy>  (168) 
131.435

>  <b_lp_Chiralities_Consistent>  (168) 
1

>  <s_lp_Variant>  (168) 
44:0-1

>  <s_i_glide_gridfile>  (168) 
pfpi4k_grid

>  <i_i_glide_lignum>  (168) 
24

>  <i_i_glide_rotatable_bonds>  (168) 
0

>  <r_i_docking_score>  (168) 
-2.25119

>  <r_i_glide_ligand_efficiency>  (168) 
-0.0608431

>  <r_i_glide_ligand_efficiency_sa>  (168) 
-0.202743

>  <r_i_glide_ligand_efficiency_ln>  (168) 
-0.488231

>  <r_i_glide_gscore>  (168) 
-2.25119

>  <r_i_glide_lipo>  (168) 
-0.542931

>  <r_i_glide_hbond>  (168) 
0

>  <r_i_glide_metal>  (168) 
-0

>  <r_i_glide_rewards>  (168) 
-0.0476903

>  <r_i_glide_evdw>  (168) 
-32.2295

>  <r_i_glide_ecoul>  (168) 
-0.196214

>  <r_i_glide_erotb>  (168) 
0

>  <r_i_glide_esite>  (168) 
-0.0196625

>  <r_i_glide_emodel>  (168) 
-36.7744

>  <r_i_glide_energy>  (168) 
-32.4258

>  <r_i_glide_einternal>  (168) 
0

>  <r_i_glide_intrahb_reward>  (168) 
-0

>  <i_i_glide_confnum>  (168) 
2

>  <i_i_glide_posenum>  (168) 
9

>  <r_i_glide_eff_state_penalty>  (168) 
0

>  <ligand_id>  (168) 
44

>  <original_smiles>  (168) 
C=C1C(=O)C2CC3(OOC4(CCC5(C)C(C)CCC6C5C5CCC4(C)C6CCC5C)OO3)C3CC1C2C3

>  <smiles>  (168) 
[H]C([H])=C1C(=O)C2([H])C([H])([H])C3(OOC4(OO3)C([H])([H])C([H])([H])C3(C([H])([H])[H])C([H])(C([H])([H])[H])C([H])([H])C([H])([H])C5([H])C6([H])C([H])([H])C([H])([H])C([H])(C([H])([H])[H])C([H])(C([H])([H])C([H])([H])C46C([H])([H])[H])C53[H])C3([H])C([H])([H])C1([H])C2([H])C3([H])[H]

$$$$
44:0:2
     RDKit          3D

 83 90  0  0  1  0  0  0  0  0999 V2000
   -0.7049    1.1889    2.1039 C   0  0  0  0  0  0  0  0  0  0  0  0
    0.1431    0.7731    3.0509 C   0  0  0  0  0  0  0  0  0  0  0  0
    1.5831    0.6860    2.8477 C   0  0  0  0  0  0  0  0  0  0  0  0
    2.1921    0.8364    1.7846 O   0  0  0  0  0  0  0  0  0  0  0  0
    2.3013    0.4593    4.1636 C   0  0  2  0  0  0  0  0  0  0  0  0
    2.7683   -1.0005    4.2948 C   0  0  0  0  0  0  0  0  0  0  0  0
    1.7674   -2.0078    4.9438 C   0  0  2  0  0  0  0  0  0  0  0  0
    2.5621   -2.8246    5.8103 O   0  0  0  0  0  0  0  0  0  0  0  0
    3.5483   -3.6194    4.9558 O   0  0  0  0  0  0  0  0  0  0  0  0
    2.8027   -4.4702    4.0649 C   0  0  2  0  0  0  0  0  0  0  0  0
    1.8507   -5.2997    5.0568 C   0  0  0  0  0  0  0  0  0  0  0  0
    0.6433   -6.1575    4.5942 C   0  0  0  0  0  0  0  0  0  0  0  0
    0.8460   -7.6241    4.0785 C   0  0  1  0  0  0  0  0  0  0  0  0
    0.8689   -8.5844    5.2928 C   0  0  0  0  0  0  0  0  0  0  0  0
   -0.3563   -8.0118    3.1136 C   0  0  1  0  0  0  0  0  0  0  0  0
   -1.7599   -7.8600    3.7371 C   0  0  0  0  0  0  0  0  0  0  0  0
   -0.3165   -7.2925    1.7136 C   0  0  0  0  0  0  0  0  0  0  0  0
    1.0707   -7.1087    1.0461 C   0  0  0  0  0  0  0  0  0  0  0  0
    2.0805   -6.7159    2.1259 C   0  0  1  0  0  0  0  0  0  0  0  0
    2.1088   -7.8323    3.1885 C   0  0  1  0  0  0  0  0  0  0  0  0
    3.4974   -8.3159    3.7431 C   0  0  2  0  0  0  0  0  0  0  0  0
    4.2881   -7.3633    4.6531 C   0  0  0  0  0  0  0  0  0  0  0  0
    4.8587   -6.0905    4.0133 C   0  0  0  0  0  0  0  0  0  0  0  0
    3.9252   -5.2145    3.1432 C   0  0  2  0  0  0  0  0  0  0  0  0
    4.8523   -4.1094    2.5612 C   0  0  0  0  0  0  0  0  0  0  0  0
    3.4038   -6.0098    1.8661 C   0  0  1  0  0  0  0  0  0  0  0  0
    4.4462   -6.9049    1.1019 C   0  0  0  0  0  0  0  0  0  0  0  0
    4.3277   -8.4354    1.2437 C   0  0  0  0  0  0  0  0  0  0  0  0
    4.3625   -9.0400    2.6604 C   0  0  1  0  0  0  0  0  0  0  0  0
    5.7888   -9.4261    3.0997 C   0  0  0  0  0  0  0  0  0  0  0  0
    2.0172   -3.6546    3.1729 O   0  0  0  0  0  0  0  0  0  0  0  0
    1.0429   -2.8049    3.9926 O   0  0  0  0  0  0  0  0  0  0  0  0
    0.6873   -1.2957    5.8307 C   0  0  2  0  0  0  0  0  0  0  0  0
   -0.5351   -0.7529    5.0523 C   0  0  0  0  0  0  0  0  0  0  0  0
   -0.1290    0.6441    4.5371 C   0  0  1  0  0  0  0  0  0  0  0  0
    1.2410    0.8931    5.2092 C   0  0  1  0  0  0  0  0  0  0  0  0
    1.2495   -0.0167    6.4413 C   0  0  0  0  0  0  0  0  0  0  0  0
   -1.7466    1.3881    2.3020 H   0  0  0  0  0  0  0  0  0  0  0  0
   -0.3430    1.4023    1.1068 H   0  0  0  0  0  0  0  0  0  0  0  0
    3.1622    1.1139    4.2081 H   0  0  0  0  0  0  0  0  0  0  0  0
    3.1304   -1.3848    3.3368 H   0  0  0  0  0  0  0  0  0  0  0  0
    3.6577   -0.9557    4.9250 H   0  0  0  0  0  0  0  0  0  0  0  0
    2.3820   -5.7706    5.8717 H   0  0  0  0  0  0  0  0  0  0  0  0
    1.2835   -4.5745    5.6387 H   0  0  0  0  0  0  0  0  0  0  0  0
   -0.0445   -6.2282    5.4333 H   0  0  0  0  0  0  0  0  0  0  0  0
    0.0688   -5.5705    3.8787 H   0  0  0  0  0  0  0  0  0  0  0  0
    0.9679   -9.6244    4.9734 H   0  0  0  0  0  0  0  0  0  0  0  0
   -0.0356   -8.5132    5.8959 H   0  0  0  0  0  0  0  0  0  0  0  0
    1.7002   -8.3549    5.9583 H   0  0  0  0  0  0  0  0  0  0  0  0
   -0.2624   -9.0838    2.9094 H   0  0  0  0  0  0  0  0  0  0  0  0
   -1.9969   -6.8276    3.9906 H   0  0  0  0  0  0  0  0  0  0  0  0
   -1.8592   -8.4603    4.6396 H   0  0  0  0  0  0  0  0  0  0  0  0
   -2.5226   -8.2135    3.0454 H   0  0  0  0  0  0  0  0  0  0  0  0
   -0.9551   -7.8494    1.0272 H   0  0  0  0  0  0  0  0  0  0  0  0
   -0.7705   -6.3064    1.8120 H   0  0  0  0  0  0  0  0  0  0  0  0
    1.3551   -8.0440    0.5727 H   0  0  0  0  0  0  0  0  0  0  0  0
    1.0231   -6.3548    0.2600 H   0  0  0  0  0  0  0  0  0  0  0  0
    1.5415   -5.8448    2.4492 H   0  0  0  0  0  0  0  0  0  0  0  0
    1.8774   -8.7525    2.6451 H   0  0  0  0  0  0  0  0  0  0  0  0
    3.2626   -9.1343    4.4214 H   0  0  0  0  0  0  0  0  0  0  0  0
    3.7189   -7.1524    5.5422 H   0  0  0  0  0  0  0  0  0  0  0  0
    5.1264   -7.9030    5.0934 H   0  0  0  0  0  0  0  0  0  0  0  0
    5.2919   -5.4846    4.8121 H   0  0  0  0  0  0  0  0  0  0  0  0
    5.7319   -6.3898    3.4280 H   0  0  0  0  0  0  0  0  0  0  0  0
    5.6012   -4.5237    1.8817 H   0  0  0  0  0  0  0  0  0  0  0  0
    5.4204   -3.5847    3.3305 H   0  0  0  0  0  0  0  0  0  0  0  0
    4.3041   -3.3635    1.9856 H   0  0  0  0  0  0  0  0  0  0  0  0
    3.1432   -5.2331    1.1417 H   0  0  0  0  0  0  0  0  0  0  0  0
    4.3191   -6.6968    0.0375 H   0  0  0  0  0  0  0  0  0  0  0  0
    5.4701   -6.6036    1.3014 H   0  0  0  0  0  0  0  0  0  0  0  0
    3.4227   -8.7747    0.7491 H   0  0  0  0  0  0  0  0  0  0  0  0
    5.1234   -8.8896    0.6523 H   0  0  0  0  0  0  0  0  0  0  0  0
    3.8773  -10.0085    2.5295 H   0  0  0  0  0  0  0  0  0  0  0  0
    6.4470   -8.5618    3.1817 H   0  0  0  0  0  0  0  0  0  0  0  0
    6.2434  -10.1115    2.3823 H   0  0  0  0  0  0  0  0  0  0  0  0
    5.7783   -9.9399    4.0620 H   0  0  0  0  0  0  0  0  0  0  0  0
    0.3581   -1.9899    6.5933 H   0  0  0  0  0  0  0  0  0  0  0  0
   -0.9346   -1.4178    4.2914 H   0  0  0  0  0  0  0  0  0  0  0  0
   -1.3415   -0.6014    5.7731 H   0  0  0  0  0  0  0  0  0  0  0  0
   -0.8584    1.3992    4.8388 H   0  0  0  0  0  0  0  0  0  0  0  0
    1.3760    1.9452    5.4786 H   0  0  0  0  0  0  0  0  0  0  0  0
    0.5752    0.3799    7.2089 H   0  0  0  0  0  0  0  0  0  0  0  0
    2.2338   -0.1417    6.8951 H   0  0  0  0  0  0  0  0  0  0  0  0
  1  2  2  0
  1 38  1  0
  1 39  1  0
  2 35  1  0
  2  3  1  0
  3  4  2  0
  3  5  1  0
  5 36  1  0
  5  6  1  0
  5 40  1  6
  6  7  1  0
  6 41  1  0
  6 42  1  0
  7 32  1  6
  7  8  1  0
  7 33  1  0
  8  9  1  0
 10  9  1  1
 10 24  1  0
 10 11  1  0
 10 31  1  0
 11 12  1  0
 11 43  1  0
 11 44  1  0
 12 13  1  0
 12 45  1  0
 12 46  1  0
 13 20  1  0
 13 14  1  1
 13 15  1  0
 14 47  1  0
 14 48  1  0
 14 49  1  0
 15 16  1  0
 15 17  1  0
 15 50  1  6
 16 51  1  0
 16 52  1  0
 16 53  1  0
 17 18  1  0
 17 54  1  0
 17 55  1  0
 18 19  1  0
 18 56  1  0
 18 57  1  0
 19 26  1  0
 19 20  1  0
 19 58  1  1
 20 21  1  0
 20 59  1  6
 21 29  1  0
 21 22  1  0
 21 60  1  1
 22 23  1  0
 22 61  1  0
 22 62  1  0
 23 24  1  0
 23 63  1  0
 23 64  1  0
 24 25  1  6
 24 26  1  0
 25 65  1  0
 25 66  1  0
 25 67  1  0
 26 27  1  0
 26 68  1  6
 27 28  1  0
 27 69  1  0
 27 70  1  0
 28 29  1  0
 28 71  1  0
 28 72  1  0
 29 30  1  0
 29 73  1  6
 30 74  1  0
 30 75  1  0
 30 76  1  0
 31 32  1  0
 33 37  1  0
 33 34  1  0
 33 77  1  1
 34 35  1  0
 34 78  1  0
 34 79  1  0
 35 36  1  0
 35 80  1  1
 36 37  1  0
 36 81  1  1
 37 82  1  0
 37 83  1  0
M  END
>  <i_m_ct_stereo_status>  (169) 
1

>  <s_m_source_file>  (169) 
/var/tmp/pbs.5076255.sched01/tmpp9awzhar/40nweoahkg.sdf

>  <i_m_source_file_index>  (169) 
24

>  <i_lp_mmshare_version>  (169) 
48012

>  <i_f3d_flags>  (169) 
0

>  <s_epik_input>  (169) 
W0NIMl09QzFDKD1PKVtDQEhdKFtDSDJdMilbQ0BIXShbQ0gyXTMpW0NAQEhdMVtDSDJdW0NASF0zW0NAXTI0T09bQ0BAXTUoT080KVtDQF02KFtDSDNdKVtDQEBIXTdbQ0BASF04W0NASF0oW0NAQF0oW0NIM10pKFtDSDJdW0NIMl01KVtDQEBIXShbQ0gzXSlbQ0gyXVtDSDJdOClbQ0BIXShbQ0gyXVtDSDJdNilbQ0BIXShbQ0gzXSlbQ0gyXVtDSDJdNw==

>  <s_epik_cmdline>  (169) 
J2VwaWtfcHl0aG9uJywgJy1waHQnLCAnMi4wJywgJy1waCcsICc3LjAnLCAnLXRuJywgJzgnLCAnLW1hJywgJzIwMCcsICctaW1hZScsICc8aW5maWxlLm1hZT4nLCAnLW9tYWUnLCAnPG91dGZpbGUubWFlPic=

>  <r_lp_tautomer_probability>  (169) 
1

>  <r_epik_Ionization_Penalty>  (169) 
0

>  <r_epik_Ionization_Penalty_Charging>  (169) 
0

>  <r_epik_Ionization_Penalty_Neutral>  (169) 
0

>  <r_epik_State_Penalty>  (169) 
-0

>  <r_epik_Charging_Adjusted_Penalty>  (169) 
0

>  <i_epik_Tot_Q>  (169) 
0

>  <i_epik_Tot_abs_Q>  (169) 
0

>  <s_lp_Force_Field>  (169) 
OPLS3e

>  <r_lp_Energy>  (169) 
131.435

>  <b_lp_Chiralities_Consistent>  (169) 
1

>  <s_lp_Variant>  (169) 
44:0-1

>  <s_i_glide_gridfile>  (169) 
pfpi4k_grid

>  <i_i_glide_lignum>  (169) 
24

>  <i_i_glide_rotatable_bonds>  (169) 
0

>  <r_i_docking_score>  (169) 
-1.67652

>  <r_i_glide_ligand_efficiency>  (169) 
-0.0453114

>  <r_i_glide_ligand_efficiency_sa>  (169) 
-0.150988

>  <r_i_glide_ligand_efficiency_ln>  (169) 
-0.363598

>  <r_i_glide_gscore>  (169) 
-1.67652

>  <r_i_glide_lipo>  (169) 
-0.142261

>  <r_i_glide_hbond>  (169) 
0

>  <r_i_glide_metal>  (169) 
-0

>  <r_i_glide_rewards>  (169) 
0

>  <r_i_glide_evdw>  (169) 
-34.7146

>  <r_i_glide_ecoul>  (169) 
1.46305

>  <r_i_glide_erotb>  (169) 
0

>  <r_i_glide_esite>  (169) 
-0.0179891

>  <r_i_glide_emodel>  (169) 
-36.4356

>  <r_i_glide_energy>  (169) 
-33.2515

>  <r_i_glide_einternal>  (169) 
0

>  <r_i_glide_intrahb_reward>  (169) 
-0

>  <i_i_glide_confnum>  (169) 
1

>  <i_i_glide_posenum>  (169) 
10

>  <r_i_glide_eff_state_penalty>  (169) 
0

>  <ligand_id>  (169) 
44

>  <original_smiles>  (169) 
C=C1C(=O)C2CC3(OOC4(CCC5(C)C(C)CCC6C5C5CCC4(C)C6CCC5C)OO3)C3CC1C2C3

>  <smiles>  (169) 
[H]C([H])=C1C(=O)C2([H])C([H])([H])C3(OOC4(OO3)C([H])([H])C([H])([H])C3(C([H])([H])[H])C([H])(C([H])([H])[H])C([H])([H])C([H])([H])C5([H])C6([H])C([H])([H])C([H])([H])C([H])(C([H])([H])[H])C([H])(C([H])([H])C([H])([H])C46C([H])([H])[H])C53[H])C3([H])C([H])([H])C1([H])C2([H])C3([H])[H]

$$$$
45:0:0
     RDKit          3D

 59 63  0  0  1  0  0  0  0  0999 V2000
    6.9088   -3.0773    0.1000 C   0  0  0  0  0  0  0  0  0  0  0  0
    5.4974   -3.7072   -0.0083 C   0  0  2  0  0  0  0  0  0  0  0  0
    4.8977   -3.5264   -1.3896 C   0  0  0  0  0  0  0  0  0  0  0  0
    5.3878   -3.3536   -2.6010 C   0  0  0  0  0  0  0  0  0  0  0  0
    4.2621   -2.9208   -3.4997 C   0  0  0  0  0  0  0  0  0  0  0  0
    3.2480   -2.4522   -2.5916 O   0  0  0  0  0  0  0  0  0  0  0  0
    3.4655   -3.1202   -1.3435 C   0  0  2  0  0  0  0  0  0  0  0  0
    3.4390   -2.2693   -0.0792 C   0  0  0  0  0  0  0  0  0  0  0  0
    4.4669   -2.9301    0.8758 C   0  0  1  0  0  0  0  0  0  0  0  0
    3.8457   -3.6906    2.0821 C   0  0  1  0  0  0  0  0  0  0  0  0
    2.6017   -4.5730    1.8431 C   0  0  0  0  0  0  0  0  0  0  0  0
    2.0461   -5.1173    3.1608 C   0  0  1  0  0  0  0  0  0  0  0  0
    0.8998   -5.8865    2.8507 O   0  0  0  0  0  0  0  0  0  0  0  0
    3.0989   -5.9289    3.9793 C   0  0  2  0  0  0  0  0  0  0  0  0
    2.4692   -6.4532    5.3064 C   0  0  1  0  0  0  0  0  0  0  0  0
    3.2494   -7.4559    5.9193 O   0  0  0  0  0  0  0  0  0  0  0  0
    2.1875   -5.3359    6.3284 C   0  0  0  0  0  0  0  0  0  0  0  0
    3.3855   -4.4034    6.5739 C   0  0  1  0  0  0  0  0  0  0  0  0
    4.2504   -5.0019    7.5119 O   0  0  0  0  0  0  0  0  0  0  0  0
    4.0859   -3.9659    5.2545 C   0  0  1  0  0  0  0  0  0  0  0  0
    5.2181   -3.1803    5.5533 O   0  0  0  0  0  0  0  0  0  0  0  0
    4.4158   -5.0943    4.2135 C   0  0  1  0  0  0  0  0  0  0  0  0
    5.5720   -5.9792    4.7605 C   0  0  0  0  0  0  0  0  0  0  0  0
    4.9238   -4.4919    2.8413 C   0  0  1  0  0  0  0  0  0  0  0  0
    5.5666   -5.5457    1.8830 C   0  0  0  0  0  0  0  0  0  0  0  0
    5.6011   -5.2116    0.3691 C   0  0  1  0  0  0  0  0  0  0  0  0
    4.6118   -5.9988   -0.2668 O   0  0  0  0  0  0  0  0  0  0  0  0
    7.2871   -3.1732    1.1178 H   0  0  0  0  0  0  0  0  0  0  0  0
    6.9026   -2.0169   -0.1416 H   0  0  0  0  0  0  0  0  0  0  0  0
    7.6336   -3.5607   -0.5549 H   0  0  0  0  0  0  0  0  0  0  0  0
    6.4152   -3.4828   -2.9371 H   0  0  0  0  0  0  0  0  0  0  0  0
    4.5550   -2.1332   -4.1958 H   0  0  0  0  0  0  0  0  0  0  0  0
    3.8840   -3.7794   -4.0707 H   0  0  0  0  0  0  0  0  0  0  0  0
    2.8570   -4.0160   -1.2491 H   0  0  0  0  0  0  0  0  0  0  0  0
    3.7752   -1.2640   -0.3249 H   0  0  0  0  0  0  0  0  0  0  0  0
    2.4383   -2.1628    0.3416 H   0  0  0  0  0  0  0  0  0  0  0  0
    5.0039   -2.1017    1.3389 H   0  0  0  0  0  0  0  0  0  0  0  0
    3.4944   -2.8857    2.7245 H   0  0  0  0  0  0  0  0  0  0  0  0
    1.8157   -3.9852    1.3686 H   0  0  0  0  0  0  0  0  0  0  0  0
    2.7984   -5.4079    1.1846 H   0  0  0  0  0  0  0  0  0  0  0  0
    1.6922   -4.2686    3.7421 H   0  0  0  0  0  0  0  0  0  0  0  0
    1.1788   -6.7659    2.6012 H   0  0  0  0  0  0  0  0  0  0  0  0
    3.3483   -6.8067    3.3816 H   0  0  0  0  0  0  0  0  0  0  0  0
    1.5169   -6.9379    5.0827 H   0  0  0  0  0  0  0  0  0  0  0  0
    3.2679   -8.2225    5.3496 H   0  0  0  0  0  0  0  0  0  0  0  0
    1.3686   -4.7361    5.9398 H   0  0  0  0  0  0  0  0  0  0  0  0
    1.8153   -5.7607    7.2662 H   0  0  0  0  0  0  0  0  0  0  0  0
    3.0052   -3.5082    7.0706 H   0  0  0  0  0  0  0  0  0  0  0  0
    4.4946   -5.8578    7.1678 H   0  0  0  0  0  0  0  0  0  0  0  0
    3.3797   -3.2797    4.7996 H   0  0  0  0  0  0  0  0  0  0  0  0
    4.9395   -2.4508    6.0959 H   0  0  0  0  0  0  0  0  0  0  0  0
    6.5251   -5.4502    4.7219 H   0  0  0  0  0  0  0  0  0  0  0  0
    5.6788   -6.9052    4.1956 H   0  0  0  0  0  0  0  0  0  0  0  0
    5.4445   -6.2801    5.7928 H   0  0  0  0  0  0  0  0  0  0  0  0
    5.7294   -3.7881    3.0772 H   0  0  0  0  0  0  0  0  0  0  0  0
    6.6023   -5.6632    2.1974 H   0  0  0  0  0  0  0  0  0  0  0  0
    5.1190   -6.5348    2.0209 H   0  0  0  0  0  0  0  0  0  0  0  0
    6.5392   -5.6056   -0.0165 H   0  0  0  0  0  0  0  0  0  0  0  0
    4.5472   -5.7536   -1.1745 H   0  0  0  0  0  0  0  0  0  0  0  0
  2  1  1  6
  1 28  1  0
  1 29  1  0
  1 30  1  0
  2  9  1  0
  2 26  1  0
  2  3  1  0
  3  7  1  0
  3  4  2  0
  4  5  1  0
  4 31  1  0
  5  6  1  0
  5 32  1  0
  5 33  1  0
  6  7  1  0
  7  8  1  0
  7 34  1  1
  8  9  1  0
  8 35  1  0
  8 36  1  0
  9 10  1  0
  9 37  1  1
 10 24  1  0
 10 11  1  0
 10 38  1  1
 11 12  1  0
 11 39  1  0
 11 40  1  0
 12 13  1  0
 12 14  1  0
 12 41  1  1
 13 42  1  0
 14 22  1  0
 14 15  1  0
 14 43  1  6
 15 16  1  0
 15 17  1  0
 15 44  1  6
 16 45  1  0
 17 18  1  0
 17 46  1  0
 17 47  1  0
 18 19  1  0
 18 20  1  0
 18 48  1  1
 19 49  1  0
 20 21  1  0
 20 22  1  0
 20 50  1  6
 21 51  1  0
 22 23  1  1
 22 24  1  0
 23 52  1  0
 23 53  1  0
 23 54  1  0
 24 25  1  0
 24 55  1  1
 25 26  1  0
 25 56  1  0
 25 57  1  0
 26 27  1  0
 26 58  1  6
 27 59  1  0
M  END
>  <i_m_ct_stereo_status>  (170) 
1

>  <s_m_source_file>  (170) 
/var/tmp/pbs.5076255.sched01/tmpp9awzhar/40nweoahkg.sdf

>  <i_m_source_file_index>  (170) 
25

>  <i_lp_mmshare_version>  (170) 
48012

>  <i_f3d_flags>  (170) 
0

>  <s_epik_input>  (170) 
W0NIM11bQ0BdMTJDPTNbQ0BIXShPW0NIMl1bQ0hdMylbQ0gyXVtDQEhdMVtDQEBIXTRbQ0BIXShbQ0gyXVtDQEhdMltPSF0pW0NAXTUoW0NIM10pW0NASF0oW0NAQEhdKFtDSDJdNClbT0hdKVtDQEBIXShbT0hdKVtDSDJdW0NAQEhdKFtPSF0pW0NASF01W09IXQ==

>  <s_epik_cmdline>  (170) 
J2VwaWtfcHl0aG9uJywgJy1waHQnLCAnMi4wJywgJy1waCcsICc3LjAnLCAnLXRuJywgJzgnLCAnLW1hJywgJzIwMCcsICctaW1hZScsICc8aW5maWxlLm1hZT4nLCAnLW9tYWUnLCAnPG91dGZpbGUubWFlPic=

>  <r_lp_tautomer_probability>  (170) 
1

>  <r_epik_Ionization_Penalty>  (170) 
2.4047e-06

>  <r_epik_Ionization_Penalty_Charging>  (170) 
0

>  <r_epik_Ionization_Penalty_Neutral>  (170) 
2.4047e-06

>  <r_epik_State_Penalty>  (170) 
-0

>  <r_epik_Charging_Adjusted_Penalty>  (170) 
0

>  <i_epik_Tot_Q>  (170) 
0

>  <i_epik_Tot_abs_Q>  (170) 
0

>  <s_lp_Force_Field>  (170) 
OPLS3e

>  <r_lp_Energy>  (170) 
40.148

>  <b_lp_Chiralities_Consistent>  (170) 
1

>  <s_lp_Variant>  (170) 
45:0-1

>  <s_i_glide_gridfile>  (170) 
pfpi4k_grid

>  <i_i_glide_lignum>  (170) 
25

>  <i_i_glide_rotatable_bonds>  (170) 
5

>  <r_i_docking_score>  (170) 
-3.82872

>  <r_i_glide_ligand_efficiency>  (170) 
-0.141805

>  <r_i_glide_ligand_efficiency_sa>  (170) 
-0.425414

>  <r_i_glide_ligand_efficiency_ln>  (170) 
-0.891264

>  <r_i_glide_gscore>  (170) 
-3.82872

>  <r_i_glide_lipo>  (170) 
-0.80997

>  <r_i_glide_hbond>  (170) 
-0.136926

>  <r_i_glide_metal>  (170) 
-0

>  <r_i_glide_rewards>  (170) 
-1.31494

>  <r_i_glide_evdw>  (170) 
-23.9765

>  <r_i_glide_ecoul>  (170) 
-2.45375

>  <r_i_glide_erotb>  (170) 
0

>  <r_i_glide_esite>  (170) 
0

>  <r_i_glide_emodel>  (170) 
-36.8817

>  <r_i_glide_energy>  (170) 
-26.4302

>  <r_i_glide_einternal>  (170) 
1.66633

>  <r_i_glide_intrahb_reward>  (170) 
-0.5

>  <i_i_glide_confnum>  (170) 
2

>  <i_i_glide_posenum>  (170) 
30

>  <r_i_glide_eff_state_penalty>  (170) 
0

>  <ligand_id>  (170) 
45

>  <original_smiles>  (170) 
CC12C3=CCOC3CC1C1CC(O)C3C(O)CC(O)C(O)C3(C)C1CC2O

>  <smiles>  (170) 
[H]OC1([H])C([H])([H])C([H])(O[H])C2([H])C([H])(O[H])C([H])([H])C3([H])C4([H])C([H])([H])C5([H])OC([H])([H])C([H])=C5C4(C([H])([H])[H])C([H])(O[H])C([H])([H])C3([H])C2(C([H])([H])[H])C1([H])O[H]

$$$$
45:0:1
     RDKit          3D

 59 63  0  0  1  0  0  0  0  0999 V2000
    3.1919   -4.2669    0.2780 C   0  0  0  0  0  0  0  0  0  0  0  0
    3.5491   -2.7992    0.6347 C   0  0  2  0  0  0  0  0  0  0  0  0
    3.8183   -1.9852   -0.6146 C   0  0  0  0  0  0  0  0  0  0  0  0
    3.4242   -2.0438   -1.8782 C   0  0  0  0  0  0  0  0  0  0  0  0
    4.2683   -1.0839   -2.6666 C   0  0  0  0  0  0  0  0  0  0  0  0
    5.4157   -0.8557   -1.8181 O   0  0  0  0  0  0  0  0  0  0  0  0
    4.9866   -1.0900   -0.4702 C   0  0  2  0  0  0  0  0  0  0  0  0
    5.9027   -1.9450    0.3989 C   0  0  0  0  0  0  0  0  0  0  0  0
    4.9415   -2.7167    1.3445 C   0  0  1  0  0  0  0  0  0  0  0  0
    4.9472   -2.2422    2.8274 C   0  0  1  0  0  0  0  0  0  0  0  0
    4.9831   -0.7255    3.1169 C   0  0  0  0  0  0  0  0  0  0  0  0
    5.1211   -0.4586    4.6242 C   0  0  1  0  0  0  0  0  0  0  0  0
    5.1587    0.9400    4.8246 O   0  0  0  0  0  0  0  0  0  0  0  0
    4.0044   -1.1276    5.4812 C   0  0  2  0  0  0  0  0  0  0  0  0
    4.2254   -0.8092    6.9891 C   0  0  1  0  0  0  0  0  0  0  0  0
    3.0576   -1.0302    7.7543 O   0  0  0  0  0  0  0  0  0  0  0  0
    5.4440   -1.5329    7.5942 C   0  0  0  0  0  0  0  0  0  0  0  0
    5.4867   -3.0382    7.2949 C   0  0  1  0  0  0  0  0  0  0  0  0
    4.6804   -3.7352    8.2239 O   0  0  0  0  0  0  0  0  0  0  0  0
    5.1565   -3.3719    5.8140 C   0  0  1  0  0  0  0  0  0  0  0  0
    5.1158   -4.7768    5.6720 O   0  0  0  0  0  0  0  0  0  0  0  0
    3.8977   -2.6706    5.1875 C   0  0  1  0  0  0  0  0  0  0  0  0
    2.6090   -3.2815    5.8081 C   0  0  0  0  0  0  0  0  0  0  0  0
    3.8022   -2.9054    3.6237 C   0  0  1  0  0  0  0  0  0  0  0  0
    2.4245   -2.5185    3.0008 C   0  0  0  0  0  0  0  0  0  0  0  0
    2.3980   -2.1901    1.4883 C   0  0  1  0  0  0  0  0  0  0  0  0
    2.2184   -0.8016    1.2902 O   0  0  0  0  0  0  0  0  0  0  0  0
    3.0723   -4.8645    1.1807 H   0  0  0  0  0  0  0  0  0  0  0  0
    3.9657   -4.7492   -0.3213 H   0  0  0  0  0  0  0  0  0  0  0  0
    2.2612   -4.3505   -0.2843 H   0  0  0  0  0  0  0  0  0  0  0  0
    2.6363   -2.6474   -2.2967 H   0  0  0  0  0  0  0  0  0  0  0  0
    4.5720   -1.4892   -3.6307 H   0  0  0  0  0  0  0  0  0  0  0  0
    3.7313   -0.1452   -2.8270 H   0  0  0  0  0  0  0  0  0  0  0  0
    4.6719   -0.1717    0.0295 H   0  0  0  0  0  0  0  0  0  0  0  0
    6.4190   -2.6679   -0.2319 H   0  0  0  0  0  0  0  0  0  0  0  0
    6.6760   -1.3721    0.9072 H   0  0  0  0  0  0  0  0  0  0  0  0
    5.3326   -3.7347    1.3907 H   0  0  0  0  0  0  0  0  0  0  0  0
    5.8890   -2.6287    3.2015 H   0  0  0  0  0  0  0  0  0  0  0  0
    5.8260   -0.2679    2.6089 H   0  0  0  0  0  0  0  0  0  0  0  0
    4.0975   -0.2192    2.7456 H   0  0  0  0  0  0  0  0  0  0  0  0
    6.0903   -0.8262    4.9476 H   0  0  0  0  0  0  0  0  0  0  0  0
    4.4041    1.3286    4.4042 H   0  0  0  0  0  0  0  0  0  0  0  0
    3.0650   -0.6509    5.1952 H   0  0  0  0  0  0  0  0  0  0  0  0
    4.4033    0.2585    7.1055 H   0  0  0  0  0  0  0  0  0  0  0  0
    3.2591   -0.8435    8.6572 H   0  0  0  0  0  0  0  0  0  0  0  0
    6.3412   -1.0896    7.1646 H   0  0  0  0  0  0  0  0  0  0  0  0
    5.5242   -1.3482    8.6679 H   0  0  0  0  0  0  0  0  0  0  0  0
    6.5020   -3.3889    7.4943 H   0  0  0  0  0  0  0  0  0  0  0  0
    4.7697   -4.6556    8.0275 H   0  0  0  0  0  0  0  0  0  0  0  0
    6.0372   -3.0485    5.2670 H   0  0  0  0  0  0  0  0  0  0  0  0
    5.0399   -4.9759    4.7527 H   0  0  0  0  0  0  0  0  0  0  0  0
    2.4226   -4.2897    5.4320 H   0  0  0  0  0  0  0  0  0  0  0  0
    1.7262   -2.6770    5.5946 H   0  0  0  0  0  0  0  0  0  0  0  0
    2.6530   -3.3662    6.8891 H   0  0  0  0  0  0  0  0  0  0  0  0
    3.8947   -3.9823    3.4532 H   0  0  0  0  0  0  0  0  0  0  0  0
    1.7588   -3.3682    3.1535 H   0  0  0  0  0  0  0  0  0  0  0  0
    1.9655   -1.6939    3.5475 H   0  0  0  0  0  0  0  0  0  0  0  0
    1.4632   -2.5861    1.1127 H   0  0  0  0  0  0  0  0  0  0  0  0
    1.6809   -0.7011    0.5024 H   0  0  0  0  0  0  0  0  0  0  0  0
  2  1  1  6
  1 28  1  0
  1 29  1  0
  1 30  1  0
  2  9  1  0
  2 26  1  0
  2  3  1  0
  3  7  1  0
  3  4  2  0
  4  5  1  0
  4 31  1  0
  5  6  1  0
  5 32  1  0
  5 33  1  0
  6  7  1  0
  7  8  1  0
  7 34  1  1
  8  9  1  0
  8 35  1  0
  8 36  1  0
  9 10  1  0
  9 37  1  1
 10 24  1  0
 10 11  1  0
 10 38  1  1
 11 12  1  0
 11 39  1  0
 11 40  1  0
 12 13  1  0
 12 14  1  0
 12 41  1  1
 13 42  1  0
 14 22  1  0
 14 15  1  0
 14 43  1  6
 15 16  1  0
 15 17  1  0
 15 44  1  6
 16 45  1  0
 17 18  1  0
 17 46  1  0
 17 47  1  0
 18 19  1  0
 18 20  1  0
 18 48  1  1
 19 49  1  0
 20 21  1  0
 20 22  1  0
 20 50  1  6
 21 51  1  0
 22 23  1  1
 22 24  1  0
 23 52  1  0
 23 53  1  0
 23 54  1  0
 24 25  1  0
 24 55  1  1
 25 26  1  0
 25 56  1  0
 25 57  1  0
 26 27  1  0
 26 58  1  6
 27 59  1  0
M  END
>  <i_m_ct_stereo_status>  (171) 
1

>  <s_m_source_file>  (171) 
/var/tmp/pbs.5076255.sched01/tmpp9awzhar/40nweoahkg.sdf

>  <i_m_source_file_index>  (171) 
25

>  <i_lp_mmshare_version>  (171) 
48012

>  <i_f3d_flags>  (171) 
0

>  <s_epik_input>  (171) 
W0NIM11bQ0BdMTJDPTNbQ0BIXShPW0NIMl1bQ0hdMylbQ0gyXVtDQEhdMVtDQEBIXTRbQ0BIXShbQ0gyXVtDQEhdMltPSF0pW0NAXTUoW0NIM10pW0NASF0oW0NAQEhdKFtDSDJdNClbT0hdKVtDQEBIXShbT0hdKVtDSDJdW0NAQEhdKFtPSF0pW0NASF01W09IXQ==

>  <s_epik_cmdline>  (171) 
J2VwaWtfcHl0aG9uJywgJy1waHQnLCAnMi4wJywgJy1waCcsICc3LjAnLCAnLXRuJywgJzgnLCAnLW1hJywgJzIwMCcsICctaW1hZScsICc8aW5maWxlLm1hZT4nLCAnLW9tYWUnLCAnPG91dGZpbGUubWFlPic=

>  <r_lp_tautomer_probability>  (171) 
1

>  <r_epik_Ionization_Penalty>  (171) 
2.4047e-06

>  <r_epik_Ionization_Penalty_Charging>  (171) 
0

>  <r_epik_Ionization_Penalty_Neutral>  (171) 
2.4047e-06

>  <r_epik_State_Penalty>  (171) 
-0

>  <r_epik_Charging_Adjusted_Penalty>  (171) 
0

>  <i_epik_Tot_Q>  (171) 
0

>  <i_epik_Tot_abs_Q>  (171) 
0

>  <s_lp_Force_Field>  (171) 
OPLS3e

>  <r_lp_Energy>  (171) 
40.148

>  <b_lp_Chiralities_Consistent>  (171) 
1

>  <s_lp_Variant>  (171) 
45:0-1

>  <s_i_glide_gridfile>  (171) 
pfpi4k_grid

>  <i_i_glide_lignum>  (171) 
25

>  <i_i_glide_rotatable_bonds>  (171) 
5

>  <r_i_docking_score>  (171) 
-3.22029

>  <r_i_glide_ligand_efficiency>  (171) 
-0.11927

>  <r_i_glide_ligand_efficiency_sa>  (171) 
-0.35781

>  <r_i_glide_ligand_efficiency_ln>  (171) 
-0.74963

>  <r_i_glide_gscore>  (171) 
-3.22029

>  <r_i_glide_lipo>  (171) 
-0.359769

>  <r_i_glide_hbond>  (171) 
-0.169305

>  <r_i_glide_metal>  (171) 
-0

>  <r_i_glide_rewards>  (171) 
-0.814942

>  <r_i_glide_evdw>  (171) 
-19.8669

>  <r_i_glide_ecoul>  (171) 
-5.88617

>  <r_i_glide_erotb>  (171) 
0

>  <r_i_glide_esite>  (171) 
0

>  <r_i_glide_emodel>  (171) 
-29.9194

>  <r_i_glide_energy>  (171) 
-25.7531

>  <r_i_glide_einternal>  (171) 
1.92553

>  <r_i_glide_intrahb_reward>  (171) 
-0

>  <i_i_glide_confnum>  (171) 
2

>  <i_i_glide_posenum>  (171) 
33

>  <r_i_glide_eff_state_penalty>  (171) 
0

>  <ligand_id>  (171) 
45

>  <original_smiles>  (171) 
CC12C3=CCOC3CC1C1CC(O)C3C(O)CC(O)C(O)C3(C)C1CC2O

>  <smiles>  (171) 
[H]OC1([H])C([H])([H])C([H])(O[H])C2([H])C([H])(O[H])C([H])([H])C3([H])C4([H])C([H])([H])C5([H])OC([H])([H])C([H])=C5C4(C([H])([H])[H])C([H])(O[H])C([H])([H])C3([H])C2(C([H])([H])[H])C1([H])O[H]

$$$$
45:0:2
     RDKit          3D

 59 63  0  0  1  0  0  0  0  0999 V2000
    6.9844   -3.0421    0.0461 C   0  0  0  0  0  0  0  0  0  0  0  0
    5.5522   -3.6405    0.0090 C   0  0  2  0  0  0  0  0  0  0  0  0
    4.9243   -3.5259   -1.3666 C   0  0  0  0  0  0  0  0  0  0  0  0
    5.3990   -3.4423   -2.5955 C   0  0  0  0  0  0  0  0  0  0  0  0
    4.2692   -3.0336   -3.4988 C   0  0  0  0  0  0  0  0  0  0  0  0
    3.2851   -2.4787   -2.6073 O   0  0  0  0  0  0  0  0  0  0  0  0
    3.5103   -3.0694   -1.3203 C   0  0  2  0  0  0  0  0  0  0  0  0
    3.5468   -2.1348   -0.1150 C   0  0  0  0  0  0  0  0  0  0  0  0
    4.5694   -2.7707    0.8596 C   0  0  1  0  0  0  0  0  0  0  0  0
    3.9449   -3.4255    2.1271 C   0  0  1  0  0  0  0  0  0  0  0  0
    2.6674   -4.2728    1.9712 C   0  0  0  0  0  0  0  0  0  0  0  0
    2.1366   -4.7185    3.3408 C   0  0  1  0  0  0  0  0  0  0  0  0
    0.9966   -5.5023    3.0815 O   0  0  0  0  0  0  0  0  0  0  0  0
    3.1768   -5.5091    4.1893 C   0  0  2  0  0  0  0  0  0  0  0  0
    2.5580   -5.9212    5.5598 C   0  0  1  0  0  0  0  0  0  0  0  0
    3.2690   -6.9519    6.1996 O   0  0  0  0  0  0  0  0  0  0  0  0
    2.3367   -4.7274    6.5081 C   0  0  0  0  0  0  0  0  0  0  0  0
    3.5610   -3.8169    6.6671 C   0  0  1  0  0  0  0  0  0  0  0  0
    4.4291   -4.3340    7.6510 O   0  0  0  0  0  0  0  0  0  0  0  0
    4.2491   -3.4946    5.3085 C   0  0  1  0  0  0  0  0  0  0  0  0
    5.4151   -2.7427    5.5480 O   0  0  0  0  0  0  0  0  0  0  0  0
    4.5190   -4.7021    4.3370 C   0  0  1  0  0  0  0  0  0  0  0  0
    5.6611   -5.5851    4.9210 C   0  0  0  0  0  0  0  0  0  0  0  0
    5.0072   -4.2131    2.9125 C   0  0  1  0  0  0  0  0  0  0  0  0
    5.6053   -5.3457    2.0197 C   0  0  0  0  0  0  0  0  0  0  0  0
    5.6285   -5.1194    0.4838 C   0  0  1  0  0  0  0  0  0  0  0  0
    4.6106   -5.9168   -0.0721 O   0  0  0  0  0  0  0  0  0  0  0  0
    7.3832   -3.0829    1.0628 H   0  0  0  0  0  0  0  0  0  0  0  0
    7.0026   -2.0003   -0.2660 H   0  0  0  0  0  0  0  0  0  0  0  0
    7.6812   -3.5908   -0.5910 H   0  0  0  0  0  0  0  0  0  0  0  0
    6.4156   -3.6222   -2.9409 H   0  0  0  0  0  0  0  0  0  0  0  0
    4.5710   -2.3074   -4.2523 H   0  0  0  0  0  0  0  0  0  0  0  0
    3.8545   -3.9152   -4.0052 H   0  0  0  0  0  0  0  0  0  0  0  0
    2.8758   -3.9394   -1.1565 H   0  0  0  0  0  0  0  0  0  0  0  0
    3.9148   -1.1633   -0.4403 H   0  0  0  0  0  0  0  0  0  0  0  0
    2.5650   -1.9563    0.3190 H   0  0  0  0  0  0  0  0  0  0  0  0
    5.1417   -1.9296    1.2567 H   0  0  0  0  0  0  0  0  0  0  0  0
    3.6344   -2.5610    2.7190 H   0  0  0  0  0  0  0  0  0  0  0  0
    1.8933   -3.6923    1.4754 H   0  0  0  0  0  0  0  0  0  0  0  0
    2.8269   -5.1560    1.3666 H   0  0  0  0  0  0  0  0  0  0  0  0
    1.8044   -3.8283    3.8746 H   0  0  0  0  0  0  0  0  0  0  0  0
    0.6570   -5.8053    3.9178 H   0  0  0  0  0  0  0  0  0  0  0  0
    3.3816   -6.4283    3.6421 H   0  0  0  0  0  0  0  0  0  0  0  0
    1.5859   -6.3808    5.3818 H   0  0  0  0  0  0  0  0  0  0  0  0
    4.1742   -6.6853    6.3135 H   0  0  0  0  0  0  0  0  0  0  0  0
    1.5261   -4.1290    6.0985 H   0  0  0  0  0  0  0  0  0  0  0  0
    1.9683   -5.0753    7.4789 H   0  0  0  0  0  0  0  0  0  0  0  0
    3.2092   -2.8763    7.0963 H   0  0  0  0  0  0  0  0  0  0  0  0
    4.8031   -5.1491    7.3401 H   0  0  0  0  0  0  0  0  0  0  0  0
    3.5631   -2.8116    4.8186 H   0  0  0  0  0  0  0  0  0  0  0  0
    5.1804   -1.9922    6.0776 H   0  0  0  0  0  0  0  0  0  0  0  0
    6.6246   -5.0921    4.8176 H   0  0  0  0  0  0  0  0  0  0  0  0
    5.7252   -6.5476    4.4158 H   0  0  0  0  0  0  0  0  0  0  0  0
    5.5545   -5.8049    5.9760 H   0  0  0  0  0  0  0  0  0  0  0  0
    5.8194   -3.5093    3.0852 H   0  0  0  0  0  0  0  0  0  0  0  0
    6.6449   -5.4742    2.3250 H   0  0  0  0  0  0  0  0  0  0  0  0
    5.1309   -6.3049    2.2293 H   0  0  0  0  0  0  0  0  0  0  0  0
    6.5444   -5.5595    0.0997 H   0  0  0  0  0  0  0  0  0  0  0  0
    4.6024   -5.7971   -1.0102 H   0  0  0  0  0  0  0  0  0  0  0  0
  2  1  1  6
  1 28  1  0
  1 29  1  0
  1 30  1  0
  2  9  1  0
  2 26  1  0
  2  3  1  0
  3  7  1  0
  3  4  2  0
  4  5  1  0
  4 31  1  0
  5  6  1  0
  5 32  1  0
  5 33  1  0
  6  7  1  0
  7  8  1  0
  7 34  1  1
  8  9  1  0
  8 35  1  0
  8 36  1  0
  9 10  1  0
  9 37  1  1
 10 24  1  0
 10 11  1  0
 10 38  1  1
 11 12  1  0
 11 39  1  0
 11 40  1  0
 12 13  1  0
 12 14  1  0
 12 41  1  1
 13 42  1  0
 14 22  1  0
 14 15  1  0
 14 43  1  6
 15 16  1  0
 15 17  1  0
 15 44  1  6
 16 45  1  0
 17 18  1  0
 17 46  1  0
 17 47  1  0
 18 19  1  0
 18 20  1  0
 18 48  1  1
 19 49  1  0
 20 21  1  0
 20 22  1  0
 20 50  1  6
 21 51  1  0
 22 23  1  1
 22 24  1  0
 23 52  1  0
 23 53  1  0
 23 54  1  0
 24 25  1  0
 24 55  1  1
 25 26  1  0
 25 56  1  0
 25 57  1  0
 26 27  1  0
 26 58  1  6
 27 59  1  0
M  END
>  <i_m_ct_stereo_status>  (172) 
1

>  <s_m_source_file>  (172) 
/var/tmp/pbs.5076255.sched01/tmpp9awzhar/40nweoahkg.sdf

>  <i_m_source_file_index>  (172) 
25

>  <i_lp_mmshare_version>  (172) 
48012

>  <i_f3d_flags>  (172) 
0

>  <s_epik_input>  (172) 
W0NIM11bQ0BdMTJDPTNbQ0BIXShPW0NIMl1bQ0hdMylbQ0gyXVtDQEhdMVtDQEBIXTRbQ0BIXShbQ0gyXVtDQEhdMltPSF0pW0NAXTUoW0NIM10pW0NASF0oW0NAQEhdKFtDSDJdNClbT0hdKVtDQEBIXShbT0hdKVtDSDJdW0NAQEhdKFtPSF0pW0NASF01W09IXQ==

>  <s_epik_cmdline>  (172) 
J2VwaWtfcHl0aG9uJywgJy1waHQnLCAnMi4wJywgJy1waCcsICc3LjAnLCAnLXRuJywgJzgnLCAnLW1hJywgJzIwMCcsICctaW1hZScsICc8aW5maWxlLm1hZT4nLCAnLW9tYWUnLCAnPG91dGZpbGUubWFlPic=

>  <r_lp_tautomer_probability>  (172) 
1

>  <r_epik_Ionization_Penalty>  (172) 
2.4047e-06

>  <r_epik_Ionization_Penalty_Charging>  (172) 
0

>  <r_epik_Ionization_Penalty_Neutral>  (172) 
2.4047e-06

>  <r_epik_State_Penalty>  (172) 
-0

>  <r_epik_Charging_Adjusted_Penalty>  (172) 
0

>  <i_epik_Tot_Q>  (172) 
0

>  <i_epik_Tot_abs_Q>  (172) 
0

>  <s_lp_Force_Field>  (172) 
OPLS3e

>  <r_lp_Energy>  (172) 
40.148

>  <b_lp_Chiralities_Consistent>  (172) 
1

>  <s_lp_Variant>  (172) 
45:0-1

>  <s_i_glide_gridfile>  (172) 
pfpi4k_grid

>  <i_i_glide_lignum>  (172) 
25

>  <i_i_glide_rotatable_bonds>  (172) 
5

>  <r_i_docking_score>  (172) 
-3.08231

>  <r_i_glide_ligand_efficiency>  (172) 
-0.11416

>  <r_i_glide_ligand_efficiency_sa>  (172) 
-0.342479

>  <r_i_glide_ligand_efficiency_ln>  (172) 
-0.717511

>  <r_i_glide_gscore>  (172) 
-3.08231

>  <r_i_glide_lipo>  (172) 
-0.775693

>  <r_i_glide_hbond>  (172) 
-0.0741306

>  <r_i_glide_metal>  (172) 
-0

>  <r_i_glide_rewards>  (172) 
-0.814942

>  <r_i_glide_evdw>  (172) 
-24.538

>  <r_i_glide_ecoul>  (172) 
-1.27097

>  <r_i_glide_erotb>  (172) 
0

>  <r_i_glide_esite>  (172) 
0

>  <r_i_glide_emodel>  (172) 
-30.3178

>  <r_i_glide_energy>  (172) 
-25.809

>  <r_i_glide_einternal>  (172) 
1.14194

>  <r_i_glide_intrahb_reward>  (172) 
-0

>  <i_i_glide_confnum>  (172) 
2

>  <i_i_glide_posenum>  (172) 
1

>  <r_i_glide_eff_state_penalty>  (172) 
0

>  <ligand_id>  (172) 
45

>  <original_smiles>  (172) 
CC12C3=CCOC3CC1C1CC(O)C3C(O)CC(O)C(O)C3(C)C1CC2O

>  <smiles>  (172) 
[H]OC1([H])C([H])([H])C([H])(O[H])C2([H])C([H])(O[H])C([H])([H])C3([H])C4([H])C([H])([H])C5([H])OC([H])([H])C([H])=C5C4(C([H])([H])[H])C([H])(O[H])C([H])([H])C3([H])C2(C([H])([H])[H])C1([H])O[H]

$$$$
48:0:0
     RDKit          3D

 25 27  0  0  1  0  0  0  0  0999 V2000
    2.9263   -2.4715   -2.9853 C   0  0  0  0  0  0  0  0  0  0  0  0
    3.7288   -3.3287   -3.7568 C   0  0  0  0  0  0  0  0  0  0  0  0
    5.0435   -3.5743   -3.5045 N   0  0  0  0  0  0  0  0  0  0  0  0
    5.5779   -2.9887   -2.4256 C   0  0  0  0  0  0  0  0  0  0  0  0
    6.8953   -3.0530   -1.9101 C   0  0  0  0  0  0  0  0  0  0  0  0
    7.0400   -2.2748   -0.8462 N   0  0  0  0  0  0  0  0  0  0  0  0
    5.7952   -1.7338   -0.6238 N   0  0  0  0  0  0  0  0  0  0  0  0
    5.6384   -0.8167    0.5034 C   0  0  0  0  0  0  0  0  0  0  0  0
    4.6559   -1.3202    1.5547 C   0  0  0  0  0  0  0  0  0  0  0  0
    3.2613   -1.1439    1.4371 C   0  0  0  0  0  0  0  0  0  0  0  0
    2.4647   -1.7025    2.4475 C   0  0  0  0  0  0  0  0  0  0  0  0
    3.0051   -2.2998    3.5279 N   0  0  0  0  0  0  0  0  0  0  0  0
    4.3362   -2.3433    3.5787 C   0  0  0  0  0  0  0  0  0  0  0  0
    5.1903   -1.9124    2.6456 N   0  0  0  0  0  0  0  0  0  0  0  0
    4.8620   -2.1081   -1.5900 C   0  0  0  0  0  0  0  0  0  0  0  0
    3.5086   -1.8176   -1.8916 C   0  0  0  0  0  0  0  0  0  0  0  0
    1.8836   -2.2937   -3.2306 H   0  0  0  0  0  0  0  0  0  0  0  0
    3.3138   -3.8093   -4.6233 H   0  0  0  0  0  0  0  0  0  0  0  0
    7.6938   -3.6292   -2.3456 H   0  0  0  0  0  0  0  0  0  0  0  0
    6.6136   -0.6201    0.9634 H   0  0  0  0  0  0  0  0  0  0  0  0
    5.2698    0.1296    0.1158 H   0  0  0  0  0  0  0  0  0  0  0  0
    2.7747   -0.6056    0.6413 H   0  0  0  0  0  0  0  0  0  0  0  0
    1.3877   -1.6503    2.3910 H   0  0  0  0  0  0  0  0  0  0  0  0
    4.7628   -2.7820    4.4703 H   0  0  0  0  0  0  0  0  0  0  0  0
    2.9309   -1.0957   -1.3359 H   0  0  0  0  0  0  0  0  0  0  0  0
  1 16  2  0
  1  2  1  0
  1 17  1  0
  2  3  2  0
  2 18  1  0
  3  4  1  0
  4 15  2  0
  4  5  1  0
  5  6  2  0
  5 19  1  0
  6  7  1  0
  7  8  1  0
  7 15  1  0
  8  9  1  0
  8 20  1  0
  8 21  1  0
  9 14  1  0
  9 10  2  0
 10 11  1  0
 10 22  1  0
 11 12  2  0
 11 23  1  0
 12 13  1  0
 13 14  2  0
 13 24  1  0
 15 16  1  0
 16 25  1  0
M  END
>  <i_m_ct_stereo_status>  (173) 
1

>  <s_m_source_file>  (173) 
/var/tmp/pbs.5076255.sched01/tmpp9awzhar/40nweoahkg.sdf

>  <i_m_source_file_index>  (173) 
29

>  <i_lp_mmshare_version>  (173) 
48012

>  <i_f3d_flags>  (173) 
0

>  <s_epik_input>  (173) 
bjFbY0hdW2NIXVtjSF1jKGMxMiluKG5bY0hdMilbQ0gyXWMzW2NIXVtjSF1uW2NIXW4z

>  <s_epik_cmdline>  (173) 
J2VwaWtfcHl0aG9uJywgJy1waHQnLCAnMi4wJywgJy1waCcsICc3LjAnLCAnLXRuJywgJzgnLCAnLW1hJywgJzIwMCcsICctaW1hZScsICc8aW5maWxlLm1hZT4nLCAnLW9tYWUnLCAnPG91dGZpbGUubWFlPic=

>  <r_lp_tautomer_probability>  (173) 
1

>  <r_epik_Ionization_Penalty>  (173) 
1.90875e-06

>  <r_epik_Ionization_Penalty_Charging>  (173) 
0

>  <r_epik_Ionization_Penalty_Neutral>  (173) 
1.90875e-06

>  <r_epik_State_Penalty>  (173) 
-0

>  <r_epik_Charging_Adjusted_Penalty>  (173) 
0

>  <i_epik_Tot_Q>  (173) 
0

>  <i_epik_Tot_abs_Q>  (173) 
0

>  <s_epik_Chemistry_Notes>  (173) 
This compound contains an electron-poor aromatic ring that is susceptible to covalent hydrolysis at low pH, typically resulting in measured values for nitrogen ring protonation that are around two units higher than predicted values.

>  <s_lp_Force_Field>  (173) 
OPLS3e

>  <r_lp_Energy>  (173) 
22.6444

>  <b_lp_Chiralities_Consistent>  (173) 
1

>  <s_lp_Variant>  (173) 
48:0-1

>  <s_i_glide_gridfile>  (173) 
pfpi4k_grid

>  <i_i_glide_lignum>  (173) 
29

>  <i_i_glide_rotatable_bonds>  (173) 
2

>  <r_i_docking_score>  (173) 
-3.79512

>  <r_i_glide_ligand_efficiency>  (173) 
-0.237195

>  <r_i_glide_ligand_efficiency_sa>  (173) 
-0.597694

>  <r_i_glide_ligand_efficiency_ln>  (173) 
-1.00597

>  <r_i_glide_gscore>  (173) 
-3.79512

>  <r_i_glide_lipo>  (173) 
-0.500412

>  <r_i_glide_hbond>  (173) 
-0.16

>  <r_i_glide_metal>  (173) 
-0

>  <r_i_glide_rewards>  (173) 
-1.98732

>  <r_i_glide_evdw>  (173) 
-22.9092

>  <r_i_glide_ecoul>  (173) 
-4.68255

>  <r_i_glide_erotb>  (173) 
0.745391

>  <r_i_glide_esite>  (173) 
-0.0449348

>  <r_i_glide_emodel>  (173) 
-33.7734

>  <r_i_glide_energy>  (173) 
-27.5917

>  <r_i_glide_einternal>  (173) 
0.303268

>  <r_i_glide_intrahb_reward>  (173) 
-0

>  <i_i_glide_confnum>  (173) 
6

>  <i_i_glide_posenum>  (173) 
38

>  <r_i_glide_eff_state_penalty>  (173) 
0

>  <ligand_id>  (173) 
48

>  <original_smiles>  (173) 
c1cnc2cnn(Cc3ccncn3)c2c1

>  <smiles>  (173) 
[H]c1nc([H])c([H])c(C([H])([H])n2nc([H])c3nc([H])c([H])c([H])c32)n1

$$$$
48:0:1
     RDKit          3D

 25 27  0  0  1  0  0  0  0  0999 V2000
    2.9446   -2.3231   -2.9290 C   0  0  0  0  0  0  0  0  0  0  0  0
    3.7235   -3.1771   -3.7316 C   0  0  0  0  0  0  0  0  0  0  0  0
    5.0245   -3.4788   -3.5005 N   0  0  0  0  0  0  0  0  0  0  0  0
    5.5845   -2.9343   -2.4085 C   0  0  0  0  0  0  0  0  0  0  0  0
    6.8961   -3.0514   -1.9011 C   0  0  0  0  0  0  0  0  0  0  0  0
    7.0639   -2.3001   -0.8239 N   0  0  0  0  0  0  0  0  0  0  0  0
    5.8387   -1.7267   -0.5905 N   0  0  0  0  0  0  0  0  0  0  0  0
    5.6974   -0.8142    0.5297 C   0  0  0  0  0  0  0  0  0  0  0  0
    4.7194   -1.3250    1.5705 C   0  0  0  0  0  0  0  0  0  0  0  0
    5.0541   -2.3905    2.4274 C   0  0  0  0  0  0  0  0  0  0  0  0
    4.0813   -2.7585    3.3746 C   0  0  0  0  0  0  0  0  0  0  0  0
    2.8928   -2.1291    3.4535 N   0  0  0  0  0  0  0  0  0  0  0  0
    2.6835   -1.1323    2.5912 C   0  0  0  0  0  0  0  0  0  0  0  0
    3.5313   -0.6940    1.6600 N   0  0  0  0  0  0  0  0  0  0  0  0
    4.8846   -2.0661   -1.5478 C   0  0  0  0  0  0  0  0  0  0  0  0
    3.5449   -1.7446   -1.7965 C   0  0  0  0  0  0  0  0  0  0  0  0
    1.9127   -2.1250   -3.1776 H   0  0  0  0  0  0  0  0  0  0  0  0
    3.2916   -3.6315   -4.6100 H   0  0  0  0  0  0  0  0  0  0  0  0
    7.6885   -3.6330   -2.3480 H   0  0  0  0  0  0  0  0  0  0  0  0
    6.6660   -0.6519    1.0048 H   0  0  0  0  0  0  0  0  0  0  0  0
    5.3580    0.1446    0.1373 H   0  0  0  0  0  0  0  0  0  0  0  0
    6.0056   -2.8935    2.3649 H   0  0  0  0  0  0  0  0  0  0  0  0
    4.2560   -3.5631    4.0768 H   0  0  0  0  0  0  0  0  0  0  0  0
    1.7331   -0.6297    2.6689 H   0  0  0  0  0  0  0  0  0  0  0  0
    3.0086   -1.0763   -1.1474 H   0  0  0  0  0  0  0  0  0  0  0  0
  1 16  2  0
  1  2  1  0
  1 17  1  0
  2  3  2  0
  2 18  1  0
  3  4  1  0
  4 15  2  0
  4  5  1  0
  5  6  2  0
  5 19  1  0
  6  7  1  0
  7  8  1  0
  7 15  1  0
  8  9  1  0
  8 20  1  0
  8 21  1  0
  9 14  1  0
  9 10  2  0
 10 11  1  0
 10 22  1  0
 11 12  2  0
 11 23  1  0
 12 13  1  0
 13 14  2  0
 13 24  1  0
 15 16  1  0
 16 25  1  0
M  END
>  <i_m_ct_stereo_status>  (174) 
1

>  <s_m_source_file>  (174) 
/var/tmp/pbs.5076255.sched01/tmpp9awzhar/40nweoahkg.sdf

>  <i_m_source_file_index>  (174) 
29

>  <i_lp_mmshare_version>  (174) 
48012

>  <i_f3d_flags>  (174) 
0

>  <s_epik_input>  (174) 
bjFbY0hdW2NIXVtjSF1jKGMxMiluKG5bY0hdMilbQ0gyXWMzW2NIXVtjSF1uW2NIXW4z

>  <s_epik_cmdline>  (174) 
J2VwaWtfcHl0aG9uJywgJy1waHQnLCAnMi4wJywgJy1waCcsICc3LjAnLCAnLXRuJywgJzgnLCAnLW1hJywgJzIwMCcsICctaW1hZScsICc8aW5maWxlLm1hZT4nLCAnLW9tYWUnLCAnPG91dGZpbGUubWFlPic=

>  <r_lp_tautomer_probability>  (174) 
1

>  <r_epik_Ionization_Penalty>  (174) 
1.90875e-06

>  <r_epik_Ionization_Penalty_Charging>  (174) 
0

>  <r_epik_Ionization_Penalty_Neutral>  (174) 
1.90875e-06

>  <r_epik_State_Penalty>  (174) 
-0

>  <r_epik_Charging_Adjusted_Penalty>  (174) 
0

>  <i_epik_Tot_Q>  (174) 
0

>  <i_epik_Tot_abs_Q>  (174) 
0

>  <s_epik_Chemistry_Notes>  (174) 
This compound contains an electron-poor aromatic ring that is susceptible to covalent hydrolysis at low pH, typically resulting in measured values for nitrogen ring protonation that are around two units higher than predicted values.

>  <s_lp_Force_Field>  (174) 
OPLS3e

>  <r_lp_Energy>  (174) 
22.6444

>  <b_lp_Chiralities_Consistent>  (174) 
1

>  <s_lp_Variant>  (174) 
48:0-1

>  <s_i_glide_gridfile>  (174) 
pfpi4k_grid

>  <i_i_glide_lignum>  (174) 
29

>  <i_i_glide_rotatable_bonds>  (174) 
2

>  <r_i_docking_score>  (174) 
-3.63687

>  <r_i_glide_ligand_efficiency>  (174) 
-0.227305

>  <r_i_glide_ligand_efficiency_sa>  (174) 
-0.572772

>  <r_i_glide_ligand_efficiency_ln>  (174) 
-0.964026

>  <r_i_glide_gscore>  (174) 
-3.63687

>  <r_i_glide_lipo>  (174) 
-0.557234

>  <r_i_glide_hbond>  (174) 
-0.16

>  <r_i_glide_metal>  (174) 
-0

>  <r_i_glide_rewards>  (174) 
-1.96894

>  <r_i_glide_evdw>  (174) 
-23.122

>  <r_i_glide_ecoul>  (174) 
-3.23579

>  <r_i_glide_erotb>  (174) 
0.745391

>  <r_i_glide_esite>  (174) 
-0.054627

>  <r_i_glide_emodel>  (174) 
-32.7411

>  <r_i_glide_energy>  (174) 
-26.3578

>  <r_i_glide_einternal>  (174) 
0.34948

>  <r_i_glide_intrahb_reward>  (174) 
-0

>  <i_i_glide_confnum>  (174) 
6

>  <i_i_glide_posenum>  (174) 
23

>  <r_i_glide_eff_state_penalty>  (174) 
0

>  <ligand_id>  (174) 
48

>  <original_smiles>  (174) 
c1cnc2cnn(Cc3ccncn3)c2c1

>  <smiles>  (174) 
[H]c1nc([H])c([H])c(C([H])([H])n2nc([H])c3nc([H])c([H])c([H])c32)n1

$$$$
48:0:2
     RDKit          3D

 25 27  0  0  1  0  0  0  0  0999 V2000
    3.8050   -0.5214   -3.1329 C   0  0  0  0  0  0  0  0  0  0  0  0
    3.5851   -1.6654   -3.9256 C   0  0  0  0  0  0  0  0  0  0  0  0
    3.9601   -2.9255   -3.5916 N   0  0  0  0  0  0  0  0  0  0  0  0
    4.5382   -3.0782   -2.3874 C   0  0  0  0  0  0  0  0  0  0  0  0
    5.0161   -4.2373   -1.7478 C   0  0  0  0  0  0  0  0  0  0  0  0
    5.5363   -3.9634   -0.5629 N   0  0  0  0  0  0  0  0  0  0  0  0
    5.3999   -2.6045   -0.4261 N   0  0  0  0  0  0  0  0  0  0  0  0
    5.9351   -1.9635    0.7615 C   0  0  0  0  0  0  0  0  0  0  0  0
    4.8693   -1.7110    1.8082 C   0  0  0  0  0  0  0  0  0  0  0  0
    4.6532   -2.6228    2.8594 C   0  0  0  0  0  0  0  0  0  0  0  0
    3.6726   -2.2691    3.8031 C   0  0  0  0  0  0  0  0  0  0  0  0
    2.9756   -1.1240    3.7020 N   0  0  0  0  0  0  0  0  0  0  0  0
    3.2633   -0.3349    2.6680 C   0  0  0  0  0  0  0  0  0  0  0  0
    4.1759   -0.5585    1.7203 N   0  0  0  0  0  0  0  0  0  0  0  0
    4.7845   -2.0003   -1.5191 C   0  0  0  0  0  0  0  0  0  0  0  0
    4.4211   -0.7011   -1.8859 C   0  0  0  0  0  0  0  0  0  0  0  0
    3.4963    0.4591   -3.4759 H   0  0  0  0  0  0  0  0  0  0  0  0
    3.1085   -1.5575   -4.8866 H   0  0  0  0  0  0  0  0  0  0  0  0
    5.0126   -5.2186   -2.1965 H   0  0  0  0  0  0  0  0  0  0  0  0
    6.7208   -2.5894    1.1874 H   0  0  0  0  0  0  0  0  0  0  0  0
    6.3943   -1.0194    0.4658 H   0  0  0  0  0  0  0  0  0  0  0  0
    5.2168   -3.5411    2.9423 H   0  0  0  0  0  0  0  0  0  0  0  0
    3.4460   -2.9079    4.6457 H   0  0  0  0  0  0  0  0  0  0  0  0
    2.7042    0.5872    2.6069 H   0  0  0  0  0  0  0  0  0  0  0  0
    4.6139    0.1262   -1.2238 H   0  0  0  0  0  0  0  0  0  0  0  0
  1 16  2  0
  1  2  1  0
  1 17  1  0
  2  3  2  0
  2 18  1  0
  3  4  1  0
  4 15  2  0
  4  5  1  0
  5  6  2  0
  5 19  1  0
  6  7  1  0
  7  8  1  0
  7 15  1  0
  8  9  1  0
  8 20  1  0
  8 21  1  0
  9 14  1  0
  9 10  2  0
 10 11  1  0
 10 22  1  0
 11 12  2  0
 11 23  1  0
 12 13  1  0
 13 14  2  0
 13 24  1  0
 15 16  1  0
 16 25  1  0
M  END
>  <i_m_ct_stereo_status>  (175) 
1

>  <s_m_source_file>  (175) 
/var/tmp/pbs.5076255.sched01/tmpp9awzhar/40nweoahkg.sdf

>  <i_m_source_file_index>  (175) 
29

>  <i_lp_mmshare_version>  (175) 
48012

>  <i_f3d_flags>  (175) 
0

>  <s_epik_input>  (175) 
bjFbY0hdW2NIXVtjSF1jKGMxMiluKG5bY0hdMilbQ0gyXWMzW2NIXVtjSF1uW2NIXW4z

>  <s_epik_cmdline>  (175) 
J2VwaWtfcHl0aG9uJywgJy1waHQnLCAnMi4wJywgJy1waCcsICc3LjAnLCAnLXRuJywgJzgnLCAnLW1hJywgJzIwMCcsICctaW1hZScsICc8aW5maWxlLm1hZT4nLCAnLW9tYWUnLCAnPG91dGZpbGUubWFlPic=

>  <r_lp_tautomer_probability>  (175) 
1

>  <r_epik_Ionization_Penalty>  (175) 
1.90875e-06

>  <r_epik_Ionization_Penalty_Charging>  (175) 
0

>  <r_epik_Ionization_Penalty_Neutral>  (175) 
1.90875e-06

>  <r_epik_State_Penalty>  (175) 
-0

>  <r_epik_Charging_Adjusted_Penalty>  (175) 
0

>  <i_epik_Tot_Q>  (175) 
0

>  <i_epik_Tot_abs_Q>  (175) 
0

>  <s_epik_Chemistry_Notes>  (175) 
This compound contains an electron-poor aromatic ring that is susceptible to covalent hydrolysis at low pH, typically resulting in measured values for nitrogen ring protonation that are around two units higher than predicted values.

>  <s_lp_Force_Field>  (175) 
OPLS3e

>  <r_lp_Energy>  (175) 
22.6444

>  <b_lp_Chiralities_Consistent>  (175) 
1

>  <s_lp_Variant>  (175) 
48:0-1

>  <s_i_glide_gridfile>  (175) 
pfpi4k_grid

>  <i_i_glide_lignum>  (175) 
29

>  <i_i_glide_rotatable_bonds>  (175) 
2

>  <r_i_docking_score>  (175) 
-2.96891

>  <r_i_glide_ligand_efficiency>  (175) 
-0.185557

>  <r_i_glide_ligand_efficiency_sa>  (175) 
-0.467574

>  <r_i_glide_ligand_efficiency_ln>  (175) 
-0.786969

>  <r_i_glide_gscore>  (175) 
-2.96891

>  <r_i_glide_lipo>  (175) 
-0.464724

>  <r_i_glide_hbond>  (175) 
0

>  <r_i_glide_metal>  (175) 
-0

>  <r_i_glide_rewards>  (175) 
-1.96894

>  <r_i_glide_evdw>  (175) 
-20.0919

>  <r_i_glide_ecoul>  (175) 
-1.80899

>  <r_i_glide_erotb>  (175) 
0.745391

>  <r_i_glide_esite>  (175) 
-0.00469971

>  <r_i_glide_emodel>  (175) 
-27.137

>  <r_i_glide_energy>  (175) 
-21.9009

>  <r_i_glide_einternal>  (175) 
0.176506

>  <r_i_glide_intrahb_reward>  (175) 
-0

>  <i_i_glide_confnum>  (175) 
2

>  <i_i_glide_posenum>  (175) 
18

>  <r_i_glide_eff_state_penalty>  (175) 
0

>  <ligand_id>  (175) 
48

>  <original_smiles>  (175) 
c1cnc2cnn(Cc3ccncn3)c2c1

>  <smiles>  (175) 
[H]c1nc([H])c([H])c(C([H])([H])n2nc([H])c3nc([H])c([H])c([H])c32)n1

$$$$
49:0:0
     RDKit          3D

 25 27  0  0  1  0  0  0  0  0999 V2000
    3.2706    0.6996   -5.6245 C   0  0  0  0  0  0  0  0  0  0  0  0
    2.4542   -0.0991   -4.6190 C   0  0  0  0  0  0  0  0  0  0  0  0
    3.2858   -0.9742   -3.8231 N   0  0  0  0  0  0  0  0  0  0  0  0
    3.8357   -2.1153   -4.2867 N   0  0  0  0  0  0  0  0  0  0  0  0
    4.6100   -2.5459   -3.3369 N   0  0  0  0  0  0  0  0  0  0  0  0
    4.4558   -1.6573   -2.3146 C   0  0  0  0  0  0  0  0  0  0  0  0
    5.1053   -1.8206   -1.0163 C   0  0  0  0  0  0  0  0  0  0  0  0
    6.3026   -2.3953   -0.8540 N   0  0  0  0  0  0  0  0  0  0  0  0
    6.6610   -2.3346    0.4806 N   0  0  0  0  0  0  0  0  0  0  0  0
    5.6531   -1.7613    1.1384 C   0  0  0  0  0  0  0  0  0  0  0  0
    5.4193   -1.4643    2.5093 C   0  0  0  0  0  0  0  0  0  0  0  0
    4.2518   -0.8476    2.8933 C   0  0  0  0  0  0  0  0  0  0  0  0
    3.2809   -0.5146    1.9245 C   0  0  0  0  0  0  0  0  0  0  0  0
    3.4912   -0.8093    0.5988 C   0  0  0  0  0  0  0  0  0  0  0  0
    4.6546   -1.4109    0.2146 N   0  0  0  0  0  0  0  0  0  0  0  0
    3.6358   -0.6598   -2.5683 N   0  0  0  0  0  0  0  0  0  0  0  0
    2.6205    1.3486   -6.2097 H   0  0  0  0  0  0  0  0  0  0  0  0
    3.7910    0.0280   -6.3049 H   0  0  0  0  0  0  0  0  0  0  0  0
    4.0045    1.3144   -5.1077 H   0  0  0  0  0  0  0  0  0  0  0  0
    1.9110    0.5466   -3.9459 H   0  0  0  0  0  0  0  0  0  0  0  0
    1.6774   -0.6562   -5.1216 H   0  0  0  0  0  0  0  0  0  0  0  0
    6.1707   -1.7274    3.2411 H   0  0  0  0  0  0  0  0  0  0  0  0
    4.0778   -0.6224    3.9422 H   0  0  0  0  0  0  0  0  0  0  0  0
    2.3516   -0.0372    2.2143 H   0  0  0  0  0  0  0  0  0  0  0  0
    2.7461   -0.6080   -0.1601 H   0  0  0  0  0  0  0  0  0  0  0  0
  1  2  1  0
  1 17  1  0
  1 18  1  0
  1 19  1  0
  2  3  1  0
  2 20  1  0
  2 21  1  0
  3 16  1  0
  3  4  1  0
  4  5  2  0
  5  6  1  0
  6  7  1  0
  6 16  2  0
  7 15  1  0
  7  8  2  0
  8  9  1  0
  9 10  2  0
 10 15  1  0
 10 11  1  0
 11 12  2  0
 11 22  1  0
 12 13  1  0
 12 23  1  0
 13 14  2  0
 13 24  1  0
 14 15  1  0
 14 25  1  0
M  END
>  <i_m_ct_stereo_status>  (176) 
1

>  <s_m_source_file>  (176) 
/var/tmp/pbs.5076255.sched01/tmpp9awzhar/40nweoahkg.sdf

>  <i_m_source_file_index>  (176) 
30

>  <i_lp_mmshare_version>  (176) 
48012

>  <i_f3d_flags>  (176) 
0

>  <s_epik_input>  (176) 
W0NIM11bQ0gyXW4xbm5jKG4xKS1jKG5uMiluKGMyMylbY0hdW2NIXVtjSF1bY0hdMw==

>  <s_epik_cmdline>  (176) 
J2VwaWtfcHl0aG9uJywgJy1waHQnLCAnMi4wJywgJy1waCcsICc3LjAnLCAnLXRuJywgJzgnLCAnLW1hJywgJzIwMCcsICctaW1hZScsICc8aW5maWxlLm1hZT4nLCAnLW9tYWUnLCAnPG91dGZpbGUubWFlPic=

>  <r_lp_tautomer_probability>  (176) 
1

>  <r_epik_Ionization_Penalty>  (176) 
1.00765e-07

>  <r_epik_Ionization_Penalty_Charging>  (176) 
0

>  <r_epik_Ionization_Penalty_Neutral>  (176) 
1.00765e-07

>  <r_epik_State_Penalty>  (176) 
-0

>  <r_epik_Charging_Adjusted_Penalty>  (176) 
0

>  <i_epik_Tot_Q>  (176) 
0

>  <i_epik_Tot_abs_Q>  (176) 
0

>  <s_lp_Force_Field>  (176) 
OPLS3e

>  <r_lp_Energy>  (176) 
15.523

>  <b_lp_Chiralities_Consistent>  (176) 
1

>  <s_lp_Variant>  (176) 
49:0-1

>  <s_i_glide_gridfile>  (176) 
pfpi4k_grid

>  <i_i_glide_lignum>  (176) 
30

>  <i_i_glide_rotatable_bonds>  (176) 
2

>  <r_i_docking_score>  (176) 
-4.46768

>  <r_i_glide_ligand_efficiency>  (176) 
-0.27923

>  <r_i_glide_ligand_efficiency_sa>  (176) 
-0.703616

>  <r_i_glide_ligand_efficiency_ln>  (176) 
-1.18425

>  <r_i_glide_gscore>  (176) 
-4.46768

>  <r_i_glide_lipo>  (176) 
-0.507847

>  <r_i_glide_hbond>  (176) 
0

>  <r_i_glide_metal>  (176) 
-0

>  <r_i_glide_rewards>  (176) 
-2.36949

>  <r_i_glide_evdw>  (176) 
-25.0147

>  <r_i_glide_ecoul>  (176) 
-3.76175

>  <r_i_glide_erotb>  (176) 
0.36115

>  <r_i_glide_esite>  (176) 
-0.136495

>  <r_i_glide_emodel>  (176) 
-36.6017

>  <r_i_glide_energy>  (176) 
-28.7764

>  <r_i_glide_einternal>  (176) 
2.07503

>  <r_i_glide_intrahb_reward>  (176) 
-0

>  <i_i_glide_confnum>  (176) 
4

>  <i_i_glide_posenum>  (176) 
5

>  <r_i_glide_eff_state_penalty>  (176) 
0

>  <ligand_id>  (176) 
49

>  <original_smiles>  (176) 
CCn1nnc(-c2nnc3ccccn23)n1

>  <smiles>  (176) 
[H]c1c([H])c([H])n2c(-c3nnn(C([H])([H])C([H])([H])[H])n3)nnc2c1[H]

$$$$
49:0:1
     RDKit          3D

 25 27  0  0  1  0  0  0  0  0999 V2000
    4.6810   -3.6104   -1.7462 C   0  0  0  0  0  0  0  0  0  0  0  0
    3.7551   -3.4562   -0.5313 C   0  0  0  0  0  0  0  0  0  0  0  0
    3.4512   -4.7302    0.0909 N   0  0  0  0  0  0  0  0  0  0  0  0
    4.4028   -5.6323    0.4237 N   0  0  0  0  0  0  0  0  0  0  0  0
    3.7837   -6.6072    1.0044 N   0  0  0  0  0  0  0  0  0  0  0  0
    2.4699   -6.2375    1.0426 C   0  0  0  0  0  0  0  0  0  0  0  0
    1.4065   -7.0607    1.6313 C   0  0  0  0  0  0  0  0  0  0  0  0
    0.1315   -6.6594    1.7382 N   0  0  0  0  0  0  0  0  0  0  0  0
   -0.6111   -7.6401    2.3605 N   0  0  0  0  0  0  0  0  0  0  0  0
    0.2122   -8.6602    2.6124 C   0  0  0  0  0  0  0  0  0  0  0  0
    0.0379   -9.9340    3.2184 C   0  0  0  0  0  0  0  0  0  0  0  0
    1.1075  -10.7888    3.3459 C   0  0  0  0  0  0  0  0  0  0  0  0
    2.3841  -10.4018    2.8789 C   0  0  0  0  0  0  0  0  0  0  0  0
    2.5676   -9.1748    2.2939 C   0  0  0  0  0  0  0  0  0  0  0  0
    1.5027   -8.3219    2.1643 N   0  0  0  0  0  0  0  0  0  0  0  0
    2.2110   -5.0644    0.4883 N   0  0  0  0  0  0  0  0  0  0  0  0
    4.8910   -2.6404   -2.1938 H   0  0  0  0  0  0  0  0  0  0  0  0
    4.2214   -4.2409   -2.5061 H   0  0  0  0  0  0  0  0  0  0  0  0
    5.6320   -4.0629   -1.4675 H   0  0  0  0  0  0  0  0  0  0  0  0
    4.2210   -2.8231    0.2259 H   0  0  0  0  0  0  0  0  0  0  0  0
    2.8206   -2.9738   -0.8287 H   0  0  0  0  0  0  0  0  0  0  0  0
   -0.9412  -10.2319    3.5792 H   0  0  0  0  0  0  0  0  0  0  0  0
    0.9752  -11.7674    3.8015 H   0  0  0  0  0  0  0  0  0  0  0  0
    3.2337  -11.0719    2.9634 H   0  0  0  0  0  0  0  0  0  0  0  0
    3.5368   -8.8683    1.9227 H   0  0  0  0  0  0  0  0  0  0  0  0
  1  2  1  0
  1 17  1  0
  1 18  1  0
  1 19  1  0
  2  3  1  0
  2 20  1  0
  2 21  1  0
  3 16  1  0
  3  4  1  0
  4  5  2  0
  5  6  1  0
  6  7  1  0
  6 16  2  0
  7 15  1  0
  7  8  2  0
  8  9  1  0
  9 10  2  0
 10 15  1  0
 10 11  1  0
 11 12  2  0
 11 22  1  0
 12 13  1  0
 12 23  1  0
 13 14  2  0
 13 24  1  0
 14 15  1  0
 14 25  1  0
M  END
>  <i_m_ct_stereo_status>  (177) 
1

>  <s_m_source_file>  (177) 
/var/tmp/pbs.5076255.sched01/tmpp9awzhar/40nweoahkg.sdf

>  <i_m_source_file_index>  (177) 
30

>  <i_lp_mmshare_version>  (177) 
48012

>  <i_f3d_flags>  (177) 
0

>  <s_epik_input>  (177) 
W0NIM11bQ0gyXW4xbm5jKG4xKS1jKG5uMiluKGMyMylbY0hdW2NIXVtjSF1bY0hdMw==

>  <s_epik_cmdline>  (177) 
J2VwaWtfcHl0aG9uJywgJy1waHQnLCAnMi4wJywgJy1waCcsICc3LjAnLCAnLXRuJywgJzgnLCAnLW1hJywgJzIwMCcsICctaW1hZScsICc8aW5maWxlLm1hZT4nLCAnLW9tYWUnLCAnPG91dGZpbGUubWFlPic=

>  <r_lp_tautomer_probability>  (177) 
1

>  <r_epik_Ionization_Penalty>  (177) 
1.00765e-07

>  <r_epik_Ionization_Penalty_Charging>  (177) 
0

>  <r_epik_Ionization_Penalty_Neutral>  (177) 
1.00765e-07

>  <r_epik_State_Penalty>  (177) 
-0

>  <r_epik_Charging_Adjusted_Penalty>  (177) 
0

>  <i_epik_Tot_Q>  (177) 
0

>  <i_epik_Tot_abs_Q>  (177) 
0

>  <s_lp_Force_Field>  (177) 
OPLS3e

>  <r_lp_Energy>  (177) 
15.523

>  <b_lp_Chiralities_Consistent>  (177) 
1

>  <s_lp_Variant>  (177) 
49:0-1

>  <s_i_glide_gridfile>  (177) 
pfpi4k_grid

>  <i_i_glide_lignum>  (177) 
30

>  <i_i_glide_rotatable_bonds>  (177) 
2

>  <r_i_docking_score>  (177) 
-4.09442

>  <r_i_glide_ligand_efficiency>  (177) 
-0.255901

>  <r_i_glide_ligand_efficiency_sa>  (177) 
-0.64483

>  <r_i_glide_ligand_efficiency_ln>  (177) 
-1.08531

>  <r_i_glide_gscore>  (177) 
-4.09442

>  <r_i_glide_lipo>  (177) 
-0.244932

>  <r_i_glide_hbond>  (177) 
-0.0196867

>  <r_i_glide_metal>  (177) 
-0

>  <r_i_glide_rewards>  (177) 
-1.94172

>  <r_i_glide_evdw>  (177) 
-22.7678

>  <r_i_glide_ecoul>  (177) 
-5.26186

>  <r_i_glide_erotb>  (177) 
0.36115

>  <r_i_glide_esite>  (177) 
-0.321561

>  <r_i_glide_emodel>  (177) 
-36.21

>  <r_i_glide_energy>  (177) 
-28.0297

>  <r_i_glide_einternal>  (177) 
0.386013

>  <r_i_glide_intrahb_reward>  (177) 
-0

>  <i_i_glide_confnum>  (177) 
2

>  <i_i_glide_posenum>  (177) 
1

>  <r_i_glide_eff_state_penalty>  (177) 
0

>  <ligand_id>  (177) 
49

>  <original_smiles>  (177) 
CCn1nnc(-c2nnc3ccccn23)n1

>  <smiles>  (177) 
[H]c1c([H])c([H])n2c(-c3nnn(C([H])([H])C([H])([H])[H])n3)nnc2c1[H]

$$$$
49:0:2
     RDKit          3D

 25 27  0  0  1  0  0  0  0  0999 V2000
    6.6151  -10.4629    1.5680 C   0  0  0  0  0  0  0  0  0  0  0  0
    6.6527   -9.1756    2.4015 C   0  0  0  0  0  0  0  0  0  0  0  0
    5.6025   -8.2705    1.9907 N   0  0  0  0  0  0  0  0  0  0  0  0
    5.8114   -7.1387    1.2798 N   0  0  0  0  0  0  0  0  0  0  0  0
    4.6345   -6.6440    1.0472 N   0  0  0  0  0  0  0  0  0  0  0  0
    3.7576   -7.4951    1.6548 C   0  0  0  0  0  0  0  0  0  0  0  0
    2.3026   -7.3060    1.6159 C   0  0  0  0  0  0  0  0  0  0  0  0
    1.6968   -6.2566    1.0432 N   0  0  0  0  0  0  0  0  0  0  0  0
    0.3282   -6.3772    1.1877 N   0  0  0  0  0  0  0  0  0  0  0  0
    0.1013   -7.5126    1.8456 C   0  0  0  0  0  0  0  0  0  0  0  0
   -1.0864   -8.1522    2.2845 C   0  0  0  0  0  0  0  0  0  0  0  0
   -1.0006   -9.3538    2.9400 C   0  0  0  0  0  0  0  0  0  0  0  0
    0.2551   -9.9450    3.1973 C   0  0  0  0  0  0  0  0  0  0  0  0
    1.4073   -9.3311    2.7865 C   0  0  0  0  0  0  0  0  0  0  0  0
    1.3324   -8.1336    2.1248 N   0  0  0  0  0  0  0  0  0  0  0  0
    4.3179   -8.5215    2.2667 N   0  0  0  0  0  0  0  0  0  0  0  0
    7.4045  -11.1532    1.8719 H   0  0  0  0  0  0  0  0  0  0  0  0
    6.7373  -10.2357    0.5095 H   0  0  0  0  0  0  0  0  0  0  0  0
    5.6641  -10.9806    1.6833 H   0  0  0  0  0  0  0  0  0  0  0  0
    6.5074   -9.4094    3.4574 H   0  0  0  0  0  0  0  0  0  0  0  0
    7.6147   -8.6702    2.3114 H   0  0  0  0  0  0  0  0  0  0  0  0
   -2.0534   -7.7087    2.0856 H   0  0  0  0  0  0  0  0  0  0  0  0
   -1.9041   -9.8555    3.2727 H   0  0  0  0  0  0  0  0  0  0  0  0
    0.3190  -10.8911    3.7256 H   0  0  0  0  0  0  0  0  0  0  0  0
    2.3763   -9.7787    2.9704 H   0  0  0  0  0  0  0  0  0  0  0  0
  1  2  1  0
  1 17  1  0
  1 18  1  0
  1 19  1  0
  2  3  1  0
  2 20  1  0
  2 21  1  0
  3 16  1  0
  3  4  1  0
  4  5  2  0
  5  6  1  0
  6  7  1  0
  6 16  2  0
  7 15  1  0
  7  8  2  0
  8  9  1  0
  9 10  2  0
 10 15  1  0
 10 11  1  0
 11 12  2  0
 11 22  1  0
 12 13  1  0
 12 23  1  0
 13 14  2  0
 13 24  1  0
 14 15  1  0
 14 25  1  0
M  END
>  <i_m_ct_stereo_status>  (178) 
1

>  <s_m_source_file>  (178) 
/var/tmp/pbs.5076255.sched01/tmpp9awzhar/40nweoahkg.sdf

>  <i_m_source_file_index>  (178) 
30

>  <i_lp_mmshare_version>  (178) 
48012

>  <i_f3d_flags>  (178) 
0

>  <s_epik_input>  (178) 
W0NIM11bQ0gyXW4xbm5jKG4xKS1jKG5uMiluKGMyMylbY0hdW2NIXVtjSF1bY0hdMw==

>  <s_epik_cmdline>  (178) 
J2VwaWtfcHl0aG9uJywgJy1waHQnLCAnMi4wJywgJy1waCcsICc3LjAnLCAnLXRuJywgJzgnLCAnLW1hJywgJzIwMCcsICctaW1hZScsICc8aW5maWxlLm1hZT4nLCAnLW9tYWUnLCAnPG91dGZpbGUubWFlPic=

>  <r_lp_tautomer_probability>  (178) 
1

>  <r_epik_Ionization_Penalty>  (178) 
1.00765e-07

>  <r_epik_Ionization_Penalty_Charging>  (178) 
0

>  <r_epik_Ionization_Penalty_Neutral>  (178) 
1.00765e-07

>  <r_epik_State_Penalty>  (178) 
-0

>  <r_epik_Charging_Adjusted_Penalty>  (178) 
0

>  <i_epik_Tot_Q>  (178) 
0

>  <i_epik_Tot_abs_Q>  (178) 
0

>  <s_lp_Force_Field>  (178) 
OPLS3e

>  <r_lp_Energy>  (178) 
15.523

>  <b_lp_Chiralities_Consistent>  (178) 
1

>  <s_lp_Variant>  (178) 
49:0-1

>  <s_i_glide_gridfile>  (178) 
pfpi4k_grid

>  <i_i_glide_lignum>  (178) 
30

>  <i_i_glide_rotatable_bonds>  (178) 
2

>  <r_i_docking_score>  (178) 
-3.66826

>  <r_i_glide_ligand_efficiency>  (178) 
-0.229266

>  <r_i_glide_ligand_efficiency_sa>  (178) 
-0.577715

>  <r_i_glide_ligand_efficiency_ln>  (178) 
-0.972346

>  <r_i_glide_gscore>  (178) 
-3.66826

>  <r_i_glide_lipo>  (178) 
-0.0753797

>  <r_i_glide_hbond>  (178) 
0

>  <r_i_glide_metal>  (178) 
-0

>  <r_i_glide_rewards>  (178) 
-2.06741

>  <r_i_glide_evdw>  (178) 
-20.7312

>  <r_i_glide_ecoul>  (178) 
-3.83993

>  <r_i_glide_erotb>  (178) 
0.36115

>  <r_i_glide_esite>  (178) 
-0.274067

>  <r_i_glide_emodel>  (178) 
-31.8605

>  <r_i_glide_energy>  (178) 
-24.5712

>  <r_i_glide_einternal>  (178) 
0.17042

>  <r_i_glide_intrahb_reward>  (178) 
-0

>  <i_i_glide_confnum>  (178) 
1

>  <i_i_glide_posenum>  (178) 
31

>  <r_i_glide_eff_state_penalty>  (178) 
0

>  <ligand_id>  (178) 
49

>  <original_smiles>  (178) 
CCn1nnc(-c2nnc3ccccn23)n1

>  <smiles>  (178) 
[H]c1c([H])c([H])n2c(-c3nnn(C([H])([H])C([H])([H])[H])n3)nnc2c1[H]

$$$$
50:0:0
     RDKit          3D

 48 52  0  0  1  0  0  0  0  0999 V2000
    5.2600   -6.0860    4.1254 C   0  0  0  0  0  0  0  0  0  0  0  0
    4.5516   -5.6227    2.8423 C   0  0  2  0  0  0  0  0  0  0  0  0
    4.9015   -6.5474    1.6573 C   0  0  0  0  0  0  0  0  0  0  0  0
    4.1444   -6.1711    0.3671 C   0  0  0  0  0  0  0  0  0  0  0  0
    4.1368   -4.6613    0.0370 C   0  0  2  0  0  0  0  0  0  0  0  0
    5.4415   -4.0722   -0.5637 C   0  0  1  0  0  0  0  0  0  0  0  0
    5.4223   -3.9638   -2.1062 C   0  0  0  0  0  0  0  0  0  0  0  0
    4.6039   -2.8132   -2.6582 C   0  0  0  0  0  0  0  0  0  0  0  0
    4.9586   -1.4827   -2.3809 C   0  0  0  0  0  0  0  0  0  0  0  0
    4.1461   -0.4579   -2.8751 C   0  0  0  0  0  0  0  0  0  0  0  0
    3.0162   -0.7919   -3.6347 C   0  0  0  0  0  0  0  0  0  0  0  0
    2.6820   -2.0629   -3.9195 N   0  0  0  0  0  0  0  0  0  0  0  0
    3.4586   -3.0516   -3.4479 C   0  0  0  0  0  0  0  0  0  0  0  0
    5.6214   -2.7893    0.0778 O   0  0  0  0  0  0  0  0  0  0  0  0
    4.3585   -2.4601    0.6378 C   0  0  2  0  0  0  0  0  0  0  0  0
    4.1125   -1.4707    1.7657 C   0  0  2  0  0  0  0  0  0  0  0  0
    4.0643   -0.0015    1.3115 C   0  0  0  0  0  0  0  0  0  0  0  0
    5.0384   -1.6987    2.9733 C   0  0  0  0  0  0  0  0  0  0  0  0
    4.8818   -3.1225    3.5443 C   0  0  0  0  0  0  0  0  0  0  0  0
    4.8926   -4.1791    2.4272 C   0  0  2  0  0  0  0  0  0  0  0  0
    3.9673   -3.7608    1.2502 C   0  0  2  0  0  0  0  0  0  0  0  0
    2.6793   -3.3857    1.6920 O   0  0  0  0  0  0  0  0  0  0  0  0
    2.8069   -1.9190    2.1433 O   0  0  0  0  0  0  0  0  0  0  0  0
    6.3458   -6.0026    4.0410 H   0  0  0  0  0  0  0  0  0  0  0  0
    5.0182   -7.1288    4.3424 H   0  0  0  0  0  0  0  0  0  0  0  0
    4.9376   -5.4996    4.9879 H   0  0  0  0  0  0  0  0  0  0  0  0
    3.4776   -5.6848    3.0230 H   0  0  0  0  0  0  0  0  0  0  0  0
    5.9766   -6.5141    1.4693 H   0  0  0  0  0  0  0  0  0  0  0  0
    4.6716   -7.5849    1.9118 H   0  0  0  0  0  0  0  0  0  0  0  0
    4.5536   -6.7325   -0.4762 H   0  0  0  0  0  0  0  0  0  0  0  0
    3.1116   -6.5042    0.4782 H   0  0  0  0  0  0  0  0  0  0  0  0
    3.3224   -4.4764   -0.6658 H   0  0  0  0  0  0  0  0  0  0  0  0
    6.2853   -4.7113   -0.2902 H   0  0  0  0  0  0  0  0  0  0  0  0
    6.4359   -3.8283   -2.4804 H   0  0  0  0  0  0  0  0  0  0  0  0
    5.0519   -4.8944   -2.5349 H   0  0  0  0  0  0  0  0  0  0  0  0
    5.8250   -1.2437   -1.7850 H   0  0  0  0  0  0  0  0  0  0  0  0
    4.3624    0.5751   -2.6433 H   0  0  0  0  0  0  0  0  0  0  0  0
    2.3717   -0.0136   -4.0210 H   0  0  0  0  0  0  0  0  0  0  0  0
    3.1460   -4.0539   -3.7054 H   0  0  0  0  0  0  0  0  0  0  0  0
    3.6697   -2.2129   -0.1697 H   0  0  0  0  0  0  0  0  0  0  0  0
    5.0405    0.3510    0.9844 H   0  0  0  0  0  0  0  0  0  0  0  0
    3.7312    0.6403    2.1262 H   0  0  0  0  0  0  0  0  0  0  0  0
    3.3701    0.1279    0.4834 H   0  0  0  0  0  0  0  0  0  0  0  0
    6.0707   -1.5178    2.6743 H   0  0  0  0  0  0  0  0  0  0  0  0
    4.8060   -0.9743    3.7544 H   0  0  0  0  0  0  0  0  0  0  0  0
    5.7034   -3.3055    4.2364 H   0  0  0  0  0  0  0  0  0  0  0  0
    3.9555   -3.1949    4.1153 H   0  0  0  0  0  0  0  0  0  0  0  0
    5.9236   -4.2023    2.0814 H   0  0  0  0  0  0  0  0  0  0  0  0
  1  2  1  0
  1 24  1  0
  1 25  1  0
  1 26  1  0
  2 20  1  0
  2  3  1  0
  2 27  1  1
  3  4  1  0
  3 28  1  0
  3 29  1  0
  4  5  1  0
  4 30  1  0
  4 31  1  0
  5 21  1  0
  5  6  1  0
  5 32  1  6
  6  7  1  0
  6 14  1  0
  6 33  1  6
  7  8  1  0
  7 34  1  0
  7 35  1  0
  8 13  1  0
  8  9  2  0
  9 10  1  0
  9 36  1  0
 10 11  2  0
 10 37  1  0
 11 12  1  0
 11 38  1  0
 12 13  2  0
 13 39  1  0
 14 15  1  0
 15 21  1  0
 15 16  1  0
 15 40  1  6
 16 23  1  0
 16 17  1  6
 16 18  1  0
 17 41  1  0
 17 42  1  0
 17 43  1  0
 18 19  1  0
 18 44  1  0
 18 45  1  0
 19 20  1  0
 19 46  1  0
 19 47  1  0
 20 21  1  0
 20 48  1  6
 21 22  1  1
 22 23  1  0
M  END
>  <i_m_ct_stereo_status>  (179) 
1

>  <s_m_source_file>  (179) 
/var/tmp/pbs.5076255.sched01/tmpp9awzhar/40nweoahkg.sdf

>  <i_m_source_file_index>  (179) 
31

>  <i_lp_mmshare_version>  (179) 
48012

>  <i_f3d_flags>  (179) 
0

>  <s_epik_input>  (179) 
W0NAQF0xMjNbQ0BASF00W0NIMl1bQ0gyXVtDQEBIXShbQ0gzXSlbQ0BASF0yW0NIMl1bQ0gyXVtDQF0oW0NIM10pKE9PMylbQ0BIXTFPW0NAQEhdNFtDSDJdYzVbY0hdW2NIXVtjSF1uW2NIXTU=

>  <s_epik_cmdline>  (179) 
J2VwaWtfcHl0aG9uJywgJy1waHQnLCAnMi4wJywgJy1waCcsICc3LjAnLCAnLXRuJywgJzgnLCAnLW1hJywgJzIwMCcsICctaW1hZScsICc8aW5maWxlLm1hZT4nLCAnLW9tYWUnLCAnPG91dGZpbGUubWFlPic=

>  <r_epik_Ionization_Penalty>  (179) 
0.0327219

>  <r_epik_Ionization_Penalty_Charging>  (179) 
0

>  <r_epik_Ionization_Penalty_Neutral>  (179) 
0.0327219

>  <r_epik_State_Penalty>  (179) 
0.0271231

>  <r_epik_Charging_Adjusted_Penalty>  (179) 
0.0271231

>  <i_epik_Tot_Q>  (179) 
0

>  <i_epik_Tot_abs_Q>  (179) 
0

>  <s_lp_Force_Field>  (179) 
OPLS3e

>  <r_lp_Energy>  (179) 
37.6869

>  <b_lp_Chiralities_Consistent>  (179) 
1

>  <s_lp_Variant>  (179) 
50:0-1

>  <s_i_glide_gridfile>  (179) 
pfpi4k_grid

>  <i_i_glide_lignum>  (179) 
31

>  <i_i_glide_rotatable_bonds>  (179) 
2

>  <r_i_docking_score>  (179) 
-3.22068

>  <r_i_glide_ligand_efficiency>  (179) 
-0.14003

>  <r_i_glide_ligand_efficiency_sa>  (179) 
-0.398225

>  <r_i_glide_ligand_efficiency_ln>  (179) 
-0.77879

>  <r_i_glide_gscore>  (179) 
-3.22068

>  <r_i_glide_lipo>  (179) 
-1.1428

>  <r_i_glide_hbond>  (179) 
0

>  <r_i_glide_metal>  (179) 
-0

>  <r_i_glide_rewards>  (179) 
-1.25859

>  <r_i_glide_evdw>  (179) 
-23.5346

>  <r_i_glide_ecoul>  (179) 
-0.110265

>  <r_i_glide_erotb>  (179) 
0.373983

>  <r_i_glide_esite>  (179) 
0

>  <r_i_glide_emodel>  (179) 
-27.4224

>  <r_i_glide_energy>  (179) 
-23.6449

>  <r_i_glide_einternal>  (179) 
2.14034

>  <r_i_glide_intrahb_reward>  (179) 
-0

>  <i_i_glide_confnum>  (179) 
3

>  <i_i_glide_posenum>  (179) 
14

>  <r_i_glide_eff_state_penalty>  (179) 
0

>  <ligand_id>  (179) 
50

>  <original_smiles>  (179) 
CC1CCC2C(Cc3cccnc3)OC3C4(C)CCC1C23OO4

>  <smiles>  (179) 
[H]c1nc([H])c(C([H])([H])C2([H])OC3([H])C4(C([H])([H])[H])OOC35C2([H])C([H])([H])C([H])([H])C([H])(C([H])([H])[H])C5([H])C([H])([H])C4([H])[H])c([H])c1[H]

$$$$
50:0:1
     RDKit          3D

 48 52  0  0  1  0  0  0  0  0999 V2000
    5.2457   -6.0770    4.1799 C   0  0  0  0  0  0  0  0  0  0  0  0
    4.5369   -5.6335    2.8892 C   0  0  2  0  0  0  0  0  0  0  0  0
    4.9199   -6.5500    1.7087 C   0  0  0  0  0  0  0  0  0  0  0  0
    4.1671   -6.1958    0.4093 C   0  0  0  0  0  0  0  0  0  0  0  0
    4.1226   -4.6856    0.0749 C   0  0  2  0  0  0  0  0  0  0  0  0
    5.4182   -4.0607   -0.5145 C   0  0  1  0  0  0  0  0  0  0  0  0
    5.4123   -3.9550   -2.0565 C   0  0  0  0  0  0  0  0  0  0  0  0
    4.5765   -2.8148   -2.6085 C   0  0  0  0  0  0  0  0  0  0  0  0
    3.3958   -3.0667   -3.3342 C   0  0  0  0  0  0  0  0  0  0  0  0
    2.6403   -1.9810   -3.7896 C   0  0  0  0  0  0  0  0  0  0  0  0
    3.0849   -0.6789   -3.5002 C   0  0  0  0  0  0  0  0  0  0  0  0
    4.2194   -0.4261   -2.8212 N   0  0  0  0  0  0  0  0  0  0  0  0
    4.9392   -1.4746   -2.3822 C   0  0  0  0  0  0  0  0  0  0  0  0
    5.5536   -2.7668    0.1172 O   0  0  0  0  0  0  0  0  0  0  0  0
    4.2771   -2.4734    0.6694 C   0  0  2  0  0  0  0  0  0  0  0  0
    3.9961   -1.4933    1.7986 C   0  0  2  0  0  0  0  0  0  0  0  0
    3.9097   -0.0259    1.3453 C   0  0  0  0  0  0  0  0  0  0  0  0
    4.9144   -1.6981    3.0182 C   0  0  0  0  0  0  0  0  0  0  0  0
    4.7953   -3.1235    3.5900 C   0  0  0  0  0  0  0  0  0  0  0  0
    4.8417   -4.1801    2.4739 C   0  0  2  0  0  0  0  0  0  0  0  0
    3.9211   -3.7870    1.2834 C   0  0  2  0  0  0  0  0  0  0  0  0
    2.6170   -3.4480    1.7162 O   0  0  0  0  0  0  0  0  0  0  0  0
    2.6997   -1.9823    2.1622 O   0  0  0  0  0  0  0  0  0  0  0  0
    6.3295   -5.9646    4.1052 H   0  0  0  0  0  0  0  0  0  0  0  0
    5.0313   -7.1255    4.3968 H   0  0  0  0  0  0  0  0  0  0  0  0
    4.9011   -5.4991    5.0393 H   0  0  0  0  0  0  0  0  0  0  0  0
    3.4629   -5.7249    3.0616 H   0  0  0  0  0  0  0  0  0  0  0  0
    5.9961   -6.4890    1.5314 H   0  0  0  0  0  0  0  0  0  0  0  0
    4.7174   -7.5929    1.9633 H   0  0  0  0  0  0  0  0  0  0  0  0
    4.5982   -6.7471   -0.4273 H   0  0  0  0  0  0  0  0  0  0  0  0
    3.1422   -6.5564    0.5074 H   0  0  0  0  0  0  0  0  0  0  0  0
    3.3073   -4.5231   -0.6309 H   0  0  0  0  0  0  0  0  0  0  0  0
    6.2749   -4.6714   -0.2245 H   0  0  0  0  0  0  0  0  0  0  0  0
    6.4295   -3.8235   -2.4254 H   0  0  0  0  0  0  0  0  0  0  0  0
    5.0480   -4.8910   -2.4811 H   0  0  0  0  0  0  0  0  0  0  0  0
    3.0642   -4.0740   -3.5345 H   0  0  0  0  0  0  0  0  0  0  0  0
    1.7150   -2.1430   -4.3177 H   0  0  0  0  0  0  0  0  0  0  0  0
    2.5249    0.1836   -3.8220 H   0  0  0  0  0  0  0  0  0  0  0  0
    5.8381   -1.2272   -1.8339 H   0  0  0  0  0  0  0  0  0  0  0  0
    3.5911   -2.2426   -0.1462 H   0  0  0  0  0  0  0  0  0  0  0  0
    4.8813    0.3536    1.0308 H   0  0  0  0  0  0  0  0  0  0  0  0
    3.5470    0.6069    2.1547 H   0  0  0  0  0  0  0  0  0  0  0  0
    3.2233    0.0892    0.5075 H   0  0  0  0  0  0  0  0  0  0  0  0
    5.9450   -1.4891    2.7300 H   0  0  0  0  0  0  0  0  0  0  0  0
    4.6558   -0.9797    3.7962 H   0  0  0  0  0  0  0  0  0  0  0  0
    5.6130   -3.2850    4.2908 H   0  0  0  0  0  0  0  0  0  0  0  0
    3.8661   -3.2215    4.1538 H   0  0  0  0  0  0  0  0  0  0  0  0
    5.8785   -4.1755    2.1357 H   0  0  0  0  0  0  0  0  0  0  0  0
  1  2  1  0
  1 24  1  0
  1 25  1  0
  1 26  1  0
  2 20  1  0
  2  3  1  0
  2 27  1  1
  3  4  1  0
  3 28  1  0
  3 29  1  0
  4  5  1  0
  4 30  1  0
  4 31  1  0
  5 21  1  0
  5  6  1  0
  5 32  1  6
  6  7  1  0
  6 14  1  0
  6 33  1  6
  7  8  1  0
  7 34  1  0
  7 35  1  0
  8 13  1  0
  8  9  2  0
  9 10  1  0
  9 36  1  0
 10 11  2  0
 10 37  1  0
 11 12  1  0
 11 38  1  0
 12 13  2  0
 13 39  1  0
 14 15  1  0
 15 21  1  0
 15 16  1  0
 15 40  1  6
 16 23  1  0
 16 17  1  6
 16 18  1  0
 17 41  1  0
 17 42  1  0
 17 43  1  0
 18 19  1  0
 18 44  1  0
 18 45  1  0
 19 20  1  0
 19 46  1  0
 19 47  1  0
 20 21  1  0
 20 48  1  6
 21 22  1  1
 22 23  1  0
M  END
>  <i_m_ct_stereo_status>  (180) 
1

>  <s_m_source_file>  (180) 
/var/tmp/pbs.5076255.sched01/tmpp9awzhar/40nweoahkg.sdf

>  <i_m_source_file_index>  (180) 
31

>  <i_lp_mmshare_version>  (180) 
48012

>  <i_f3d_flags>  (180) 
0

>  <s_epik_input>  (180) 
W0NAQF0xMjNbQ0BASF00W0NIMl1bQ0gyXVtDQEBIXShbQ0gzXSlbQ0BASF0yW0NIMl1bQ0gyXVtDQF0oW0NIM10pKE9PMylbQ0BIXTFPW0NAQEhdNFtDSDJdYzVbY0hdW2NIXVtjSF1uW2NIXTU=

>  <s_epik_cmdline>  (180) 
J2VwaWtfcHl0aG9uJywgJy1waHQnLCAnMi4wJywgJy1waCcsICc3LjAnLCAnLXRuJywgJzgnLCAnLW1hJywgJzIwMCcsICctaW1hZScsICc8aW5maWxlLm1hZT4nLCAnLW9tYWUnLCAnPG91dGZpbGUubWFlPic=

>  <r_epik_Ionization_Penalty>  (180) 
0.0327219

>  <r_epik_Ionization_Penalty_Charging>  (180) 
0

>  <r_epik_Ionization_Penalty_Neutral>  (180) 
0.0327219

>  <r_epik_State_Penalty>  (180) 
0.0271231

>  <r_epik_Charging_Adjusted_Penalty>  (180) 
0.0271231

>  <i_epik_Tot_Q>  (180) 
0

>  <i_epik_Tot_abs_Q>  (180) 
0

>  <s_lp_Force_Field>  (180) 
OPLS3e

>  <r_lp_Energy>  (180) 
37.6869

>  <b_lp_Chiralities_Consistent>  (180) 
1

>  <s_lp_Variant>  (180) 
50:0-1

>  <s_i_glide_gridfile>  (180) 
pfpi4k_grid

>  <i_i_glide_lignum>  (180) 
31

>  <i_i_glide_rotatable_bonds>  (180) 
2

>  <r_i_docking_score>  (180) 
-3.16527

>  <r_i_glide_ligand_efficiency>  (180) 
-0.13762

>  <r_i_glide_ligand_efficiency_sa>  (180) 
-0.391374

>  <r_i_glide_ligand_efficiency_ln>  (180) 
-0.76539

>  <r_i_glide_gscore>  (180) 
-3.16527

>  <r_i_glide_lipo>  (180) 
-1.00216

>  <r_i_glide_hbond>  (180) 
0

>  <r_i_glide_metal>  (180) 
-0

>  <r_i_glide_rewards>  (180) 
-1.25859

>  <r_i_glide_evdw>  (180) 
-22.9493

>  <r_i_glide_ecoul>  (180) 
-0.873553

>  <r_i_glide_erotb>  (180) 
0.373983

>  <r_i_glide_esite>  (180) 
0

>  <r_i_glide_emodel>  (180) 
-27.6047

>  <r_i_glide_energy>  (180) 
-23.8228

>  <r_i_glide_einternal>  (180) 
2.16329

>  <r_i_glide_intrahb_reward>  (180) 
-0

>  <i_i_glide_confnum>  (180) 
6

>  <i_i_glide_posenum>  (180) 
12

>  <r_i_glide_eff_state_penalty>  (180) 
0

>  <ligand_id>  (180) 
50

>  <original_smiles>  (180) 
CC1CCC2C(Cc3cccnc3)OC3C4(C)CCC1C23OO4

>  <smiles>  (180) 
[H]c1nc([H])c(C([H])([H])C2([H])OC3([H])C4(C([H])([H])[H])OOC35C2([H])C([H])([H])C([H])([H])C([H])(C([H])([H])[H])C5([H])C([H])([H])C4([H])[H])c([H])c1[H]

$$$$
50:0:2
     RDKit          3D

 48 52  0  0  1  0  0  0  0  0999 V2000
    5.6759   -5.2378    4.7105 C   0  0  0  0  0  0  0  0  0  0  0  0
    5.1566   -5.0008    3.2828 C   0  0  2  0  0  0  0  0  0  0  0  0
    6.0674   -5.6865    2.2432 C   0  0  0  0  0  0  0  0  0  0  0  0
    5.5337   -5.5504    0.8035 C   0  0  0  0  0  0  0  0  0  0  0  0
    5.0521   -4.1327    0.4237 C   0  0  2  0  0  0  0  0  0  0  0  0
    6.1502   -3.0767    0.0824 C   0  0  1  0  0  0  0  0  0  0  0  0
    6.4627   -2.9143   -1.4252 C   0  0  0  0  0  0  0  0  0  0  0  0
    5.2684   -2.5204   -2.2852 C   0  0  0  0  0  0  0  0  0  0  0  0
    4.6773   -1.2455   -2.1597 C   0  0  0  0  0  0  0  0  0  0  0  0
    3.5082   -0.9688   -2.8985 C   0  0  0  0  0  0  0  0  0  0  0  0
    3.0168   -1.9476   -3.7652 C   0  0  0  0  0  0  0  0  0  0  0  0
    3.6087   -3.1492   -3.9469 N   0  0  0  0  0  0  0  0  0  0  0  0
    4.6988   -3.4283   -3.1980 C   0  0  0  0  0  0  0  0  0  0  0  0
    5.6812   -1.8370    0.6581 O   0  0  0  0  0  0  0  0  0  0  0  0
    4.3055   -2.0378    0.9729 C   0  0  2  0  0  0  0  0  0  0  0  0
    3.4950   -1.2422    1.9796 C   0  0  2  0  0  0  0  0  0  0  0  0
    3.0213    0.1252    1.4624 C   0  0  0  0  0  0  0  0  0  0  0  0
    4.1494   -1.1774    3.3680 C   0  0  0  0  0  0  0  0  0  0  0  0
    4.3952   -2.5843    3.9437 C   0  0  0  0  0  0  0  0  0  0  0  0
    5.0337   -3.5141    2.8985 C   0  0  2  0  0  0  0  0  0  0  0  0
    4.3068   -3.4123    1.5358 C   0  0  2  0  0  0  0  0  0  0  0  0
    2.8972   -3.5432    1.6790 O   0  0  0  0  0  0  0  0  0  0  0  0
    2.3955   -2.1582    2.0862 O   0  0  0  0  0  0  0  0  0  0  0  0
    6.6449   -4.7629    4.8763 H   0  0  0  0  0  0  0  0  0  0  0  0
    5.7872   -6.3071    4.9068 H   0  0  0  0  0  0  0  0  0  0  0  0
    4.9781   -4.8466    5.4529 H   0  0  0  0  0  0  0  0  0  0  0  0
    4.1654   -5.4556    3.2230 H   0  0  0  0  0  0  0  0  0  0  0  0
    7.0715   -5.2573    2.2958 H   0  0  0  0  0  0  0  0  0  0  0  0
    6.1775   -6.7482    2.4805 H   0  0  0  0  0  0  0  0  0  0  0  0
    6.2895   -5.8845    0.0934 H   0  0  0  0  0  0  0  0  0  0  0  0
    4.6924   -6.2369    0.6900 H   0  0  0  0  0  0  0  0  0  0  0  0
    4.3875   -4.2358   -0.4261 H   0  0  0  0  0  0  0  0  0  0  0  0
    7.0815   -3.3409    0.5814 H   0  0  0  0  0  0  0  0  0  0  0  0
    7.2434   -2.1681   -1.5637 H   0  0  0  0  0  0  0  0  0  0  0  0
    6.8742   -3.8447   -1.8121 H   0  0  0  0  0  0  0  0  0  0  0  0
    5.0550   -0.5156   -1.4608 H   0  0  0  0  0  0  0  0  0  0  0  0
    2.9764   -0.0368   -2.7648 H   0  0  0  0  0  0  0  0  0  0  0  0
    2.1061   -1.7686   -4.3210 H   0  0  0  0  0  0  0  0  0  0  0  0
    5.0986   -4.4254   -3.3313 H   0  0  0  0  0  0  0  0  0  0  0  0
    3.7266   -2.0501    0.0522 H   0  0  0  0  0  0  0  0  0  0  0  0
    3.8456    0.8304    1.3508 H   0  0  0  0  0  0  0  0  0  0  0  0
    2.3001    0.5663    2.1476 H   0  0  0  0  0  0  0  0  0  0  0  0
    2.5332    0.0328    0.4941 H   0  0  0  0  0  0  0  0  0  0  0  0
    5.0894   -0.6251    3.2981 H   0  0  0  0  0  0  0  0  0  0  0  0
    3.5059   -0.6189    4.0467 H   0  0  0  0  0  0  0  0  0  0  0  0
    5.0515   -2.4909    4.8051 H   0  0  0  0  0  0  0  0  0  0  0  0
    3.4500   -3.0176    4.2937 H   0  0  0  0  0  0  0  0  0  0  0  0
    6.0560   -3.1424    2.7795 H   0  0  0  0  0  0  0  0  0  0  0  0
  1  2  1  0
  1 24  1  0
  1 25  1  0
  1 26  1  0
  2 20  1  0
  2  3  1  0
  2 27  1  1
  3  4  1  0
  3 28  1  0
  3 29  1  0
  4  5  1  0
  4 30  1  0
  4 31  1  0
  5 21  1  0
  5  6  1  0
  5 32  1  6
  6  7  1  0
  6 14  1  0
  6 33  1  1
  7  8  1  0
  7 34  1  0
  7 35  1  0
  8 13  1  0
  8  9  2  0
  9 10  1  0
  9 36  1  0
 10 11  2  0
 10 37  1  0
 11 12  1  0
 11 38  1  0
 12 13  2  0
 13 39  1  0
 14 15  1  0
 15 21  1  0
 15 16  1  0
 15 40  1  6
 16 23  1  0
 16 17  1  6
 16 18  1  0
 17 41  1  0
 17 42  1  0
 17 43  1  0
 18 19  1  0
 18 44  1  0
 18 45  1  0
 19 20  1  0
 19 46  1  0
 19 47  1  0
 20 21  1  0
 20 48  1  6
 21 22  1  1
 22 23  1  0
M  END
>  <i_m_ct_stereo_status>  (181) 
1

>  <s_m_source_file>  (181) 
/var/tmp/pbs.5076255.sched01/tmpp9awzhar/40nweoahkg.sdf

>  <i_m_source_file_index>  (181) 
31

>  <i_lp_mmshare_version>  (181) 
48012

>  <i_f3d_flags>  (181) 
0

>  <s_epik_input>  (181) 
W0NAQF0xMjNbQ0BASF00W0NIMl1bQ0gyXVtDQEBIXShbQ0gzXSlbQ0BASF0yW0NIMl1bQ0gyXVtDQF0oW0NIM10pKE9PMylbQ0BIXTFPW0NAQEhdNFtDSDJdYzVbY0hdW2NIXVtjSF1uW2NIXTU=

>  <s_epik_cmdline>  (181) 
J2VwaWtfcHl0aG9uJywgJy1waHQnLCAnMi4wJywgJy1waCcsICc3LjAnLCAnLXRuJywgJzgnLCAnLW1hJywgJzIwMCcsICctaW1hZScsICc8aW5maWxlLm1hZT4nLCAnLW9tYWUnLCAnPG91dGZpbGUubWFlPic=

>  <r_epik_Ionization_Penalty>  (181) 
0.0327219

>  <r_epik_Ionization_Penalty_Charging>  (181) 
0

>  <r_epik_Ionization_Penalty_Neutral>  (181) 
0.0327219

>  <r_epik_State_Penalty>  (181) 
0.0271231

>  <r_epik_Charging_Adjusted_Penalty>  (181) 
0.0271231

>  <i_epik_Tot_Q>  (181) 
0

>  <i_epik_Tot_abs_Q>  (181) 
0

>  <s_lp_Force_Field>  (181) 
OPLS3e

>  <r_lp_Energy>  (181) 
37.6869

>  <b_lp_Chiralities_Consistent>  (181) 
1

>  <s_lp_Variant>  (181) 
50:0-1

>  <s_i_glide_gridfile>  (181) 
pfpi4k_grid

>  <i_i_glide_lignum>  (181) 
31

>  <i_i_glide_rotatable_bonds>  (181) 
2

>  <r_i_docking_score>  (181) 
-2.97015

>  <r_i_glide_ligand_efficiency>  (181) 
-0.129137

>  <r_i_glide_ligand_efficiency_sa>  (181) 
-0.367248

>  <r_i_glide_ligand_efficiency_ln>  (181) 
-0.718209

>  <r_i_glide_gscore>  (181) 
-2.97015

>  <r_i_glide_lipo>  (181) 
-0.755509

>  <r_i_glide_hbond>  (181) 
-0.0368715

>  <r_i_glide_metal>  (181) 
-0

>  <r_i_glide_rewards>  (181) 
-1.25859

>  <r_i_glide_evdw>  (181) 
-24.5105

>  <r_i_glide_ecoul>  (181) 
-0.450884

>  <r_i_glide_erotb>  (181) 
0.373983

>  <r_i_glide_esite>  (181) 
0

>  <r_i_glide_emodel>  (181) 
-28.3211

>  <r_i_glide_energy>  (181) 
-24.9614

>  <r_i_glide_einternal>  (181) 
2.22006

>  <r_i_glide_intrahb_reward>  (181) 
-0

>  <i_i_glide_confnum>  (181) 
3

>  <i_i_glide_posenum>  (181) 
7

>  <r_i_glide_eff_state_penalty>  (181) 
0

>  <ligand_id>  (181) 
50

>  <original_smiles>  (181) 
CC1CCC2C(Cc3cccnc3)OC3C4(C)CCC1C23OO4

>  <smiles>  (181) 
[H]c1nc([H])c(C([H])([H])C2([H])OC3([H])C4(C([H])([H])[H])OOC35C2([H])C([H])([H])C([H])([H])C([H])(C([H])([H])[H])C5([H])C([H])([H])C4([H])[H])c([H])c1[H]

$$$$
50:1:0
     RDKit          3D

 49 53  0  0  1  0  0  0  0  0999 V2000
   -5.7308  -12.9796   -6.0997 C   0  0  0  0  0  0  0  0  0  0  0  0
   -6.0219  -11.8249   -7.0742 C   0  0  2  0  0  0  0  0  0  0  0  0
   -5.4421  -10.5006   -6.5483 C   0  0  0  0  0  0  0  0  0  0  0  0
   -5.5791   -9.3847   -7.5979 C   0  0  0  0  0  0  0  0  0  0  0  0
   -7.0242   -9.2178   -8.1629 C   0  0  2  0  0  0  0  0  0  0  0  0
   -8.1636   -8.6154   -7.2727 C   0  0  1  0  0  0  0  0  0  0  0  0
   -8.4468   -7.1045   -7.5070 C   0  0  0  0  0  0  0  0  0  0  0  0
   -7.8246   -6.1788   -6.4526 C   0  0  0  0  0  0  0  0  0  0  0  0
   -6.5907   -6.5057   -5.8447 C   0  0  0  0  0  0  0  0  0  0  0  0
   -6.0005   -5.6442   -4.9208 C   0  0  0  0  0  0  0  0  0  0  0  0
   -6.6875   -4.4870   -4.5368 C   0  0  0  0  0  0  0  0  0  0  0  0
   -7.9065   -4.2001   -5.0789 N   0  0  0  0  0  0  0  0  0  0  0  0
   -8.4774   -5.0042   -6.0317 C   0  0  0  0  0  0  0  0  0  0  0  0
   -9.3552   -9.3894   -7.5642 O   0  0  0  0  0  0  0  0  0  0  0  0
   -9.0857  -10.0995   -8.7597 C   0  0  2  0  0  0  0  0  0  0  0  0
   -9.7502  -11.3966   -9.2223 C   0  0  2  0  0  0  0  0  0  0  0  0
  -11.1150  -11.1982   -9.8987 C   0  0  0  0  0  0  0  0  0  0  0  0
   -9.7680  -12.5041   -8.1475 C   0  0  0  0  0  0  0  0  0  0  0  0
   -8.3504  -12.8669   -7.6660 C   0  0  0  0  0  0  0  0  0  0  0  0
   -7.5251  -11.6004   -7.3700 C   0  0  2  0  0  0  0  0  0  0  0  0
   -7.6780  -10.5493   -8.5185 C   0  0  2  0  0  0  0  0  0  0  0  0
   -7.4485  -11.1390   -9.7816 O   0  0  0  0  0  0  0  0  0  0  0  0
   -8.7797  -11.7786  -10.1994 O   0  0  0  0  0  0  0  0  0  0  0  0
   -6.2476  -12.8524   -5.1486 H   0  0  0  0  0  0  0  0  0  0  0  0
   -4.6613  -13.0413   -5.8884 H   0  0  0  0  0  0  0  0  0  0  0  0
   -6.0262  -13.9433   -6.5242 H   0  0  0  0  0  0  0  0  0  0  0  0
   -5.5120  -12.0606   -8.0083 H   0  0  0  0  0  0  0  0  0  0  0  0
   -5.9395  -10.2309   -5.6160 H   0  0  0  0  0  0  0  0  0  0  0  0
   -4.3893  -10.6202   -6.3018 H   0  0  0  0  0  0  0  0  0  0  0  0
   -5.1050   -8.4785   -7.2296 H   0  0  0  0  0  0  0  0  0  0  0  0
   -4.9273   -9.6301   -8.4290 H   0  0  0  0  0  0  0  0  0  0  0  0
   -6.9580   -8.6292   -9.0767 H   0  0  0  0  0  0  0  0  0  0  0  0
   -7.9700   -8.8133   -6.2225 H   0  0  0  0  0  0  0  0  0  0  0  0
   -8.1140   -6.7999   -8.5022 H   0  0  0  0  0  0  0  0  0  0  0  0
   -9.5251   -6.9437   -7.5262 H   0  0  0  0  0  0  0  0  0  0  0  0
   -6.0868   -7.4424   -6.0318 H   0  0  0  0  0  0  0  0  0  0  0  0
   -5.0466   -5.9127   -4.4945 H   0  0  0  0  0  0  0  0  0  0  0  0
   -6.3113   -3.8049   -3.7782 H   0  0  0  0  0  0  0  0  0  0  0  0
   -9.4641   -4.6793   -6.3859 H   0  0  0  0  0  0  0  0  0  0  0  0
   -9.1403   -9.3745   -9.5791 H   0  0  0  0  0  0  0  0  0  0  0  0
  -11.8731  -10.8872   -9.1814 H   0  0  0  0  0  0  0  0  0  0  0  0
  -11.4540  -12.1223  -10.3655 H   0  0  0  0  0  0  0  0  0  0  0  0
  -11.0636  -10.4407  -10.6811 H   0  0  0  0  0  0  0  0  0  0  0  0
  -10.3861  -12.1890   -7.3061 H   0  0  0  0  0  0  0  0  0  0  0  0
  -10.2306  -13.4027   -8.5509 H   0  0  0  0  0  0  0  0  0  0  0  0
   -8.4213  -13.4655   -6.7638 H   0  0  0  0  0  0  0  0  0  0  0  0
   -7.8400  -13.4822   -8.4079 H   0  0  0  0  0  0  0  0  0  0  0  0
   -7.9587  -11.1860   -6.4623 H   0  0  0  0  0  0  0  0  0  0  0  0
   -8.4029   -3.3779   -4.7621 H   0  0  0  0  0  0  0  0  0  0  0  0
  1  2  1  0
  1 24  1  0
  1 25  1  0
  1 26  1  0
  2 20  1  0
  2  3  1  0
  2 27  1  6
  3  4  1  0
  3 28  1  0
  3 29  1  0
  4  5  1  0
  4 30  1  0
  4 31  1  0
  5 21  1  0
  5  6  1  0
  5 32  1  6
  6  7  1  0
  6 14  1  0
  6 33  1  1
  7  8  1  0
  7 34  1  0
  7 35  1  0
  8 13  1  0
  8  9  2  0
  9 10  1  0
  9 36  1  0
 10 11  2  0
 10 37  1  0
 11 12  1  0
 11 38  1  0
 12 13  2  0
 12 49  1  0
 13 39  1  0
 14 15  1  0
 15 21  1  0
 15 16  1  0
 15 40  1  6
 16 23  1  0
 16 17  1  6
 16 18  1  0
 17 41  1  0
 17 42  1  0
 17 43  1  0
 18 19  1  0
 18 44  1  0
 18 45  1  0
 19 20  1  0
 19 46  1  0
 19 47  1  0
 20 21  1  0
 20 48  1  1
 21 22  1  6
 22 23  1  0
M  CHG  1  12   1
M  END
>  <i_m_ct_stereo_status>  (182) 
1

>  <s_m_source_file>  (182) 
/var/tmp/pbs.5076255.sched01/tmpp9awzhar/40nweoahkg.sdf

>  <i_m_source_file_index>  (182) 
32

>  <i_lp_mmshare_version>  (182) 
48012

>  <i_f3d_flags>  (182) 
0

>  <s_epik_input>  (182) 
W0NAQF0xMjNbQ0BASF00W0NIMl1bQ0gyXVtDQEBIXShbQ0gzXSlbQ0BASF0yW0NIMl1bQ0gyXVtDQF0oW0NIM10pKE9PMylbQ0BIXTFPW0NAQEhdNFtDSDJdYzVbY0hdW2NIXVtjSF1uW2NIXTU=

>  <s_epik_cmdline>  (182) 
J2VwaWtfcHl0aG9uJywgJy1waHQnLCAnMi4wJywgJy1waCcsICc3LjAnLCAnLXRuJywgJzgnLCAnLW1hJywgJzIwMCcsICctaW1hZScsICc8aW5maWxlLm1hZT4nLCAnLW9tYWUnLCAnPG91dGZpbGUubWFlPic=

>  <r_epik_Ionization_Penalty>  (182) 
1.73229

>  <r_epik_Ionization_Penalty_Charging>  (182) 
1.73229

>  <r_epik_Ionization_Penalty_Neutral>  (182) 
1.23007e-13

>  <r_epik_State_Penalty>  (182) 
1.8407

>  <r_epik_Charging_Adjusted_Penalty>  (182) 
3.57299

>  <i_epik_Tot_Q>  (182) 
1

>  <i_epik_Tot_abs_Q>  (182) 
1

>  <s_lp_Force_Field>  (182) 
OPLS3e

>  <r_lp_Energy>  (182) 
42.5207

>  <b_lp_Chiralities_Consistent>  (182) 
1

>  <s_lp_Variant>  (182) 
50:0-2

>  <s_i_glide_gridfile>  (182) 
pfpi4k_grid

>  <i_i_glide_lignum>  (182) 
32

>  <i_i_glide_rotatable_bonds>  (182) 
2

>  <r_i_docking_score>  (182) 
-4.97996

>  <r_i_glide_ligand_efficiency>  (182) 
-0.21652

>  <r_i_glide_ligand_efficiency_sa>  (182) 
-0.615754

>  <r_i_glide_ligand_efficiency_ln>  (182) 
-1.2042

>  <r_i_glide_gscore>  (182) 
-4.97996

>  <r_i_glide_lipo>  (182) 
-2.50785

>  <r_i_glide_hbond>  (182) 
0

>  <r_i_glide_metal>  (182) 
-0

>  <r_i_glide_rewards>  (182) 
-1.64339

>  <r_i_glide_evdw>  (182) 
-24.2628

>  <r_i_glide_ecoul>  (182) 
0.0834541

>  <r_i_glide_erotb>  (182) 
0.371889

>  <r_i_glide_esite>  (182) 
0

>  <r_i_glide_emodel>  (182) 
-31.7673

>  <r_i_glide_energy>  (182) 
-24.1793

>  <r_i_glide_einternal>  (182) 
4.76011

>  <r_i_glide_intrahb_reward>  (182) 
-0

>  <i_i_glide_confnum>  (182) 
4

>  <i_i_glide_posenum>  (182) 
6

>  <r_i_glide_eff_state_penalty>  (182) 
0

>  <ligand_id>  (182) 
50

>  <original_smiles>  (182) 
CC1CCC2C(Cc3cccnc3)OC3C4(C)CCC1C23OO4

>  <smiles>  (182) 
[H]c1c([H])c([H])[n+]([H])c([H])c1C([H])([H])C1([H])OC2([H])C3(C([H])([H])[H])OOC24C1([H])C([H])([H])C([H])([H])C([H])(C([H])([H])[H])C4([H])C([H])([H])C3([H])[H]

$$$$
50:1:1
     RDKit          3D

 49 53  0  0  1  0  0  0  0  0999 V2000
  -10.3847  -13.0248   -7.7556 C   0  0  0  0  0  0  0  0  0  0  0  0
   -9.5964  -11.9305   -8.4962 C   0  0  2  0  0  0  0  0  0  0  0  0
   -8.1888  -11.7656   -7.8876 C   0  0  0  0  0  0  0  0  0  0  0  0
   -7.3277  -10.7426   -8.6578 C   0  0  0  0  0  0  0  0  0  0  0  0
   -8.0439   -9.4160   -9.0033 C   0  0  2  0  0  0  0  0  0  0  0  0
   -8.2222   -8.3939   -7.8474 C   0  0  1  0  0  0  0  0  0  0  0  0
   -7.1464   -7.3008   -7.8396 C   0  0  0  0  0  0  0  0  0  0  0  0
   -7.2088   -6.4192   -6.6061 C   0  0  0  0  0  0  0  0  0  0  0  0
   -8.1182   -5.3414   -6.5410 C   0  0  0  0  0  0  0  0  0  0  0  0
   -8.1398   -4.5271   -5.3900 C   0  0  0  0  0  0  0  0  0  0  0  0
   -7.2481   -4.8091   -4.3347 C   0  0  0  0  0  0  0  0  0  0  0  0
   -6.4019   -5.8535   -4.4299 N   0  0  0  0  0  0  0  0  0  0  0  0
   -6.3496   -6.6578   -5.5145 C   0  0  0  0  0  0  0  0  0  0  0  0
   -9.5263   -7.8042   -8.0336 O   0  0  0  0  0  0  0  0  0  0  0  0
   -9.9305   -8.1566   -9.3464 C   0  0  2  0  0  0  0  0  0  0  0  0
  -11.3656   -8.2397   -9.8580 C   0  0  2  0  0  0  0  0  0  0  0  0
  -11.9755   -6.8847  -10.2479 C   0  0  0  0  0  0  0  0  0  0  0  0
  -12.2943   -9.0813   -8.9585 C   0  0  0  0  0  0  0  0  0  0  0  0
  -11.7805  -10.5243   -8.7945 C   0  0  0  0  0  0  0  0  0  0  0  0
  -10.2750  -10.5437   -8.4872 C   0  0  2  0  0  0  0  0  0  0  0  0
   -9.4902   -9.5833   -9.4293 C   0  0  2  0  0  0  0  0  0  0  0  0
   -9.8140   -9.8015  -10.7875 O   0  0  0  0  0  0  0  0  0  0  0  0
  -11.1103   -9.0165  -11.0331 O   0  0  0  0  0  0  0  0  0  0  0  0
  -10.5771  -12.7504   -6.7206 H   0  0  0  0  0  0  0  0  0  0  0  0
   -9.8286  -13.9642   -7.7595 H   0  0  0  0  0  0  0  0  0  0  0  0
  -11.3442  -13.2191   -8.2366 H   0  0  0  0  0  0  0  0  0  0  0  0
   -9.4890  -12.2582   -9.5306 H   0  0  0  0  0  0  0  0  0  0  0  0
   -8.2750  -11.4552   -6.8445 H   0  0  0  0  0  0  0  0  0  0  0  0
   -7.6712  -12.7275   -7.8749 H   0  0  0  0  0  0  0  0  0  0  0  0
   -6.4179  -10.5326   -8.0929 H   0  0  0  0  0  0  0  0  0  0  0  0
   -7.0010  -11.2154   -9.5856 H   0  0  0  0  0  0  0  0  0  0  0  0
   -7.4936   -8.9387   -9.8157 H   0  0  0  0  0  0  0  0  0  0  0  0
   -8.2088   -8.9108   -6.8879 H   0  0  0  0  0  0  0  0  0  0  0  0
   -6.1562   -7.7520   -7.9028 H   0  0  0  0  0  0  0  0  0  0  0  0
   -7.2630   -6.6797   -8.7272 H   0  0  0  0  0  0  0  0  0  0  0  0
   -8.7876   -5.1414   -7.3642 H   0  0  0  0  0  0  0  0  0  0  0  0
   -8.8337   -3.7017   -5.3112 H   0  0  0  0  0  0  0  0  0  0  0  0
   -7.2041   -4.2529   -3.4096 H   0  0  0  0  0  0  0  0  0  0  0  0
   -5.6247   -7.4563   -5.4741 H   0  0  0  0  0  0  0  0  0  0  0  0
   -9.3566   -7.5351  -10.0384 H   0  0  0  0  0  0  0  0  0  0  0  0
  -12.1594   -6.2717   -9.3684 H   0  0  0  0  0  0  0  0  0  0  0  0
  -12.9279   -7.0226  -10.7599 H   0  0  0  0  0  0  0  0  0  0  0  0
  -11.3174   -6.3292  -10.9143 H   0  0  0  0  0  0  0  0  0  0  0  0
  -12.3942   -8.6022   -7.9839 H   0  0  0  0  0  0  0  0  0  0  0  0
  -13.2966   -9.1133   -9.3872 H   0  0  0  0  0  0  0  0  0  0  0  0
  -12.3318  -10.9955   -7.9808 H   0  0  0  0  0  0  0  0  0  0  0  0
  -11.9871  -11.1035   -9.6974 H   0  0  0  0  0  0  0  0  0  0  0  0
  -10.1995  -10.1739   -7.4651 H   0  0  0  0  0  0  0  0  0  0  0  0
   -5.7847   -6.0487   -3.6406 H   0  0  0  0  0  0  0  0  0  0  0  0
  1  2  1  0
  1 24  1  0
  1 25  1  0
  1 26  1  0
  2 20  1  0
  2  3  1  0
  2 27  1  6
  3  4  1  0
  3 28  1  0
  3 29  1  0
  4  5  1  0
  4 30  1  0
  4 31  1  0
  5 21  1  0
  5  6  1  0
  5 32  1  6
  6  7  1  0
  6 14  1  0
  6 33  1  1
  7  8  1  0
  7 34  1  0
  7 35  1  0
  8 13  1  0
  8  9  2  0
  9 10  1  0
  9 36  1  0
 10 11  2  0
 10 37  1  0
 11 12  1  0
 11 38  1  0
 12 13  2  0
 12 49  1  0
 13 39  1  0
 14 15  1  0
 15 21  1  0
 15 16  1  0
 15 40  1  6
 16 23  1  0
 16 17  1  6
 16 18  1  0
 17 41  1  0
 17 42  1  0
 17 43  1  0
 18 19  1  0
 18 44  1  0
 18 45  1  0
 19 20  1  0
 19 46  1  0
 19 47  1  0
 20 21  1  0
 20 48  1  1
 21 22  1  6
 22 23  1  0
M  CHG  1  12   1
M  END
>  <i_m_ct_stereo_status>  (183) 
1

>  <s_m_source_file>  (183) 
/var/tmp/pbs.5076255.sched01/tmpp9awzhar/40nweoahkg.sdf

>  <i_m_source_file_index>  (183) 
32

>  <i_lp_mmshare_version>  (183) 
48012

>  <i_f3d_flags>  (183) 
0

>  <s_epik_input>  (183) 
W0NAQF0xMjNbQ0BASF00W0NIMl1bQ0gyXVtDQEBIXShbQ0gzXSlbQ0BASF0yW0NIMl1bQ0gyXVtDQF0oW0NIM10pKE9PMylbQ0BIXTFPW0NAQEhdNFtDSDJdYzVbY0hdW2NIXVtjSF1uW2NIXTU=

>  <s_epik_cmdline>  (183) 
J2VwaWtfcHl0aG9uJywgJy1waHQnLCAnMi4wJywgJy1waCcsICc3LjAnLCAnLXRuJywgJzgnLCAnLW1hJywgJzIwMCcsICctaW1hZScsICc8aW5maWxlLm1hZT4nLCAnLW9tYWUnLCAnPG91dGZpbGUubWFlPic=

>  <r_epik_Ionization_Penalty>  (183) 
1.73229

>  <r_epik_Ionization_Penalty_Charging>  (183) 
1.73229

>  <r_epik_Ionization_Penalty_Neutral>  (183) 
1.23007e-13

>  <r_epik_State_Penalty>  (183) 
1.8407

>  <r_epik_Charging_Adjusted_Penalty>  (183) 
3.57299

>  <i_epik_Tot_Q>  (183) 
1

>  <i_epik_Tot_abs_Q>  (183) 
1

>  <s_lp_Force_Field>  (183) 
OPLS3e

>  <r_lp_Energy>  (183) 
42.5207

>  <b_lp_Chiralities_Consistent>  (183) 
1

>  <s_lp_Variant>  (183) 
50:0-2

>  <s_i_glide_gridfile>  (183) 
pfpi4k_grid

>  <i_i_glide_lignum>  (183) 
32

>  <i_i_glide_rotatable_bonds>  (183) 
2

>  <r_i_docking_score>  (183) 
-4.43905

>  <r_i_glide_ligand_efficiency>  (183) 
-0.193002

>  <r_i_glide_ligand_efficiency_sa>  (183) 
-0.548873

>  <r_i_glide_ligand_efficiency_ln>  (183) 
-1.0734

>  <r_i_glide_gscore>  (183) 
-4.43905

>  <r_i_glide_lipo>  (183) 
-1.93804

>  <r_i_glide_hbond>  (183) 
0

>  <r_i_glide_metal>  (183) 
-0

>  <r_i_glide_rewards>  (183) 
-1.59339

>  <r_i_glide_evdw>  (183) 
-22.9913

>  <r_i_glide_ecoul>  (183) 
-0.866317

>  <r_i_glide_erotb>  (183) 
0.371889

>  <r_i_glide_esite>  (183) 
0

>  <r_i_glide_emodel>  (183) 
-33.3055

>  <r_i_glide_energy>  (183) 
-23.8576

>  <r_i_glide_einternal>  (183) 
0.332368

>  <r_i_glide_intrahb_reward>  (183) 
-0

>  <i_i_glide_confnum>  (183) 
3

>  <i_i_glide_posenum>  (183) 
14

>  <r_i_glide_eff_state_penalty>  (183) 
0

>  <ligand_id>  (183) 
50

>  <original_smiles>  (183) 
CC1CCC2C(Cc3cccnc3)OC3C4(C)CCC1C23OO4

>  <smiles>  (183) 
[H]c1c([H])c([H])[n+]([H])c([H])c1C([H])([H])C1([H])OC2([H])C3(C([H])([H])[H])OOC24C1([H])C([H])([H])C([H])([H])C([H])(C([H])([H])[H])C4([H])C([H])([H])C3([H])[H]

$$$$
50:1:2
     RDKit          3D

 49 53  0  0  1  0  0  0  0  0999 V2000
    5.1284   -6.1663    4.0056 C   0  0  0  0  0  0  0  0  0  0  0  0
    4.4418   -5.6864    2.7181 C   0  0  2  0  0  0  0  0  0  0  0  0
    4.7864   -6.6113    1.5326 C   0  0  0  0  0  0  0  0  0  0  0  0
    4.0494   -6.2144    0.2387 C   0  0  0  0  0  0  0  0  0  0  0  0
    4.0734   -4.7029   -0.0861 C   0  0  2  0  0  0  0  0  0  0  0  0
    5.3919   -4.1336   -0.6807 C   0  0  1  0  0  0  0  0  0  0  0  0
    5.3830   -4.0100   -2.2272 C   0  0  0  0  0  0  0  0  0  0  0  0
    4.5570   -2.8586   -2.7649 C   0  0  0  0  0  0  0  0  0  0  0  0
    4.9593   -1.5367   -2.4919 C   0  0  0  0  0  0  0  0  0  0  0  0
    4.1877   -0.4674   -2.9694 C   0  0  0  0  0  0  0  0  0  0  0  0
    3.0214   -0.7333   -3.7016 C   0  0  0  0  0  0  0  0  0  0  0  0
    2.6557   -2.0143   -3.9262 N   0  0  0  0  0  0  0  0  0  0  0  0
    3.3875   -3.0695   -3.5211 C   0  0  0  0  0  0  0  0  0  0  0  0
    5.5861   -2.8561   -0.0307 O   0  0  0  0  0  0  0  0  0  0  0  0
    4.3257   -2.5101    0.5280 C   0  0  2  0  0  0  0  0  0  0  0  0
    4.0906   -1.5216    1.6569 C   0  0  2  0  0  0  0  0  0  0  0  0
    4.0796   -0.0495    1.2165 C   0  0  0  0  0  0  0  0  0  0  0  0
    5.0014   -1.7716    2.8671 C   0  0  0  0  0  0  0  0  0  0  0  0
    4.8110   -3.1938    3.4294 C   0  0  0  0  0  0  0  0  0  0  0  0
    4.8163   -4.2475    2.3129 C   0  0  2  0  0  0  0  0  0  0  0  0
    3.9100   -3.8064    1.1315 C   0  0  2  0  0  0  0  0  0  0  0  0
    2.6242   -3.4078    1.5562 O   0  0  0  0  0  0  0  0  0  0  0  0
    2.7735   -1.9419    2.0192 O   0  0  0  0  0  0  0  0  0  0  0  0
    6.2127   -6.1059    3.9320 H   0  0  0  0  0  0  0  0  0  0  0  0
    4.8631   -7.2024    4.2148 H   0  0  0  0  0  0  0  0  0  0  0  0
    4.8098   -5.5771    4.8647 H   0  0  0  0  0  0  0  0  0  0  0  0
    3.3654   -5.7269    2.8864 H   0  0  0  0  0  0  0  0  0  0  0  0
    5.8618   -6.5971    1.3538 H   0  0  0  0  0  0  0  0  0  0  0  0
    4.5315   -7.6437    1.7803 H   0  0  0  0  0  0  0  0  0  0  0  0
    4.4550   -6.7806   -0.6032 H   0  0  0  0  0  0  0  0  0  0  0  0
    3.0099   -6.5251    0.3422 H   0  0  0  0  0  0  0  0  0  0  0  0
    3.2604   -4.4987   -0.7881 H   0  0  0  0  0  0  0  0  0  0  0  0
    6.2206   -4.7864   -0.3895 H   0  0  0  0  0  0  0  0  0  0  0  0
    6.4007   -3.8469   -2.5844 H   0  0  0  0  0  0  0  0  0  0  0  0
    5.0214   -4.9424   -2.6636 H   0  0  0  0  0  0  0  0  0  0  0  0
    5.8365   -1.3357   -1.9019 H   0  0  0  0  0  0  0  0  0  0  0  0
    4.4575    0.5458   -2.7427 H   0  0  0  0  0  0  0  0  0  0  0  0
    2.3794    0.0469   -4.0918 H   0  0  0  0  0  0  0  0  0  0  0  0
    2.9944   -4.0302   -3.8148 H   0  0  0  0  0  0  0  0  0  0  0  0
    3.6424   -2.2480   -0.2805 H   0  0  0  0  0  0  0  0  0  0  0  0
    5.0652    0.2933    0.8963 H   0  0  0  0  0  0  0  0  0  0  0  0
    3.7423    0.5963    2.0287 H   0  0  0  0  0  0  0  0  0  0  0  0
    3.3897    0.0982    0.3897 H   0  0  0  0  0  0  0  0  0  0  0  0
    6.0415   -1.6082    2.5779 H   0  0  0  0  0  0  0  0  0  0  0  0
    4.7755   -1.0473    3.6488 H   0  0  0  0  0  0  0  0  0  0  0  0
    5.6243   -3.3936    4.1236 H   0  0  0  0  0  0  0  0  0  0  0  0
    3.8805   -3.2526    3.9948 H   0  0  0  0  0  0  0  0  0  0  0  0
    5.8469   -4.2876    1.9699 H   0  0  0  0  0  0  0  0  0  0  0  0
    1.8103   -2.1942   -4.4785 H   0  0  0  0  0  0  0  0  0  0  0  0
  1  2  1  0
  1 24  1  0
  1 25  1  0
  1 26  1  0
  2 20  1  0
  2  3  1  0
  2 27  1  1
  3  4  1  0
  3 28  1  0
  3 29  1  0
  4  5  1  0
  4 30  1  0
  4 31  1  0
  5 21  1  0
  5  6  1  0
  5 32  1  6
  6  7  1  0
  6 14  1  0
  6 33  1  6
  7  8  1  0
  7 34  1  0
  7 35  1  0
  8 13  1  0
  8  9  2  0
  9 10  1  0
  9 36  1  0
 10 11  2  0
 10 37  1  0
 11 12  1  0
 11 38  1  0
 12 13  2  0
 12 49  1  0
 13 39  1  0
 14 15  1  0
 15 21  1  0
 15 16  1  0
 15 40  1  6
 16 23  1  0
 16 17  1  6
 16 18  1  0
 17 41  1  0
 17 42  1  0
 17 43  1  0
 18 19  1  0
 18 44  1  0
 18 45  1  0
 19 20  1  0
 19 46  1  0
 19 47  1  0
 20 21  1  0
 20 48  1  6
 21 22  1  1
 22 23  1  0
M  CHG  1  12   1
M  END
>  <i_m_ct_stereo_status>  (184) 
1

>  <s_m_source_file>  (184) 
/var/tmp/pbs.5076255.sched01/tmpp9awzhar/40nweoahkg.sdf

>  <i_m_source_file_index>  (184) 
32

>  <i_lp_mmshare_version>  (184) 
48012

>  <i_f3d_flags>  (184) 
0

>  <s_epik_input>  (184) 
W0NAQF0xMjNbQ0BASF00W0NIMl1bQ0gyXVtDQEBIXShbQ0gzXSlbQ0BASF0yW0NIMl1bQ0gyXVtDQF0oW0NIM10pKE9PMylbQ0BIXTFPW0NAQEhdNFtDSDJdYzVbY0hdW2NIXVtjSF1uW2NIXTU=

>  <s_epik_cmdline>  (184) 
J2VwaWtfcHl0aG9uJywgJy1waHQnLCAnMi4wJywgJy1waCcsICc3LjAnLCAnLXRuJywgJzgnLCAnLW1hJywgJzIwMCcsICctaW1hZScsICc8aW5maWxlLm1hZT4nLCAnLW9tYWUnLCAnPG91dGZpbGUubWFlPic=

>  <r_epik_Ionization_Penalty>  (184) 
1.73229

>  <r_epik_Ionization_Penalty_Charging>  (184) 
1.73229

>  <r_epik_Ionization_Penalty_Neutral>  (184) 
1.23007e-13

>  <r_epik_State_Penalty>  (184) 
1.8407

>  <r_epik_Charging_Adjusted_Penalty>  (184) 
3.57299

>  <i_epik_Tot_Q>  (184) 
1

>  <i_epik_Tot_abs_Q>  (184) 
1

>  <s_lp_Force_Field>  (184) 
OPLS3e

>  <r_lp_Energy>  (184) 
42.5207

>  <b_lp_Chiralities_Consistent>  (184) 
1

>  <s_lp_Variant>  (184) 
50:0-2

>  <s_i_glide_gridfile>  (184) 
pfpi4k_grid

>  <i_i_glide_lignum>  (184) 
32

>  <i_i_glide_rotatable_bonds>  (184) 
2

>  <r_i_docking_score>  (184) 
-3.62702

>  <r_i_glide_ligand_efficiency>  (184) 
-0.157697

>  <r_i_glide_ligand_efficiency_sa>  (184) 
-0.448468

>  <r_i_glide_ligand_efficiency_ln>  (184) 
-0.877046

>  <r_i_glide_gscore>  (184) 
-3.62702

>  <r_i_glide_lipo>  (184) 
-1.10158

>  <r_i_glide_hbond>  (184) 
0

>  <r_i_glide_metal>  (184) 
-0

>  <r_i_glide_rewards>  (184) 
-1.25172

>  <r_i_glide_evdw>  (184) 
-20.3691

>  <r_i_glide_ecoul>  (184) 
-4.18105

>  <r_i_glide_erotb>  (184) 
0.371889

>  <r_i_glide_esite>  (184) 
0

>  <r_i_glide_emodel>  (184) 
-31.0074

>  <r_i_glide_energy>  (184) 
-24.5502

>  <r_i_glide_einternal>  (184) 
2.16489

>  <r_i_glide_intrahb_reward>  (184) 
-0

>  <i_i_glide_confnum>  (184) 
5

>  <i_i_glide_posenum>  (184) 
10

>  <r_i_glide_eff_state_penalty>  (184) 
0

>  <ligand_id>  (184) 
50

>  <original_smiles>  (184) 
CC1CCC2C(Cc3cccnc3)OC3C4(C)CCC1C23OO4

>  <smiles>  (184) 
[H]c1c([H])c([H])[n+]([H])c([H])c1C([H])([H])C1([H])OC2([H])C3(C([H])([H])[H])OOC24C1([H])C([H])([H])C([H])([H])C([H])(C([H])([H])[H])C4([H])C([H])([H])C3([H])[H]

$$$$
51:0:0
     RDKit          3D

 66 71  0  0  1  0  0  0  0  0999 V2000
    3.3140   -5.1949    0.5420 C   0  0  0  0  0  0  0  0  0  0  0  0
    4.4866   -5.5731    1.2481 O   0  0  0  0  0  0  0  0  0  0  0  0
    4.5823   -6.8995    1.7698 C   0  0  1  0  0  0  0  0  0  0  0  0
    4.5748   -8.0463    0.7685 C   0  0  0  0  0  0  0  0  0  0  0  0
    4.2876   -9.2808    1.6042 C   0  0  0  0  0  0  0  0  0  0  0  0
    4.0455   -8.7028    3.0269 C   0  0  1  0  0  0  0  0  0  0  0  0
    5.4176   -8.2704    3.5968 C   0  0  0  0  0  0  0  0  0  0  0  0
    5.7890   -7.0161    2.7483 C   0  0  1  0  0  0  0  0  0  0  0  0
    7.2619   -6.9580    2.2033 C   0  0  1  0  0  0  0  0  0  0  0  0
    8.2401   -6.6801    3.3747 C   0  0  0  0  0  0  0  0  0  0  0  0
    7.5605   -8.2475    1.7173 O   0  0  0  0  0  0  0  0  0  0  0  0
    7.4833   -5.9608    1.0166 C   0  0  0  0  0  0  0  0  0  0  0  0
    8.8445   -6.1007    0.2987 C   0  0  0  0  0  0  0  0  0  0  0  0
    7.2918   -4.4868    1.4058 C   0  0  0  0  0  0  0  0  0  0  0  0
    3.4307   -7.3395    2.6663 C   0  0  2  0  0  0  0  0  0  0  0  0
    2.1614   -7.5428    2.0251 O   0  0  0  0  0  0  0  0  0  0  0  0
    1.2753   -8.0971    2.9070 C   0  0  0  0  0  0  0  0  0  0  0  0
   -0.0807   -7.6826    3.0137 C   0  0  0  0  0  0  0  0  0  0  0  0
   -0.5816   -6.8395    2.0695 O   0  0  0  0  0  0  0  0  0  0  0  0
   -0.8891   -8.0896    4.1002 C   0  0  0  0  0  0  0  0  0  0  0  0
   -0.3530   -8.8524    5.1645 C   0  0  0  0  0  0  0  0  0  0  0  0
    0.9793   -9.2790    5.0629 C   0  0  0  0  0  0  0  0  0  0  0  0
    1.6940   -8.9754    3.9121 C   0  0  0  0  0  0  0  0  0  0  0  0
    3.0902   -9.5742    3.9108 C   0  0  1  0  0  0  0  0  0  0  0  0
    3.1420  -11.0948    3.5714 C   0  0  0  0  0  0  0  0  0  0  0  0
    4.2507  -11.6613    4.4620 C   0  0  0  0  0  0  0  0  0  0  0  0
    4.3340  -10.7708    5.6350 N   0  0  2  0  0  0  0  0  0  0  0  0
    4.3170  -11.4525    6.9498 C   0  0  0  0  0  0  0  0  0  0  0  0
    3.3413   -9.6918    5.4257 C   0  0  2  0  0  0  0  0  0  0  0  0
    1.9264   -9.9586    6.0159 C   0  0  0  0  0  0  0  0  0  0  0  0
    3.4520   -4.1802    0.1686 H   0  0  0  0  0  0  0  0  0  0  0  0
    2.4393   -5.1794    1.1930 H   0  0  0  0  0  0  0  0  0  0  0  0
    3.1203   -5.8317   -0.3203 H   0  0  0  0  0  0  0  0  0  0  0  0
    3.8206   -7.8979    0.0519 H   0  0  0  0  0  0  0  0  0  0  0  0
    5.4466   -8.1694    0.1809 H   0  0  0  0  0  0  0  0  0  0  0  0
    3.4107   -9.7603    1.1647 H   0  0  0  0  0  0  0  0  0  0  0  0
    5.1178   -9.9877    1.5539 H   0  0  0  0  0  0  0  0  0  0  0  0
    5.3692   -7.9781    4.6422 H   0  0  0  0  0  0  0  0  0  0  0  0
    6.1279   -9.0970    3.5345 H   0  0  0  0  0  0  0  0  0  0  0  0
    5.6827   -6.1547    3.4059 H   0  0  0  0  0  0  0  0  0  0  0  0
    8.0515   -5.7093    3.8343 H   0  0  0  0  0  0  0  0  0  0  0  0
    9.2831   -6.6762    3.0554 H   0  0  0  0  0  0  0  0  0  0  0  0
    8.1506   -7.4213    4.1680 H   0  0  0  0  0  0  0  0  0  0  0  0
    7.6631   -8.8185    2.4621 H   0  0  0  0  0  0  0  0  0  0  0  0
    6.7396   -6.1898    0.2595 H   0  0  0  0  0  0  0  0  0  0  0  0
    9.6697   -5.8547    0.9642 H   0  0  0  0  0  0  0  0  0  0  0  0
    8.9101   -5.4283   -0.5564 H   0  0  0  0  0  0  0  0  0  0  0  0
    9.0039   -7.1102   -0.0849 H   0  0  0  0  0  0  0  0  0  0  0  0
    8.1037   -4.1720    2.0539 H   0  0  0  0  0  0  0  0  0  0  0  0
    6.3608   -4.2993    1.9379 H   0  0  0  0  0  0  0  0  0  0  0  0
    7.2950   -3.8470    0.5223 H   0  0  0  0  0  0  0  0  0  0  0  0
    3.3381   -6.6852    3.5340 H   0  0  0  0  0  0  0  0  0  0  0  0
   -0.1382   -6.9814    1.2467 H   0  0  0  0  0  0  0  0  0  0  0  0
   -1.9202   -7.7886    4.1374 H   0  0  0  0  0  0  0  0  0  0  0  0
   -0.9619   -9.1299    6.0161 H   0  0  0  0  0  0  0  0  0  0  0  0
    2.2139  -11.5778    3.8831 H   0  0  0  0  0  0  0  0  0  0  0  0
    3.2730  -11.3816    2.5337 H   0  0  0  0  0  0  0  0  0  0  0  0
    4.0710  -12.7024    4.7369 H   0  0  0  0  0  0  0  0  0  0  0  0
    5.2116  -11.6421    3.9442 H   0  0  0  0  0  0  0  0  0  0  0  0
    3.4273  -12.0721    7.0804 H   0  0  0  0  0  0  0  0  0  0  0  0
    4.3606  -10.7331    7.7698 H   0  0  0  0  0  0  0  0  0  0  0  0
    5.1835  -12.1107    7.0528 H   0  0  0  0  0  0  0  0  0  0  0  0
    3.7007   -8.7486    5.8410 H   0  0  0  0  0  0  0  0  0  0  0  0
    1.8375   -9.5543    7.0230 H   0  0  0  0  0  0  0  0  0  0  0  0
    1.6875  -11.0245    6.0542 H   0  0  0  0  0  0  0  0  0  0  0  0
    5.2518  -10.3315    5.5678 H   0  0  0  0  0  0  0  0  0  0  0  0
  1  2  1  0
  1 31  1  0
  1 32  1  0
  1 33  1  0
  3  2  1  6
  3  8  1  0
  3 15  1  0
  3  4  1  0
  4  5  1  0
  4 34  1  0
  4 35  1  0
  6  5  1  6
  5 36  1  0
  5 37  1  0
  6 24  1  0
  6  7  1  0
  6 15  1  0
  7  8  1  0
  7 38  1  0
  7 39  1  0
  8  9  1  0
  8 40  1  1
  9 10  1  0
  9 11  1  6
  9 12  1  0
 10 41  1  0
 10 42  1  0
 10 43  1  0
 11 44  1  0
 12 13  1  0
 12 14  1  0
 12 45  1  0
 13 46  1  0
 13 47  1  0
 13 48  1  0
 14 49  1  0
 14 50  1  0
 14 51  1  0
 15 16  1  0
 15 52  1  1
 16 17  1  0
 17 23  2  0
 17 18  1  0
 18 19  1  0
 18 20  2  0
 19 53  1  0
 20 21  1  0
 20 54  1  0
 21 22  2  0
 21 55  1  0
 22 30  1  0
 22 23  1  0
 23 24  1  0
 24 29  1  0
 24 25  1  6
 25 26  1  0
 25 56  1  0
 25 57  1  0
 26 27  1  0
 26 58  1  0
 26 59  1  0
 27 28  1  0
 27 29  1  0
 27 66  1  6
 28 60  1  0
 28 61  1  0
 28 62  1  0
 29 30  1  0
 29 63  1  1
 30 64  1  0
 30 65  1  0
M  CHG  1  27   1
M  END
>  <i_m_ct_stereo_status>  (185) 
1

>  <s_m_source_file>  (185) 
/var/tmp/pbs.5076255.sched01/tmpp9awzhar/40nweoahkg.sdf

>  <i_m_source_file_index>  (185) 
33

>  <i_lp_mmshare_version>  (185) 
48012

>  <i_f3d_flags>  (185) 
0

>  <s_epik_input>  (185) 
W0NIM11bQ0hdKFtDSDNdKVtDQF0oW0NIM10pKFtPSF0pW0NASF0oW0NIMl0xKVtDQEBdKE9bQ0gzXSkoW0NIMl1bQ0gyXTIpW0NASF0zT2MoYzRbQ0BdNTZbQ0BAXTEyMyljKFtPSF0pW2NIXVtjSF1jNFtDSDJdW0NASF02TihbQ0gzXSlbQ0gyXVtDSDJdNQ==

>  <s_epik_cmdline>  (185) 
J2VwaWtfcHl0aG9uJywgJy1waHQnLCAnMi4wJywgJy1waCcsICc3LjAnLCAnLXRuJywgJzgnLCAnLW1hJywgJzIwMCcsICctaW1hZScsICc8aW5maWxlLm1hZT4nLCAnLW9tYWUnLCAnPG91dGZpbGUubWFlPic=

>  <r_lp_tautomer_probability>  (185) 
1

>  <r_epik_Ionization_Penalty>  (185) 
0.00874812

>  <r_epik_Ionization_Penalty_Charging>  (185) 
0.00660381

>  <r_epik_Ionization_Penalty_Neutral>  (185) 
0.00214431

>  <r_epik_State_Penalty>  (185) 
0.00489311

>  <r_epik_Charging_Adjusted_Penalty>  (185) 
0.0114969

>  <i_epik_Tot_Q>  (185) 
1

>  <i_epik_Tot_abs_Q>  (185) 
1

>  <s_lp_Force_Field>  (185) 
OPLS3e

>  <r_lp_Energy>  (185) 
94.8285

>  <b_lp_Chiralities_Consistent>  (185) 
1

>  <s_lp_Variant>  (185) 
51:0-1

>  <s_i_glide_gridfile>  (185) 
pfpi4k_grid

>  <i_i_glide_lignum>  (185) 
33

>  <i_i_glide_rotatable_bonds>  (185) 
5

>  <r_i_docking_score>  (185) 
-2.57695

>  <r_i_glide_ligand_efficiency>  (185) 
-0.0858985

>  <r_i_glide_ligand_efficiency_sa>  (185) 
-0.266906

>  <r_i_glide_ligand_efficiency_ln>  (185) 
-0.585512

>  <r_i_glide_gscore>  (185) 
-2.57695

>  <r_i_glide_lipo>  (185) 
-0.230639

>  <r_i_glide_hbond>  (185) 
0

>  <r_i_glide_metal>  (185) 
-0

>  <r_i_glide_rewards>  (185) 
-0.582562

>  <r_i_glide_evdw>  (185) 
-20.0381

>  <r_i_glide_ecoul>  (185) 
-5.68865

>  <r_i_glide_erotb>  (185) 
0.114854

>  <r_i_glide_esite>  (185) 
-0.0234027

>  <r_i_glide_emodel>  (185) 
-29.2254

>  <r_i_glide_energy>  (185) 
-25.7268

>  <r_i_glide_einternal>  (185) 
2.48303

>  <r_i_glide_intrahb_reward>  (185) 
-0

>  <i_i_glide_confnum>  (185) 
3

>  <i_i_glide_posenum>  (185) 
36

>  <r_i_glide_eff_state_penalty>  (185) 
0

>  <ligand_id>  (185) 
51

>  <original_smiles>  (185) 
COC12CCC3(CC1C(C)(O)C(C)C)C2Oc1c(O)ccc2c1C31CCN(C)C1C2

>  <smiles>  (185) 
[H]Oc1c([H])c([H])c2c3c1OC1([H])C4(OC([H])([H])[H])C([H])([H])C([H])([H])C1(C([H])([H])C4([H])C(O[H])(C([H])([H])[H])C([H])(C([H])([H])[H])C([H])([H])[H])C31C([H])([H])C([H])([H])[N+]([H])(C([H])([H])[H])C1([H])C2([H])[H]

$$$$
51:0:1
     RDKit          3D

 66 71  0  0  1  0  0  0  0  0999 V2000
    1.5867   -4.3851    3.1924 C   0  0  0  0  0  0  0  0  0  0  0  0
    2.3154   -3.5533    2.3000 O   0  0  0  0  0  0  0  0  0  0  0  0
    2.7790   -2.2919    2.7819 C   0  0  1  0  0  0  0  0  0  0  0  0
    3.7302   -2.3196    3.9886 C   0  0  0  0  0  0  0  0  0  0  0  0
    3.6908   -0.8564    4.4564 C   0  0  0  0  0  0  0  0  0  0  0  0
    2.6365   -0.1594    3.5331 C   0  0  1  0  0  0  0  0  0  0  0  0
    3.2929    0.0107    2.1461 C   0  0  0  0  0  0  0  0  0  0  0  0
    3.3693   -1.4433    1.6024 C   0  0  1  0  0  0  0  0  0  0  0  0
    4.7284   -1.8492    0.9233 C   0  0  1  0  0  0  0  0  0  0  0  0
    5.0291   -0.9067   -0.2595 C   0  0  0  0  0  0  0  0  0  0  0  0
    5.7881   -1.6039    1.8260 O   0  0  0  0  0  0  0  0  0  0  0  0
    4.7920   -3.3562    0.5001 C   0  0  0  0  0  0  0  0  0  0  0  0
    6.1539   -3.8014   -0.0805 C   0  0  0  0  0  0  0  0  0  0  0  0
    3.6772   -3.7757   -0.4805 C   0  0  0  0  0  0  0  0  0  0  0  0
    1.6867   -1.3374    3.2768 C   0  0  2  0  0  0  0  0  0  0  0  0
    1.0222   -1.6909    4.4961 O   0  0  0  0  0  0  0  0  0  0  0  0
    0.2077   -0.6691    4.9165 C   0  0  0  0  0  0  0  0  0  0  0  0
   -1.0767   -0.8793    5.4648 C   0  0  0  0  0  0  0  0  0  0  0  0
   -1.4753   -2.1470    5.7604 O   0  0  0  0  0  0  0  0  0  0  0  0
   -1.9719    0.1944    5.6750 C   0  0  0  0  0  0  0  0  0  0  0  0
   -1.6526    1.5098    5.2630 C   0  0  0  0  0  0  0  0  0  0  0  0
   -0.3766    1.7356    4.7275 C   0  0  0  0  0  0  0  0  0  0  0  0
    0.5248    0.6765    4.6708 C   0  0  0  0  0  0  0  0  0  0  0  0
    1.8987    1.0843    4.1724 C   0  0  1  0  0  0  0  0  0  0  0  0
    2.7584    1.8422    5.2302 C   0  0  0  0  0  0  0  0  0  0  0  0
    3.5184    2.9015    4.4267 C   0  0  0  0  0  0  0  0  0  0  0  0
    2.6994    3.1913    3.2307 N   0  0  2  0  0  0  0  0  0  0  0  0
    2.4510    4.6308    2.9675 C   0  0  0  0  0  0  0  0  0  0  0  0
    1.5157    2.3011    3.3025 C   0  0  2  0  0  0  0  0  0  0  0  0
    0.2784    2.9085    4.0280 C   0  0  0  0  0  0  0  0  0  0  0  0
    1.3696   -5.3252    2.6861 H   0  0  0  0  0  0  0  0  0  0  0  0
    0.6311   -3.9443    3.4764 H   0  0  0  0  0  0  0  0  0  0  0  0
    2.1502   -4.6331    4.0907 H   0  0  0  0  0  0  0  0  0  0  0  0
    3.3438   -2.9476    4.7899 H   0  0  0  0  0  0  0  0  0  0  0  0
    4.7254   -2.6948    3.7675 H   0  0  0  0  0  0  0  0  0  0  0  0
    3.3817   -0.8578    5.5018 H   0  0  0  0  0  0  0  0  0  0  0  0
    4.6708   -0.3811    4.3978 H   0  0  0  0  0  0  0  0  0  0  0  0
    2.6876    0.6078    1.4639 H   0  0  0  0  0  0  0  0  0  0  0  0
    4.2634    0.4979    2.2310 H   0  0  0  0  0  0  0  0  0  0  0  0
    2.6187   -1.4830    0.8119 H   0  0  0  0  0  0  0  0  0  0  0  0
    4.2695   -0.9779   -1.0374 H   0  0  0  0  0  0  0  0  0  0  0  0
    5.9948   -1.1214   -0.7141 H   0  0  0  0  0  0  0  0  0  0  0  0
    5.0697    0.1319    0.0696 H   0  0  0  0  0  0  0  0  0  0  0  0
    5.6525   -2.1461    2.5880 H   0  0  0  0  0  0  0  0  0  0  0  0
    4.6539   -3.9499    1.4046 H   0  0  0  0  0  0  0  0  0  0  0  0
    6.3791   -3.3130   -1.0286 H   0  0  0  0  0  0  0  0  0  0  0  0
    6.1527   -4.8739   -0.2795 H   0  0  0  0  0  0  0  0  0  0  0  0
    6.9795   -3.6060    0.6038 H   0  0  0  0  0  0  0  0  0  0  0  0
    3.7971   -3.3077   -1.4574 H   0  0  0  0  0  0  0  0  0  0  0  0
    2.6806   -3.5250   -0.1235 H   0  0  0  0  0  0  0  0  0  0  0  0
    3.6873   -4.8559   -0.6319 H   0  0  0  0  0  0  0  0  0  0  0  0
    0.9536   -1.1181    2.4962 H   0  0  0  0  0  0  0  0  0  0  0  0
   -0.8150   -2.7842    5.5295 H   0  0  0  0  0  0  0  0  0  0  0  0
   -2.9482   -0.0046    6.0763 H   0  0  0  0  0  0  0  0  0  0  0  0
   -2.3796    2.3073    5.3317 H   0  0  0  0  0  0  0  0  0  0  0  0
    2.1138    2.3720    5.9355 H   0  0  0  0  0  0  0  0  0  0  0  0
    3.4236    1.2462    5.8531 H   0  0  0  0  0  0  0  0  0  0  0  0
    3.7454    3.7897    5.0182 H   0  0  0  0  0  0  0  0  0  0  0  0
    4.4636    2.4729    4.1011 H   0  0  0  0  0  0  0  0  0  0  0  0
    1.9755    5.1256    3.8161 H   0  0  0  0  0  0  0  0  0  0  0  0
    1.8211    4.7650    2.0865 H   0  0  0  0  0  0  0  0  0  0  0  0
    3.3969    5.1435    2.7751 H   0  0  0  0  0  0  0  0  0  0  0  0
    1.2001    1.9960    2.3044 H   0  0  0  0  0  0  0  0  0  0  0  0
   -0.4033    3.3798    3.3189 H   0  0  0  0  0  0  0  0  0  0  0  0
    0.5416    3.6478    4.7895 H   0  0  0  0  0  0  0  0  0  0  0  0
    3.2637    2.8664    2.4555 H   0  0  0  0  0  0  0  0  0  0  0  0
  1  2  1  0
  1 31  1  0
  1 32  1  0
  1 33  1  0
  3  2  1  6
  3  8  1  0
  3 15  1  0
  3  4  1  0
  4  5  1  0
  4 34  1  0
  4 35  1  0
  6  5  1  1
  5 36  1  0
  5 37  1  0
  6 24  1  0
  6  7  1  0
  6 15  1  0
  7  8  1  0
  7 38  1  0
  7 39  1  0
  8  9  1  0
  8 40  1  6
  9 10  1  0
  9 11  1  1
  9 12  1  0
 10 41  1  0
 10 42  1  0
 10 43  1  0
 11 44  1  0
 12 13  1  0
 12 14  1  0
 12 45  1  0
 13 46  1  0
 13 47  1  0
 13 48  1  0
 14 49  1  0
 14 50  1  0
 14 51  1  0
 15 16  1  0
 15 52  1  6
 16 17  1  0
 17 23  2  0
 17 18  1  0
 18 19  1  0
 18 20  2  0
 19 53  1  0
 20 21  1  0
 20 54  1  0
 21 22  2  0
 21 55  1  0
 22 30  1  0
 22 23  1  0
 23 24  1  0
 24 29  1  0
 24 25  1  1
 25 26  1  0
 25 56  1  0
 25 57  1  0
 26 27  1  0
 26 58  1  0
 26 59  1  0
 27 28  1  0
 27 29  1  0
 27 66  1  6
 28 60  1  0
 28 61  1  0
 28 62  1  0
 29 30  1  0
 29 63  1  6
 30 64  1  0
 30 65  1  0
M  CHG  1  27   1
M  END
>  <i_m_ct_stereo_status>  (186) 
1

>  <s_m_source_file>  (186) 
/var/tmp/pbs.5076255.sched01/tmpp9awzhar/40nweoahkg.sdf

>  <i_m_source_file_index>  (186) 
33

>  <i_lp_mmshare_version>  (186) 
48012

>  <i_f3d_flags>  (186) 
0

>  <s_epik_input>  (186) 
W0NIM11bQ0hdKFtDSDNdKVtDQF0oW0NIM10pKFtPSF0pW0NASF0oW0NIMl0xKVtDQEBdKE9bQ0gzXSkoW0NIMl1bQ0gyXTIpW0NASF0zT2MoYzRbQ0BdNTZbQ0BAXTEyMyljKFtPSF0pW2NIXVtjSF1jNFtDSDJdW0NASF02TihbQ0gzXSlbQ0gyXVtDSDJdNQ==

>  <s_epik_cmdline>  (186) 
J2VwaWtfcHl0aG9uJywgJy1waHQnLCAnMi4wJywgJy1waCcsICc3LjAnLCAnLXRuJywgJzgnLCAnLW1hJywgJzIwMCcsICctaW1hZScsICc8aW5maWxlLm1hZT4nLCAnLW9tYWUnLCAnPG91dGZpbGUubWFlPic=

>  <r_lp_tautomer_probability>  (186) 
1

>  <r_epik_Ionization_Penalty>  (186) 
0.00874812

>  <r_epik_Ionization_Penalty_Charging>  (186) 
0.00660381

>  <r_epik_Ionization_Penalty_Neutral>  (186) 
0.00214431

>  <r_epik_State_Penalty>  (186) 
0.00489311

>  <r_epik_Charging_Adjusted_Penalty>  (186) 
0.0114969

>  <i_epik_Tot_Q>  (186) 
1

>  <i_epik_Tot_abs_Q>  (186) 
1

>  <s_lp_Force_Field>  (186) 
OPLS3e

>  <r_lp_Energy>  (186) 
94.8285

>  <b_lp_Chiralities_Consistent>  (186) 
1

>  <s_lp_Variant>  (186) 
51:0-1

>  <s_i_glide_gridfile>  (186) 
pfpi4k_grid

>  <i_i_glide_lignum>  (186) 
33

>  <i_i_glide_rotatable_bonds>  (186) 
5

>  <r_i_docking_score>  (186) 
-2.48348

>  <r_i_glide_ligand_efficiency>  (186) 
-0.0827826

>  <r_i_glide_ligand_efficiency_sa>  (186) 
-0.257225

>  <r_i_glide_ligand_efficiency_ln>  (186) 
-0.564273

>  <r_i_glide_gscore>  (186) 
-2.48348

>  <r_i_glide_lipo>  (186) 
-0.14045

>  <r_i_glide_hbond>  (186) 
0

>  <r_i_glide_metal>  (186) 
-0

>  <r_i_glide_rewards>  (186) 
-0.582562

>  <r_i_glide_evdw>  (186) 
-22.0377

>  <r_i_glide_ecoul>  (186) 
-4.93558

>  <r_i_glide_erotb>  (186) 
0.114854

>  <r_i_glide_esite>  (186) 
-0.0330968

>  <r_i_glide_emodel>  (186) 
-32.1244

>  <r_i_glide_energy>  (186) 
-26.9733

>  <r_i_glide_einternal>  (186) 
0.246574

>  <r_i_glide_intrahb_reward>  (186) 
-0

>  <i_i_glide_confnum>  (186) 
1

>  <i_i_glide_posenum>  (186) 
2

>  <r_i_glide_eff_state_penalty>  (186) 
0

>  <ligand_id>  (186) 
51

>  <original_smiles>  (186) 
COC12CCC3(CC1C(C)(O)C(C)C)C2Oc1c(O)ccc2c1C31CCN(C)C1C2

>  <smiles>  (186) 
[H]Oc1c([H])c([H])c2c3c1OC1([H])C4(OC([H])([H])[H])C([H])([H])C([H])([H])C1(C([H])([H])C4([H])C(O[H])(C([H])([H])[H])C([H])(C([H])([H])[H])C([H])([H])[H])C31C([H])([H])C([H])([H])[N+]([H])(C([H])([H])[H])C1([H])C2([H])[H]

$$$$
51:0:2
     RDKit          3D

 66 71  0  0  1  0  0  0  0  0999 V2000
   -0.2293   -4.7581    6.2239 C   0  0  0  0  0  0  0  0  0  0  0  0
    0.0214   -5.6851    5.1780 O   0  0  0  0  0  0  0  0  0  0  0  0
    1.2471   -5.5743    4.4540 C   0  0  1  0  0  0  0  0  0  0  0  0
    2.5494   -5.7079    5.2534 C   0  0  0  0  0  0  0  0  0  0  0  0
    3.5837   -5.1416    4.2681 C   0  0  0  0  0  0  0  0  0  0  0  0
    2.7528   -4.6536    3.0360 C   0  0  1  0  0  0  0  0  0  0  0  0
    2.2888   -5.9141    2.2707 C   0  0  0  0  0  0  0  0  0  0  0  0
    1.2336   -6.5450    3.2231 C   0  0  1  0  0  0  0  0  0  0  0  0
    1.3411   -8.1018    3.4245 C   0  0  1  0  0  0  0  0  0  0  0  0
    1.0854   -8.8256    2.0833 C   0  0  0  0  0  0  0  0  0  0  0  0
    2.6771   -8.4260    3.7593 O   0  0  0  0  0  0  0  0  0  0  0  0
    0.4168   -8.6491    4.5638 C   0  0  0  0  0  0  0  0  0  0  0  0
    0.6204  -10.1471    4.8889 C   0  0  0  0  0  0  0  0  0  0  0  0
   -1.0875   -8.3917    4.3238 C   0  0  0  0  0  0  0  0  0  0  0  0
    1.4576   -4.2348    3.7425 C   0  0  2  0  0  0  0  0  0  0  0  0
    1.7065   -3.0938    4.5698 O   0  0  0  0  0  0  0  0  0  0  0  0
    2.0446   -2.0025    3.8071 C   0  0  0  0  0  0  0  0  0  0  0  0
    1.5729   -0.6924    4.0640 C   0  0  0  0  0  0  0  0  0  0  0  0
    0.8779   -0.4470    5.2122 O   0  0  0  0  0  0  0  0  0  0  0  0
    1.7624    0.3564    3.1278 C   0  0  0  0  0  0  0  0  0  0  0  0
    2.3564    0.1107    1.8674 C   0  0  0  0  0  0  0  0  0  0  0  0
    2.8383   -1.1817    1.6047 C   0  0  0  0  0  0  0  0  0  0  0  0
    2.7562   -2.1465    2.6031 C   0  0  0  0  0  0  0  0  0  0  0  0
    3.4015   -3.4675    2.2170 C   0  0  1  0  0  0  0  0  0  0  0  0
    4.9592   -3.4619    2.2629 C   0  0  0  0  0  0  0  0  0  0  0  0
    5.3970   -4.3315    1.0751 C   0  0  0  0  0  0  0  0  0  0  0  0
    4.3027   -4.2542    0.0814 N   0  0  2  0  0  0  0  0  0  0  0  0
    4.7286   -3.9136   -1.2991 C   0  0  0  0  0  0  0  0  0  0  0  0
    3.2448   -3.4033    0.6843 C   0  0  2  0  0  0  0  0  0  0  0  0
    3.3484   -1.8826    0.3611 C   0  0  0  0  0  0  0  0  0  0  0  0
   -1.1588   -5.0402    6.7187 H   0  0  0  0  0  0  0  0  0  0  0  0
   -0.3591   -3.7442    5.8459 H   0  0  0  0  0  0  0  0  0  0  0  0
    0.5487   -4.7617    6.9860 H   0  0  0  0  0  0  0  0  0  0  0  0
    2.5393   -5.0831    6.1453 H   0  0  0  0  0  0  0  0  0  0  0  0
    2.7626   -6.7232    5.5814 H   0  0  0  0  0  0  0  0  0  0  0  0
    4.0956   -4.3190    4.7687 H   0  0  0  0  0  0  0  0  0  0  0  0
    4.3331   -5.8859    3.9960 H   0  0  0  0  0  0  0  0  0  0  0  0
    1.8134   -5.6805    1.3200 H   0  0  0  0  0  0  0  0  0  0  0  0
    3.1307   -6.5729    2.0537 H   0  0  0  0  0  0  0  0  0  0  0  0
    0.2702   -6.3813    2.7407 H   0  0  0  0  0  0  0  0  0  0  0  0
    0.0796   -8.6382    1.7086 H   0  0  0  0  0  0  0  0  0  0  0  0
    1.1983   -9.9063    2.1677 H   0  0  0  0  0  0  0  0  0  0  0  0
    1.7832   -8.5057    1.3095 H   0  0  0  0  0  0  0  0  0  0  0  0
    2.7343   -9.3660    3.8534 H   0  0  0  0  0  0  0  0  0  0  0  0
    0.6875   -8.1207    5.4781 H   0  0  0  0  0  0  0  0  0  0  0  0
    0.3215  -10.7938    4.0639 H   0  0  0  0  0  0  0  0  0  0  0  0
    0.0144  -10.4381    5.7474 H   0  0  0  0  0  0  0  0  0  0  0  0
    1.6505  -10.3852    5.1535 H   0  0  0  0  0  0  0  0  0  0  0  0
   -1.4716   -8.9864    3.4960 H   0  0  0  0  0  0  0  0  0  0  0  0
   -1.3172   -7.3510    4.1097 H   0  0  0  0  0  0  0  0  0  0  0  0
   -1.6639   -8.6577    5.2089 H   0  0  0  0  0  0  0  0  0  0  0  0
    0.6495   -4.0187    3.0416 H   0  0  0  0  0  0  0  0  0  0  0  0
    0.6201    0.4579    5.3012 H   0  0  0  0  0  0  0  0  0  0  0  0
    1.3873    1.3437    3.3413 H   0  0  0  0  0  0  0  0  0  0  0  0
    2.4052    0.8895    1.1185 H   0  0  0  0  0  0  0  0  0  0  0  0
    5.3341   -2.4501    2.0861 H   0  0  0  0  0  0  0  0  0  0  0  0
    5.4287   -3.7662    3.1953 H   0  0  0  0  0  0  0  0  0  0  0  0
    6.3582   -4.0112    0.6732 H   0  0  0  0  0  0  0  0  0  0  0  0
    5.5091   -5.3708    1.3880 H   0  0  0  0  0  0  0  0  0  0  0  0
    5.2697   -2.9682   -1.3417 H   0  0  0  0  0  0  0  0  0  0  0  0
    3.8675   -3.8560   -1.9664 H   0  0  0  0  0  0  0  0  0  0  0  0
    5.3936   -4.6857   -1.6879 H   0  0  0  0  0  0  0  0  0  0  0  0
    2.2578   -3.7438    0.3713 H   0  0  0  0  0  0  0  0  0  0  0  0
    2.7564   -1.6330   -0.5170 H   0  0  0  0  0  0  0  0  0  0  0  0
    4.3693   -1.5407    0.1790 H   0  0  0  0  0  0  0  0  0  0  0  0
    3.9184   -5.1881    0.0248 H   0  0  0  0  0  0  0  0  0  0  0  0
  1  2  1  0
  1 31  1  0
  1 32  1  0
  1 33  1  0
  3  2  1  1
  3  8  1  0
  3 15  1  0
  3  4  1  0
  4  5  1  0
  4 34  1  0
  4 35  1  0
  6  5  1  1
  5 36  1  0
  5 37  1  0
  6 24  1  0
  6  7  1  0
  6 15  1  0
  7  8  1  0
  7 38  1  0
  7 39  1  0
  8  9  1  0
  8 40  1  6
  9 10  1  0
  9 11  1  1
  9 12  1  0
 10 41  1  0
 10 42  1  0
 10 43  1  0
 11 44  1  0
 12 13  1  0
 12 14  1  0
 12 45  1  0
 13 46  1  0
 13 47  1  0
 13 48  1  0
 14 49  1  0
 14 50  1  0
 14 51  1  0
 15 16  1  0
 15 52  1  6
 16 17  1  0
 17 23  2  0
 17 18  1  0
 18 19  1  0
 18 20  2  0
 19 53  1  0
 20 21  1  0
 20 54  1  0
 21 22  2  0
 21 55  1  0
 22 30  1  0
 22 23  1  0
 23 24  1  0
 24 29  1  0
 24 25  1  6
 25 26  1  0
 25 56  1  0
 25 57  1  0
 26 27  1  0
 26 58  1  0
 26 59  1  0
 27 28  1  0
 27 29  1  0
 27 66  1  6
 28 60  1  0
 28 61  1  0
 28 62  1  0
 29 30  1  0
 29 63  1  1
 30 64  1  0
 30 65  1  0
M  CHG  1  27   1
M  END
>  <i_m_ct_stereo_status>  (187) 
1

>  <s_m_source_file>  (187) 
/var/tmp/pbs.5076255.sched01/tmpp9awzhar/40nweoahkg.sdf

>  <i_m_source_file_index>  (187) 
33

>  <i_lp_mmshare_version>  (187) 
48012

>  <i_f3d_flags>  (187) 
0

>  <s_epik_input>  (187) 
W0NIM11bQ0hdKFtDSDNdKVtDQF0oW0NIM10pKFtPSF0pW0NASF0oW0NIMl0xKVtDQEBdKE9bQ0gzXSkoW0NIMl1bQ0gyXTIpW0NASF0zT2MoYzRbQ0BdNTZbQ0BAXTEyMyljKFtPSF0pW2NIXVtjSF1jNFtDSDJdW0NASF02TihbQ0gzXSlbQ0gyXVtDSDJdNQ==

>  <s_epik_cmdline>  (187) 
J2VwaWtfcHl0aG9uJywgJy1waHQnLCAnMi4wJywgJy1waCcsICc3LjAnLCAnLXRuJywgJzgnLCAnLW1hJywgJzIwMCcsICctaW1hZScsICc8aW5maWxlLm1hZT4nLCAnLW9tYWUnLCAnPG91dGZpbGUubWFlPic=

>  <r_lp_tautomer_probability>  (187) 
1

>  <r_epik_Ionization_Penalty>  (187) 
0.00874812

>  <r_epik_Ionization_Penalty_Charging>  (187) 
0.00660381

>  <r_epik_Ionization_Penalty_Neutral>  (187) 
0.00214431

>  <r_epik_State_Penalty>  (187) 
0.00489311

>  <r_epik_Charging_Adjusted_Penalty>  (187) 
0.0114969

>  <i_epik_Tot_Q>  (187) 
1

>  <i_epik_Tot_abs_Q>  (187) 
1

>  <s_lp_Force_Field>  (187) 
OPLS3e

>  <r_lp_Energy>  (187) 
94.8285

>  <b_lp_Chiralities_Consistent>  (187) 
1

>  <s_lp_Variant>  (187) 
51:0-1

>  <s_i_glide_gridfile>  (187) 
pfpi4k_grid

>  <i_i_glide_lignum>  (187) 
33

>  <i_i_glide_rotatable_bonds>  (187) 
5

>  <r_i_docking_score>  (187) 
-2.1091

>  <r_i_glide_ligand_efficiency>  (187) 
-0.0703033

>  <r_i_glide_ligand_efficiency_sa>  (187) 
-0.218449

>  <r_i_glide_ligand_efficiency_ln>  (187) 
-0.47921

>  <r_i_glide_gscore>  (187) 
-2.1091

>  <r_i_glide_lipo>  (187) 
-0.0937456

>  <r_i_glide_hbond>  (187) 
0

>  <r_i_glide_metal>  (187) 
-0

>  <r_i_glide_rewards>  (187) 
-0.582562

>  <r_i_glide_evdw>  (187) 
-21.4481

>  <r_i_glide_ecoul>  (187) 
-3.16828

>  <r_i_glide_erotb>  (187) 
0.114854

>  <r_i_glide_esite>  (187) 
0

>  <r_i_glide_emodel>  (187) 
-28.9296

>  <r_i_glide_energy>  (187) 
-24.6164

>  <r_i_glide_einternal>  (187) 
0.335403

>  <r_i_glide_intrahb_reward>  (187) 
-0

>  <i_i_glide_confnum>  (187) 
3

>  <i_i_glide_posenum>  (187) 
23

>  <r_i_glide_eff_state_penalty>  (187) 
0

>  <ligand_id>  (187) 
51

>  <original_smiles>  (187) 
COC12CCC3(CC1C(C)(O)C(C)C)C2Oc1c(O)ccc2c1C31CCN(C)C1C2

>  <smiles>  (187) 
[H]Oc1c([H])c([H])c2c3c1OC1([H])C4(OC([H])([H])[H])C([H])([H])C([H])([H])C1(C([H])([H])C4([H])C(O[H])(C([H])([H])[H])C([H])(C([H])([H])[H])C([H])([H])[H])C31C([H])([H])C([H])([H])[N+]([H])(C([H])([H])[H])C1([H])C2([H])[H]

$$$$
52:0:0
     RDKit          3D

 42 45  0  0  1  0  0  0  0  0999 V2000
    7.0047  -11.5620    1.2821 N   0  0  0  0  0  0  0  0  0  0  0  0
    6.3767  -10.9407    2.0191 C   0  0  0  0  0  0  0  0  0  0  0  0
    5.5729  -10.1631    2.9731 C   0  0  0  0  0  0  0  0  0  0  0  0
    4.7887   -9.0642    2.3725 N   0  0  0  0  0  0  0  0  0  0  0  0
    5.4350   -8.0703    1.6994 C   0  0  0  0  0  0  0  0  0  0  0  0
    6.6692   -8.0785    1.6493 O   0  0  0  0  0  0  0  0  0  0  0  0
    4.6829   -7.0878    1.1041 N   0  0  0  0  0  0  0  0  0  0  0  0
    5.3941   -6.1158    0.2178 C   0  0  0  0  0  0  0  0  0  0  0  0
    5.3434   -4.6667    0.6619 C   0  0  0  0  0  0  0  0  0  0  0  0
    5.3945   -4.3363    2.0335 C   0  0  0  0  0  0  0  0  0  0  0  0
    5.2993   -2.9910    2.4390 C   0  0  0  0  0  0  0  0  0  0  0  0
    5.1799   -1.9702    1.4736 C   0  0  0  0  0  0  0  0  0  0  0  0
    5.1050   -0.6797    1.8715 F   0  0  0  0  0  0  0  0  0  0  0  0
    5.1534   -2.2948    0.0990 C   0  0  0  0  0  0  0  0  0  0  0  0
    5.0136   -1.0584   -1.0973 Cl  0  0  0  0  0  0  0  0  0  0  0  0
    5.2413   -3.6428   -0.3053 C   0  0  0  0  0  0  0  0  0  0  0  0
    3.3152   -6.9634    1.2621 C   0  0  0  0  0  0  0  0  0  0  0  0
    2.6431   -6.0765    0.7394 O   0  0  0  0  0  0  0  0  0  0  0  0
    2.6504   -7.9940    2.1074 C   0  0  0  0  0  0  0  0  0  0  0  0
    1.2670   -8.1069    2.5155 C   0  0  0  0  0  0  0  0  0  0  0  0
    1.0782   -9.2138    3.3032 C   0  0  0  0  0  0  0  0  0  0  0  0
    2.5267  -10.1214    3.5505 S   0  0  0  0  0  0  0  0  0  0  0  0
    3.4481   -8.9896    2.5942 C   0  0  0  0  0  0  0  0  0  0  0  0
   -0.1856   -9.6702    3.9164 C   0  0  0  0  0  0  0  0  0  0  0  0
   -1.2763   -8.5940    3.9041 C   0  0  0  0  0  0  0  0  0  0  0  0
   -1.2683   -7.8089    2.5803 C   0  0  0  0  0  0  0  0  0  0  0  0
    0.1089   -7.1828    2.2196 C   0  0  0  0  0  0  0  0  0  0  0  0
    4.9765  -10.9264    3.4765 H   0  0  0  0  0  0  0  0  0  0  0  0
    6.2199   -9.7343    3.7339 H   0  0  0  0  0  0  0  0  0  0  0  0
    6.4723   -6.2760    0.1157 H   0  0  0  0  0  0  0  0  0  0  0  0
    5.0077   -6.2092   -0.8019 H   0  0  0  0  0  0  0  0  0  0  0  0
    5.4815   -5.1138    2.7757 H   0  0  0  0  0  0  0  0  0  0  0  0
    5.3149   -2.7490    3.4919 H   0  0  0  0  0  0  0  0  0  0  0  0
    5.2065   -3.8906   -1.3567 H   0  0  0  0  0  0  0  0  0  0  0  0
   -0.5314  -10.5494    3.3768 H   0  0  0  0  0  0  0  0  0  0  0  0
   -0.0065  -10.0095    4.9334 H   0  0  0  0  0  0  0  0  0  0  0  0
   -2.2480   -9.0527    4.0966 H   0  0  0  0  0  0  0  0  0  0  0  0
   -1.0860   -7.9082    4.7291 H   0  0  0  0  0  0  0  0  0  0  0  0
   -1.5503   -8.5135    1.7999 H   0  0  0  0  0  0  0  0  0  0  0  0
   -2.0467   -7.0508    2.6071 H   0  0  0  0  0  0  0  0  0  0  0  0
    0.2332   -6.2704    2.8121 H   0  0  0  0  0  0  0  0  0  0  0  0
    0.1005   -6.8889    1.1653 H   0  0  0  0  0  0  0  0  0  0  0  0
  1  2  3  0
  2  3  1  0
  3  4  1  0
  3 28  1  0
  3 29  1  0
  4 23  1  0
  4  5  1  0
  5  6  2  0
  5  7  1  0
  7  8  1  0
  7 17  1  0
  8  9  1  0
  8 30  1  0
  8 31  1  0
  9 16  1  0
  9 10  2  0
 10 11  1  0
 10 32  1  0
 11 12  2  0
 11 33  1  0
 12 13  1  0
 12 14  1  0
 14 15  1  0
 14 16  2  0
 16 34  1  0
 17 18  2  0
 17 19  1  0
 19 23  2  0
 19 20  1  0
 20 27  1  0
 20 21  2  0
 21 22  1  0
 21 24  1  0
 22 23  1  0
 24 25  1  0
 24 35  1  0
 24 36  1  0
 25 26  1  0
 25 37  1  0
 25 38  1  0
 26 27  1  0
 26 39  1  0
 26 40  1  0
 27 41  1  0
 27 42  1  0
M  END
>  <i_m_ct_stereo_status>  (188) 
1

>  <s_m_source_file>  (188) 
/var/tmp/pbs.5076255.sched01/tmpp9awzhar/40nweoahkg.sdf

>  <i_m_source_file_index>  (188) 
34

>  <i_lp_mmshare_version>  (188) 
48012

>  <i_f3d_flags>  (188) 
0

>  <s_epik_input>  (188) 
W0NIMl0xW0NIMl1bQ0gyXVtDSDJdYyhjMWMyMylzYzNuKFtDSDJdQyNOKWMoPU8pbihjMj1PKVtDSDJdYzRbY0hdW2NIXWMoRiljKENsKVtjSF00

>  <s_epik_cmdline>  (188) 
J2VwaWtfcHl0aG9uJywgJy1waHQnLCAnMi4wJywgJy1waCcsICc3LjAnLCAnLXRuJywgJzgnLCAnLW1hJywgJzIwMCcsICctaW1hZScsICc8aW5maWxlLm1hZT4nLCAnLW9tYWUnLCAnPG91dGZpbGUubWFlPic=

>  <r_lp_tautomer_probability>  (188) 
1

>  <r_epik_Ionization_Penalty>  (188) 
1.56608e-09

>  <r_epik_Ionization_Penalty_Charging>  (188) 
9.6779e-10

>  <r_epik_Ionization_Penalty_Neutral>  (188) 
5.98285e-10

>  <r_epik_State_Penalty>  (188) 
-0

>  <r_epik_Charging_Adjusted_Penalty>  (188) 
9.6779e-10

>  <i_epik_Tot_Q>  (188) 
0

>  <i_epik_Tot_abs_Q>  (188) 
0

>  <s_lp_Force_Field>  (188) 
OPLS3e

>  <r_lp_Energy>  (188) 
37.1653

>  <b_lp_Chiralities_Consistent>  (188) 
1

>  <s_lp_Variant>  (188) 
52:0-1

>  <s_i_glide_gridfile>  (188) 
pfpi4k_grid

>  <i_i_glide_lignum>  (188) 
34

>  <i_i_glide_rotatable_bonds>  (188) 
4

>  <r_i_docking_score>  (188) 
-3.60096

>  <r_i_glide_ligand_efficiency>  (188) 
-0.133369

>  <r_i_glide_ligand_efficiency_sa>  (188) 
-0.400107

>  <r_i_glide_ligand_efficiency_ln>  (188) 
-0.838245

>  <r_i_glide_gscore>  (188) 
-3.60096

>  <r_i_glide_lipo>  (188) 
-0.432257

>  <r_i_glide_hbond>  (188) 
-0.32

>  <r_i_glide_metal>  (188) 
-0

>  <r_i_glide_rewards>  (188) 
-1.06621

>  <r_i_glide_evdw>  (188) 
-31.1543

>  <r_i_glide_ecoul>  (188) 
-3.31136

>  <r_i_glide_erotb>  (188) 
0.361202

>  <r_i_glide_esite>  (188) 
-0.0892814

>  <r_i_glide_emodel>  (188) 
-39.8913

>  <r_i_glide_energy>  (188) 
-34.4656

>  <r_i_glide_einternal>  (188) 
3.29507

>  <r_i_glide_intrahb_reward>  (188) 
-0

>  <i_i_glide_confnum>  (188) 
5

>  <i_i_glide_posenum>  (188) 
4

>  <r_i_glide_eff_state_penalty>  (188) 
0

>  <ligand_id>  (188) 
52

>  <original_smiles>  (188) 
N#CCn1c(=O)n(Cc2ccc(F)c(Cl)c2)c(=O)c2c3c(sc21)CCCC3

>  <smiles>  (188) 
[H]c1c([H])c(C([H])([H])n2c(=O)c3c4c(sc3n(C([H])([H])C#N)c2=O)C([H])([H])C([H])([H])C([H])([H])C4([H])[H])c([H])c(Cl)c1F

$$$$
52:0:1
     RDKit          3D

 42 45  0  0  1  0  0  0  0  0999 V2000
    6.6097  -10.7781    1.2613 N   0  0  0  0  0  0  0  0  0  0  0  0
    6.1729   -9.9667    1.9690 C   0  0  0  0  0  0  0  0  0  0  0  0
    5.6185   -8.9505    2.8659 C   0  0  0  0  0  0  0  0  0  0  0  0
    4.6541   -8.0495    2.2112 N   0  0  0  0  0  0  0  0  0  0  0  0
    5.1115   -6.9831    1.4872 C   0  0  0  0  0  0  0  0  0  0  0  0
    6.3207   -6.7506    1.4452 O   0  0  0  0  0  0  0  0  0  0  0  0
    4.1952   -6.1957    0.8342 N   0  0  0  0  0  0  0  0  0  0  0  0
    4.7423   -5.1140   -0.0424 C   0  0  0  0  0  0  0  0  0  0  0  0
    4.7226   -3.7166    0.5654 C   0  0  0  0  0  0  0  0  0  0  0  0
    4.7098   -2.5919   -0.2961 C   0  0  0  0  0  0  0  0  0  0  0  0
    4.6583   -1.2872    0.2386 C   0  0  0  0  0  0  0  0  0  0  0  0
    4.6301   -1.1047    1.6368 C   0  0  0  0  0  0  0  0  0  0  0  0
    4.5702    0.1452    2.1546 F   0  0  0  0  0  0  0  0  0  0  0  0
    4.6604   -2.2174    2.5019 C   0  0  0  0  0  0  0  0  0  0  0  0
    4.6167   -1.9924    4.2121 Cl  0  0  0  0  0  0  0  0  0  0  0  0
    4.7165   -3.5180    1.9689 C   0  0  0  0  0  0  0  0  0  0  0  0
    2.8289   -6.3292    0.9634 C   0  0  0  0  0  0  0  0  0  0  0  0
    1.9986   -5.5948    0.4328 O   0  0  0  0  0  0  0  0  0  0  0  0
    2.3606   -7.4597    1.8171 C   0  0  0  0  0  0  0  0  0  0  0  0
    1.0193   -7.8429    2.1848 C   0  0  0  0  0  0  0  0  0  0  0  0
    1.0248   -8.9471    2.9981 C   0  0  0  0  0  0  0  0  0  0  0  0
    2.6165   -9.5518    3.2935 S   0  0  0  0  0  0  0  0  0  0  0  0
    3.3258   -8.2571    2.3648 C   0  0  0  0  0  0  0  0  0  0  0  0
   -0.1457   -9.6415    3.5927 C   0  0  0  0  0  0  0  0  0  0  0  0
   -1.4232   -8.8074    3.5118 C   0  0  0  0  0  0  0  0  0  0  0  0
   -1.5197   -8.0726    2.1735 C   0  0  0  0  0  0  0  0  0  0  0  0
   -0.2930   -7.1860    1.8278 C   0  0  0  0  0  0  0  0  0  0  0  0
    5.2071   -9.4828    3.7218 H   0  0  0  0  0  0  0  0  0  0  0  0
    6.4445   -8.3935    3.2898 H   0  0  0  0  0  0  0  0  0  0  0  0
    5.7792   -5.2913   -0.3442 H   0  0  0  0  0  0  0  0  0  0  0  0
    4.2174   -5.0848   -0.9978 H   0  0  0  0  0  0  0  0  0  0  0  0
    4.7209   -2.7367   -1.3695 H   0  0  0  0  0  0  0  0  0  0  0  0
    4.6255   -0.4316   -0.4190 H   0  0  0  0  0  0  0  0  0  0  0  0
    4.7424   -4.3547    2.6535 H   0  0  0  0  0  0  0  0  0  0  0  0
   -0.2785  -10.5879    3.0766 H   0  0  0  0  0  0  0  0  0  0  0  0
    0.0607   -9.9120    4.6255 H   0  0  0  0  0  0  0  0  0  0  0  0
   -2.2989   -9.4377    3.6731 H   0  0  0  0  0  0  0  0  0  0  0  0
   -1.4119   -8.0809    4.3220 H   0  0  0  0  0  0  0  0  0  0  0  0
   -1.6299   -8.8429    1.4112 H   0  0  0  0  0  0  0  0  0  0  0  0
   -2.4404   -7.4949    2.1659 H   0  0  0  0  0  0  0  0  0  0  0  0
   -0.3738   -6.2603    2.4010 H   0  0  0  0  0  0  0  0  0  0  0  0
   -0.3297   -6.9294    0.7647 H   0  0  0  0  0  0  0  0  0  0  0  0
  1  2  3  0
  2  3  1  0
  3  4  1  0
  3 28  1  0
  3 29  1  0
  4 23  1  0
  4  5  1  0
  5  6  2  0
  5  7  1  0
  7  8  1  0
  7 17  1  0
  8  9  1  0
  8 30  1  0
  8 31  1  0
  9 16  1  0
  9 10  2  0
 10 11  1  0
 10 32  1  0
 11 12  2  0
 11 33  1  0
 12 13  1  0
 12 14  1  0
 14 15  1  0
 14 16  2  0
 16 34  1  0
 17 18  2  0
 17 19  1  0
 19 23  2  0
 19 20  1  0
 20 27  1  0
 20 21  2  0
 21 22  1  0
 21 24  1  0
 22 23  1  0
 24 25  1  0
 24 35  1  0
 24 36  1  0
 25 26  1  0
 25 37  1  0
 25 38  1  0
 26 27  1  0
 26 39  1  0
 26 40  1  0
 27 41  1  0
 27 42  1  0
M  END
>  <i_m_ct_stereo_status>  (189) 
1

>  <s_m_source_file>  (189) 
/var/tmp/pbs.5076255.sched01/tmpp9awzhar/40nweoahkg.sdf

>  <i_m_source_file_index>  (189) 
34

>  <i_lp_mmshare_version>  (189) 
48012

>  <i_f3d_flags>  (189) 
0

>  <s_epik_input>  (189) 
W0NIMl0xW0NIMl1bQ0gyXVtDSDJdYyhjMWMyMylzYzNuKFtDSDJdQyNOKWMoPU8pbihjMj1PKVtDSDJdYzRbY0hdW2NIXWMoRiljKENsKVtjSF00

>  <s_epik_cmdline>  (189) 
J2VwaWtfcHl0aG9uJywgJy1waHQnLCAnMi4wJywgJy1waCcsICc3LjAnLCAnLXRuJywgJzgnLCAnLW1hJywgJzIwMCcsICctaW1hZScsICc8aW5maWxlLm1hZT4nLCAnLW9tYWUnLCAnPG91dGZpbGUubWFlPic=

>  <r_lp_tautomer_probability>  (189) 
1

>  <r_epik_Ionization_Penalty>  (189) 
1.56608e-09

>  <r_epik_Ionization_Penalty_Charging>  (189) 
9.6779e-10

>  <r_epik_Ionization_Penalty_Neutral>  (189) 
5.98285e-10

>  <r_epik_State_Penalty>  (189) 
-0

>  <r_epik_Charging_Adjusted_Penalty>  (189) 
9.6779e-10

>  <i_epik_Tot_Q>  (189) 
0

>  <i_epik_Tot_abs_Q>  (189) 
0

>  <s_lp_Force_Field>  (189) 
OPLS3e

>  <r_lp_Energy>  (189) 
37.1653

>  <b_lp_Chiralities_Consistent>  (189) 
1

>  <s_lp_Variant>  (189) 
52:0-1

>  <s_i_glide_gridfile>  (189) 
pfpi4k_grid

>  <i_i_glide_lignum>  (189) 
34

>  <i_i_glide_rotatable_bonds>  (189) 
4

>  <r_i_docking_score>  (189) 
-2.83464

>  <r_i_glide_ligand_efficiency>  (189) 
-0.104987

>  <r_i_glide_ligand_efficiency_sa>  (189) 
-0.31496

>  <r_i_glide_ligand_efficiency_ln>  (189) 
-0.659856

>  <r_i_glide_gscore>  (189) 
-2.83464

>  <r_i_glide_lipo>  (189) 
-0.188445

>  <r_i_glide_hbond>  (189) 
-0.127995

>  <r_i_glide_metal>  (189) 
-0

>  <r_i_glide_rewards>  (189) 
-0.958421

>  <r_i_glide_evdw>  (189) 
-29.9545

>  <r_i_glide_ecoul>  (189) 
-2.63413

>  <r_i_glide_erotb>  (189) 
0.361202

>  <r_i_glide_esite>  (189) 
-0.0281303

>  <r_i_glide_emodel>  (189) 
-37.532

>  <r_i_glide_energy>  (189) 
-32.5887

>  <r_i_glide_einternal>  (189) 
1.10563

>  <r_i_glide_intrahb_reward>  (189) 
-0

>  <i_i_glide_confnum>  (189) 
2

>  <i_i_glide_posenum>  (189) 
14

>  <r_i_glide_eff_state_penalty>  (189) 
0

>  <ligand_id>  (189) 
52

>  <original_smiles>  (189) 
N#CCn1c(=O)n(Cc2ccc(F)c(Cl)c2)c(=O)c2c3c(sc21)CCCC3

>  <smiles>  (189) 
[H]c1c([H])c(C([H])([H])n2c(=O)c3c4c(sc3n(C([H])([H])C#N)c2=O)C([H])([H])C([H])([H])C([H])([H])C4([H])[H])c([H])c(Cl)c1F

$$$$
52:0:2
     RDKit          3D

 42 45  0  0  1  0  0  0  0  0999 V2000
    0.9291   -1.6914    5.3984 N   0  0  0  0  0  0  0  0  0  0  0  0
    1.7951   -2.4566    5.4246 C   0  0  0  0  0  0  0  0  0  0  0  0
    2.8880   -3.4427    5.4496 C   0  0  0  0  0  0  0  0  0  0  0  0
    2.9393   -4.2000    4.1947 N   0  0  0  0  0  0  0  0  0  0  0  0
    3.8760   -3.9040    3.2485 C   0  0  0  0  0  0  0  0  0  0  0  0
    4.6645   -2.9803    3.4428 O   0  0  0  0  0  0  0  0  0  0  0  0
    3.9040   -4.6650    2.1075 N   0  0  0  0  0  0  0  0  0  0  0  0
    5.0365   -4.4273    1.1695 C   0  0  0  0  0  0  0  0  0  0  0  0
    4.7392   -3.4135    0.0715 C   0  0  0  0  0  0  0  0  0  0  0  0
    4.5943   -2.0368    0.3664 C   0  0  0  0  0  0  0  0  0  0  0  0
    4.3238   -1.1066   -0.6555 C   0  0  0  0  0  0  0  0  0  0  0  0
    4.2000   -1.5450   -1.9882 C   0  0  0  0  0  0  0  0  0  0  0  0
    3.9626   -0.6507   -2.9774 F   0  0  0  0  0  0  0  0  0  0  0  0
    4.3458   -2.9158   -2.2950 C   0  0  0  0  0  0  0  0  0  0  0  0
    4.2134   -3.4549   -3.9219 Cl  0  0  0  0  0  0  0  0  0  0  0  0
    4.6170   -3.8457   -1.2669 C   0  0  0  0  0  0  0  0  0  0  0  0
    2.9748   -5.6311    1.8011 C   0  0  0  0  0  0  0  0  0  0  0  0
    2.9888   -6.2820    0.7622 O   0  0  0  0  0  0  0  0  0  0  0  0
    1.8908   -5.8548    2.8098 C   0  0  0  0  0  0  0  0  0  0  0  0
    0.7362   -6.7267    2.7718 C   0  0  0  0  0  0  0  0  0  0  0  0
   -0.0082   -6.6218    3.9239 C   0  0  0  0  0  0  0  0  0  0  0  0
    0.6559   -5.4853    5.0447 S   0  0  0  0  0  0  0  0  0  0  0  0
    1.9738   -5.1181    3.9561 C   0  0  0  0  0  0  0  0  0  0  0  0
   -1.2543   -7.3596    4.2670 C   0  0  0  0  0  0  0  0  0  0  0  0
   -1.8823   -8.0328    3.0509 C   0  0  0  0  0  0  0  0  0  0  0  0
   -0.8265   -8.6519    2.1322 C   0  0  0  0  0  0  0  0  0  0  0  0
    0.2768   -7.6591    1.6685 C   0  0  0  0  0  0  0  0  0  0  0  0
    3.8105   -2.9135    5.6847 H   0  0  0  0  0  0  0  0  0  0  0  0
    2.7330   -4.1192    6.2925 H   0  0  0  0  0  0  0  0  0  0  0  0
    5.9266   -4.0654    1.6928 H   0  0  0  0  0  0  0  0  0  0  0  0
    5.3979   -5.3575    0.7201 H   0  0  0  0  0  0  0  0  0  0  0  0
    4.6932   -1.6697    1.3736 H   0  0  0  0  0  0  0  0  0  0  0  0
    4.2169   -0.0600   -0.4107 H   0  0  0  0  0  0  0  0  0  0  0  0
    4.7284   -4.8940   -1.5129 H   0  0  0  0  0  0  0  0  0  0  0  0
   -1.0215   -8.1156    5.0138 H   0  0  0  0  0  0  0  0  0  0  0  0
   -1.9738   -6.6909    4.7382 H   0  0  0  0  0  0  0  0  0  0  0  0
   -2.5790   -8.7963    3.3868 H   0  0  0  0  0  0  0  0  0  0  0  0
   -2.4488   -7.3015    2.4807 H   0  0  0  0  0  0  0  0  0  0  0  0
   -0.3619   -9.4693    2.6794 H   0  0  0  0  0  0  0  0  0  0  0  0
   -1.3424   -9.0987    1.2897 H   0  0  0  0  0  0  0  0  0  0  0  0
   -0.1303   -7.0684    0.8447 H   0  0  0  0  0  0  0  0  0  0  0  0
    1.1169   -8.2270    1.2611 H   0  0  0  0  0  0  0  0  0  0  0  0
  1  2  3  0
  2  3  1  0
  3  4  1  0
  3 28  1  0
  3 29  1  0
  4 23  1  0
  4  5  1  0
  5  6  2  0
  5  7  1  0
  7  8  1  0
  7 17  1  0
  8  9  1  0
  8 30  1  0
  8 31  1  0
  9 16  1  0
  9 10  2  0
 10 11  1  0
 10 32  1  0
 11 12  2  0
 11 33  1  0
 12 13  1  0
 12 14  1  0
 14 15  1  0
 14 16  2  0
 16 34  1  0
 17 18  2  0
 17 19  1  0
 19 23  2  0
 19 20  1  0
 20 27  1  0
 20 21  2  0
 21 22  1  0
 21 24  1  0
 22 23  1  0
 24 25  1  0
 24 35  1  0
 24 36  1  0
 25 26  1  0
 25 37  1  0
 25 38  1  0
 26 27  1  0
 26 39  1  0
 26 40  1  0
 27 41  1  0
 27 42  1  0
M  END
>  <i_m_ct_stereo_status>  (190) 
1

>  <s_m_source_file>  (190) 
/var/tmp/pbs.5076255.sched01/tmpp9awzhar/40nweoahkg.sdf

>  <i_m_source_file_index>  (190) 
34

>  <i_lp_mmshare_version>  (190) 
48012

>  <i_f3d_flags>  (190) 
0

>  <s_epik_input>  (190) 
W0NIMl0xW0NIMl1bQ0gyXVtDSDJdYyhjMWMyMylzYzNuKFtDSDJdQyNOKWMoPU8pbihjMj1PKVtDSDJdYzRbY0hdW2NIXWMoRiljKENsKVtjSF00

>  <s_epik_cmdline>  (190) 
J2VwaWtfcHl0aG9uJywgJy1waHQnLCAnMi4wJywgJy1waCcsICc3LjAnLCAnLXRuJywgJzgnLCAnLW1hJywgJzIwMCcsICctaW1hZScsICc8aW5maWxlLm1hZT4nLCAnLW9tYWUnLCAnPG91dGZpbGUubWFlPic=

>  <r_lp_tautomer_probability>  (190) 
1

>  <r_epik_Ionization_Penalty>  (190) 
1.56608e-09

>  <r_epik_Ionization_Penalty_Charging>  (190) 
9.6779e-10

>  <r_epik_Ionization_Penalty_Neutral>  (190) 
5.98285e-10

>  <r_epik_State_Penalty>  (190) 
-0

>  <r_epik_Charging_Adjusted_Penalty>  (190) 
9.6779e-10

>  <i_epik_Tot_Q>  (190) 
0

>  <i_epik_Tot_abs_Q>  (190) 
0

>  <s_lp_Force_Field>  (190) 
OPLS3e

>  <r_lp_Energy>  (190) 
37.1653

>  <b_lp_Chiralities_Consistent>  (190) 
1

>  <s_lp_Variant>  (190) 
52:0-1

>  <s_i_glide_gridfile>  (190) 
pfpi4k_grid

>  <i_i_glide_lignum>  (190) 
34

>  <i_i_glide_rotatable_bonds>  (190) 
4

>  <r_i_docking_score>  (190) 
-2.42172

>  <r_i_glide_ligand_efficiency>  (190) 
-0.0896934

>  <r_i_glide_ligand_efficiency_sa>  (190) 
-0.26908

>  <r_i_glide_ligand_efficiency_ln>  (190) 
-0.563737

>  <r_i_glide_gscore>  (190) 
-2.42172

>  <r_i_glide_lipo>  (190) 
-0.125405

>  <r_i_glide_hbond>  (190) 
0

>  <r_i_glide_metal>  (190) 
-0

>  <r_i_glide_rewards>  (190) 
-0.847467

>  <r_i_glide_evdw>  (190) 
-31.6097

>  <r_i_glide_ecoul>  (190) 
-1.5304

>  <r_i_glide_erotb>  (190) 
0.361202

>  <r_i_glide_esite>  (190) 
-5.64726e-06

>  <r_i_glide_emodel>  (190) 
-37.3019

>  <r_i_glide_energy>  (190) 
-33.1401

>  <r_i_glide_einternal>  (190) 
0.85486

>  <r_i_glide_intrahb_reward>  (190) 
-0

>  <i_i_glide_confnum>  (190) 
4

>  <i_i_glide_posenum>  (190) 
15

>  <r_i_glide_eff_state_penalty>  (190) 
0

>  <ligand_id>  (190) 
52

>  <original_smiles>  (190) 
N#CCn1c(=O)n(Cc2ccc(F)c(Cl)c2)c(=O)c2c3c(sc21)CCCC3

>  <smiles>  (190) 
[H]c1c([H])c(C([H])([H])n2c(=O)c3c4c(sc3n(C([H])([H])C#N)c2=O)C([H])([H])C([H])([H])C([H])([H])C4([H])[H])c([H])c(Cl)c1F

$$$$
53:0:0
     RDKit          3D

 44 47  0  0  1  0  0  0  0  0999 V2000
   -0.9133    3.5153    9.9570 C   0  0  0  0  0  0  0  0  0  0  0  0
   -1.0033    3.3021    8.4273 C   0  0  2  0  0  0  0  0  0  0  0  0
   -2.4952    3.3333    8.0083 C   0  0  0  0  0  0  0  0  0  0  0  0
   -2.7497    2.9501    6.5391 C   0  0  0  0  0  0  0  0  0  0  0  0
   -1.4360    2.7277    5.7704 C   0  0  2  0  0  0  0  0  0  0  0  0
   -1.5072    2.5526    4.2419 C   0  0  1  0  0  0  0  0  0  0  0  0
   -2.4876    3.5308    3.5439 C   0  0  0  0  0  0  0  0  0  0  0  0
   -0.0301    2.7499    3.7021 C   0  0  1  0  0  0  0  0  0  0  0  0
    0.1804    4.0860    3.2882 O   0  0  0  0  0  0  0  0  0  0  0  0
    0.9260    2.3951    4.6792 O   0  0  0  0  0  0  0  0  0  0  0  0
    0.5658    1.2773    5.4307 C   0  0  1  0  0  0  0  0  0  0  0  0
    1.6113    0.6018    6.0292 O   0  0  0  0  0  0  0  0  0  0  0  0
    1.1744   -0.3135    7.0225 C   0  0  1  0  0  0  0  0  0  0  0  0
    2.0418   -1.5742    6.8701 C   0  0  0  0  0  0  0  0  0  0  0  0
    1.4923    0.3342    8.3810 C   0  0  0  0  0  0  0  0  0  0  0  0
    1.1309    1.8107    8.4149 C   0  0  0  0  0  0  0  0  0  0  0  0
   -0.3138    1.9898    7.9495 C   0  0  2  0  0  0  0  0  0  0  0  0
   -0.5907    1.6042    6.4308 C   0  0  1  0  0  0  0  0  0  0  0  0
   -1.2369    0.3459    6.5166 O   0  0  0  0  0  0  0  0  0  0  0  0
   -0.2122   -0.7589    6.9068 O   0  0  0  0  0  0  0  0  0  0  0  0
   -1.2185    2.6205   10.4982 H   0  0  0  0  0  0  0  0  0  0  0  0
   -1.5696    4.3197   10.2937 H   0  0  0  0  0  0  0  0  0  0  0  0
    0.0941    3.7743   10.2825 H   0  0  0  0  0  0  0  0  0  0  0  0
   -0.4959    4.1516    7.9655 H   0  0  0  0  0  0  0  0  0  0  0  0
   -3.0685    2.6614    8.6520 H   0  0  0  0  0  0  0  0  0  0  0  0
   -2.8935    4.3330    8.1906 H   0  0  0  0  0  0  0  0  0  0  0  0
   -3.3576    2.0449    6.5309 H   0  0  0  0  0  0  0  0  0  0  0  0
   -3.3545    3.7363    6.0879 H   0  0  0  0  0  0  0  0  0  0  0  0
   -0.8921    3.6690    5.8730 H   0  0  0  0  0  0  0  0  0  0  0  0
   -1.8196    1.5390    4.0120 H   0  0  0  0  0  0  0  0  0  0  0  0
   -2.3013    4.5471    3.8775 H   0  0  0  0  0  0  0  0  0  0  0  0
   -3.5249    3.3056    3.7700 H   0  0  0  0  0  0  0  0  0  0  0  0
   -2.3898    3.5205    2.4583 H   0  0  0  0  0  0  0  0  0  0  0  0
    0.1337    2.1197    2.8200 H   0  0  0  0  0  0  0  0  0  0  0  0
    0.2094    4.1351    2.3168 H   0  0  0  0  0  0  0  0  0  0  0  0
    0.2200    0.5331    4.7002 H   0  0  0  0  0  0  0  0  0  0  0  0
    1.8940   -2.0541    5.9017 H   0  0  0  0  0  0  0  0  0  0  0  0
    1.8069   -2.3048    7.6465 H   0  0  0  0  0  0  0  0  0  0  0  0
    3.1063   -1.3402    6.9577 H   0  0  0  0  0  0  0  0  0  0  0  0
    0.9694   -0.2076    9.1714 H   0  0  0  0  0  0  0  0  0  0  0  0
    2.5527    0.2577    8.6117 H   0  0  0  0  0  0  0  0  0  0  0  0
    1.2835    2.1277    9.4434 H   0  0  0  0  0  0  0  0  0  0  0  0
    1.8100    2.4006    7.8006 H   0  0  0  0  0  0  0  0  0  0  0  0
   -0.8653    1.2493    8.5327 H   0  0  0  0  0  0  0  0  0  0  0  0
  1  2  1  0
  1 21  1  0
  1 22  1  0
  1 23  1  0
  2 17  1  0
  2  3  1  0
  2 24  1  6
  3  4  1  0
  3 25  1  0
  3 26  1  0
  4  5  1  0
  4 27  1  0
  4 28  1  0
  5 18  1  0
  5  6  1  0
  5 29  1  6
  6  7  1  0
  6  8  1  0
  6 30  1  1
  7 31  1  0
  7 32  1  0
  7 33  1  0
  8  9  1  0
  8 10  1  0
  8 34  1  6
  9 35  1  0
 10 11  1  0
 11 18  1  0
 11 12  1  0
 11 36  1  6
 12 13  1  0
 13 20  1  0
 13 14  1  6
 13 15  1  0
 14 37  1  0
 14 38  1  0
 14 39  1  0
 15 16  1  0
 15 40  1  0
 15 41  1  0
 16 17  1  0
 16 42  1  0
 16 43  1  0
 17 18  1  0
 17 44  1  1
 18 19  1  1
 19 20  1  0
M  END
>  <i_m_ct_stereo_status>  (191) 
1

>  <s_m_source_file>  (191) 
/var/tmp/pbs.5076255.sched01/tmpp9awzhar/40nweoahkg.sdf

>  <i_m_source_file_index>  (191) 
35

>  <i_lp_mmshare_version>  (191) 
48012

>  <i_f3d_flags>  (191) 
0

>  <s_epik_input>  (191) 
W0NAXTEyM1tDQEBIXTRbQ0gyXVtDSDJdW0NAQEhdKFtDSDNdKVtDQEBIXTJbQ0gyXVtDSDJdW0NAQF0oW0NIM10pKE9PMylPW0NAQEhdMU9bQ0BIXShbT0hdKVtDQEBIXTRbQ0gzXQ==

>  <s_epik_cmdline>  (191) 
J2VwaWtfcHl0aG9uJywgJy1waHQnLCAnMi4wJywgJy1waCcsICc3LjAnLCAnLXRuJywgJzgnLCAnLW1hJywgJzIwMCcsICctaW1hZScsICc8aW5maWxlLm1hZT4nLCAnLW9tYWUnLCAnPG91dGZpbGUubWFlPic=

>  <r_lp_tautomer_probability>  (191) 
1

>  <r_epik_Ionization_Penalty>  (191) 
3.16671e-07

>  <r_epik_Ionization_Penalty_Charging>  (191) 
0

>  <r_epik_Ionization_Penalty_Neutral>  (191) 
3.16671e-07

>  <r_epik_State_Penalty>  (191) 
-0

>  <r_epik_Charging_Adjusted_Penalty>  (191) 
0

>  <i_epik_Tot_Q>  (191) 
0

>  <i_epik_Tot_abs_Q>  (191) 
0

>  <s_epik_Chemistry_Notes>  (191) 
This compound contains an acetal/aminal-like group ( X-CH(R)-Y where X, Y are N, S, or O) that may be acid/base labile, releasing an aldehyde.

>  <s_lp_Force_Field>  (191) 
OPLS3e

>  <r_lp_Energy>  (191) 
64.0424

>  <b_lp_Chiralities_Consistent>  (191) 
1

>  <s_lp_Variant>  (191) 
53:0-1

>  <s_i_glide_gridfile>  (191) 
pfpi4k_grid

>  <i_i_glide_lignum>  (191) 
35

>  <i_i_glide_rotatable_bonds>  (191) 
1

>  <r_i_docking_score>  (191) 
-3.82287

>  <r_i_glide_ligand_efficiency>  (191) 
-0.191143

>  <r_i_glide_ligand_efficiency_sa>  (191) 
-0.518843

>  <r_i_glide_ligand_efficiency_ln>  (191) 
-0.956737

>  <r_i_glide_gscore>  (191) 
-3.82287

>  <r_i_glide_lipo>  (191) 
-0.276067

>  <r_i_glide_hbond>  (191) 
-0.129736

>  <r_i_glide_metal>  (191) 
-0

>  <r_i_glide_rewards>  (191) 
-1.47035

>  <r_i_glide_evdw>  (191) 
-14.196

>  <r_i_glide_ecoul>  (191) 
-7.83689

>  <r_i_glide_erotb>  (191) 
0

>  <r_i_glide_esite>  (191) 
-0.0613752

>  <r_i_glide_emodel>  (191) 
-27.4505

>  <r_i_glide_energy>  (191) 
-22.0329

>  <r_i_glide_einternal>  (191) 
1.94626

>  <r_i_glide_intrahb_reward>  (191) 
-0

>  <i_i_glide_confnum>  (191) 
2

>  <i_i_glide_posenum>  (191) 
16

>  <r_i_glide_eff_state_penalty>  (191) 
0

>  <ligand_id>  (191) 
53

>  <original_smiles>  (191) 
CC1CCC2C(C)C(O)OC3OC4(C)CCC1C32OO4

>  <smiles>  (191) 
[H]OC1([H])OC2([H])OC3(C([H])([H])[H])OOC24C([H])(C([H])([H])C([H])([H])C([H])(C([H])([H])[H])C4([H])C([H])([H])C3([H])[H])C1([H])C([H])([H])[H]

$$$$
53:0:1
     RDKit          3D

 44 47  0  0  1  0  0  0  0  0999 V2000
    0.0950    1.7753    9.4299 C   0  0  0  0  0  0  0  0  0  0  0  0
   -0.1712    1.9749    7.9243 C   0  0  2  0  0  0  0  0  0  0  0  0
   -1.5179    2.7305    7.7501 C   0  0  0  0  0  0  0  0  0  0  0  0
   -2.0126    2.8433    6.2952 C   0  0  0  0  0  0  0  0  0  0  0  0
   -0.9797    2.2626    5.3122 C   0  0  2  0  0  0  0  0  0  0  0  0
   -1.2013    2.5037    3.8098 C   0  0  1  0  0  0  0  0  0  0  0  0
   -1.6661    3.9414    3.4761 C   0  0  0  0  0  0  0  0  0  0  0  0
    0.1707    2.1496    3.0975 C   0  0  1  0  0  0  0  0  0  0  0  0
    0.9401    3.3093    2.8788 O   0  0  0  0  0  0  0  0  0  0  0  0
    0.9076    1.2115    3.8390 O   0  0  0  0  0  0  0  0  0  0  0  0
    0.1221    0.2108    4.4099 C   0  0  1  0  0  0  0  0  0  0  0  0
    0.7770   -0.9670    4.7040 O   0  0  0  0  0  0  0  0  0  0  0  0
    0.0363   -1.8036    5.5808 C   0  0  1  0  0  0  0  0  0  0  0  0
    0.2285   -3.2383    5.0732 C   0  0  0  0  0  0  0  0  0  0  0  0
    0.6947   -1.6818    6.9635 C   0  0  0  0  0  0  0  0  0  0  0  0
    1.0521   -0.2454    7.3151 C   0  0  0  0  0  0  0  0  0  0  0  0
   -0.1785    0.6451    7.1142 C   0  0  2  0  0  0  0  0  0  0  0  0
   -0.6969    0.7662    5.6244 C   0  0  1  0  0  0  0  0  0  0  0  0
   -1.8366   -0.0756    5.5987 O   0  0  0  0  0  0  0  0  0  0  0  0
   -1.4025   -1.5678    5.6115 O   0  0  0  0  0  0  0  0  0  0  0  0
   -0.5456    1.0016    9.8505 H   0  0  0  0  0  0  0  0  0  0  0  0
   -0.0981    2.6793   10.0034 H   0  0  0  0  0  0  0  0  0  0  0  0
    1.1275    1.4907    9.6347 H   0  0  0  0  0  0  0  0  0  0  0  0
    0.6327    2.6093    7.5450 H   0  0  0  0  0  0  0  0  0  0  0  0
   -2.2942    2.2507    8.3500 H   0  0  0  0  0  0  0  0  0  0  0  0
   -1.4048    3.7364    8.1584 H   0  0  0  0  0  0  0  0  0  0  0  0
   -2.9680    2.3288    6.1852 H   0  0  0  0  0  0  0  0  0  0  0  0
   -2.2057    3.8997    6.0952 H   0  0  0  0  0  0  0  0  0  0  0  0
   -0.0676    2.8311    5.4975 H   0  0  0  0  0  0  0  0  0  0  0  0
   -1.9523    1.8061    3.4494 H   0  0  0  0  0  0  0  0  0  0  0  0
   -1.0194    4.6837    3.9443 H   0  0  0  0  0  0  0  0  0  0  0  0
   -2.6774    4.1292    3.8278 H   0  0  0  0  0  0  0  0  0  0  0  0
   -1.6703    4.1410    2.4074 H   0  0  0  0  0  0  0  0  0  0  0  0
   -0.0269    1.7261    2.1035 H   0  0  0  0  0  0  0  0  0  0  0  0
    0.6506    3.7021    2.0274 H   0  0  0  0  0  0  0  0  0  0  0  0
   -0.5675   -0.1124    3.6187 H   0  0  0  0  0  0  0  0  0  0  0  0
   -0.1775   -3.3646    4.0744 H   0  0  0  0  0  0  0  0  0  0  0  0
   -0.2672   -3.9514    5.7312 H   0  0  0  0  0  0  0  0  0  0  0  0
    1.2844   -3.5122    5.0331 H   0  0  0  0  0  0  0  0  0  0  0  0
    0.0351   -2.1121    7.7169 H   0  0  0  0  0  0  0  0  0  0  0  0
    1.6212   -2.2588    7.0072 H   0  0  0  0  0  0  0  0  0  0  0  0
    1.3920   -0.2673    8.3474 H   0  0  0  0  0  0  0  0  0  0  0  0
    1.8878    0.1160    6.7156 H   0  0  0  0  0  0  0  0  0  0  0  0
   -0.9686    0.1137    7.6435 H   0  0  0  0  0  0  0  0  0  0  0  0
  1  2  1  0
  1 21  1  0
  1 22  1  0
  1 23  1  0
  2 17  1  0
  2  3  1  0
  2 24  1  6
  3  4  1  0
  3 25  1  0
  3 26  1  0
  4  5  1  0
  4 27  1  0
  4 28  1  0
  5 18  1  0
  5  6  1  0
  5 29  1  1
  6  7  1  0
  6  8  1  0
  6 30  1  6
  7 31  1  0
  7 32  1  0
  7 33  1  0
  8  9  1  0
  8 10  1  0
  8 34  1  6
  9 35  1  0
 10 11  1  0
 11 18  1  0
 11 12  1  0
 11 36  1  6
 12 13  1  0
 13 20  1  0
 13 14  1  6
 13 15  1  0
 14 37  1  0
 14 38  1  0
 14 39  1  0
 15 16  1  0
 15 40  1  0
 15 41  1  0
 16 17  1  0
 16 42  1  0
 16 43  1  0
 17 18  1  0
 17 44  1  1
 18 19  1  1
 19 20  1  0
M  END
>  <i_m_ct_stereo_status>  (192) 
1

>  <s_m_source_file>  (192) 
/var/tmp/pbs.5076255.sched01/tmpp9awzhar/40nweoahkg.sdf

>  <i_m_source_file_index>  (192) 
35

>  <i_lp_mmshare_version>  (192) 
48012

>  <i_f3d_flags>  (192) 
0

>  <s_epik_input>  (192) 
W0NAXTEyM1tDQEBIXTRbQ0gyXVtDSDJdW0NAQEhdKFtDSDNdKVtDQEBIXTJbQ0gyXVtDSDJdW0NAQF0oW0NIM10pKE9PMylPW0NAQEhdMU9bQ0BIXShbT0hdKVtDQEBIXTRbQ0gzXQ==

>  <s_epik_cmdline>  (192) 
J2VwaWtfcHl0aG9uJywgJy1waHQnLCAnMi4wJywgJy1waCcsICc3LjAnLCAnLXRuJywgJzgnLCAnLW1hJywgJzIwMCcsICctaW1hZScsICc8aW5maWxlLm1hZT4nLCAnLW9tYWUnLCAnPG91dGZpbGUubWFlPic=

>  <r_lp_tautomer_probability>  (192) 
1

>  <r_epik_Ionization_Penalty>  (192) 
3.16671e-07

>  <r_epik_Ionization_Penalty_Charging>  (192) 
0

>  <r_epik_Ionization_Penalty_Neutral>  (192) 
3.16671e-07

>  <r_epik_State_Penalty>  (192) 
-0

>  <r_epik_Charging_Adjusted_Penalty>  (192) 
0

>  <i_epik_Tot_Q>  (192) 
0

>  <i_epik_Tot_abs_Q>  (192) 
0

>  <s_epik_Chemistry_Notes>  (192) 
This compound contains an acetal/aminal-like group ( X-CH(R)-Y where X, Y are N, S, or O) that may be acid/base labile, releasing an aldehyde.

>  <s_lp_Force_Field>  (192) 
OPLS3e

>  <r_lp_Energy>  (192) 
64.0424

>  <b_lp_Chiralities_Consistent>  (192) 
1

>  <s_lp_Variant>  (192) 
53:0-1

>  <s_i_glide_gridfile>  (192) 
pfpi4k_grid

>  <i_i_glide_lignum>  (192) 
35

>  <i_i_glide_rotatable_bonds>  (192) 
1

>  <r_i_docking_score>  (192) 
-3.54626

>  <r_i_glide_ligand_efficiency>  (192) 
-0.177313

>  <r_i_glide_ligand_efficiency_sa>  (192) 
-0.481302

>  <r_i_glide_ligand_efficiency_ln>  (192) 
-0.887512

>  <r_i_glide_gscore>  (192) 
-3.54626

>  <r_i_glide_lipo>  (192) 
-0.0831182

>  <r_i_glide_hbond>  (192) 
-0.0128519

>  <r_i_glide_metal>  (192) 
-0

>  <r_i_glide_rewards>  (192) 
-1.47035

>  <r_i_glide_evdw>  (192) 
-16.5318

>  <r_i_glide_ecoul>  (192) 
-7.05112

>  <r_i_glide_erotb>  (192) 
0

>  <r_i_glide_esite>  (192) 
-0.0956816

>  <r_i_glide_emodel>  (192) 
-28.5652

>  <r_i_glide_energy>  (192) 
-23.5829

>  <r_i_glide_einternal>  (192) 
2.02744

>  <r_i_glide_intrahb_reward>  (192) 
-0

>  <i_i_glide_confnum>  (192) 
1

>  <i_i_glide_posenum>  (192) 
10

>  <r_i_glide_eff_state_penalty>  (192) 
0

>  <ligand_id>  (192) 
53

>  <original_smiles>  (192) 
CC1CCC2C(C)C(O)OC3OC4(C)CCC1C32OO4

>  <smiles>  (192) 
[H]OC1([H])OC2([H])OC3(C([H])([H])[H])OOC24C([H])(C([H])([H])C([H])([H])C([H])(C([H])([H])[H])C4([H])C([H])([H])C3([H])[H])C1([H])C([H])([H])[H]

$$$$
53:0:2
     RDKit          3D

 44 47  0  0  1  0  0  0  0  0999 V2000
    0.7987    0.9030    9.4861 C   0  0  0  0  0  0  0  0  0  0  0  0
    0.2005    1.2428    8.1009 C   0  0  2  0  0  0  0  0  0  0  0  0
   -1.2693    1.6986    8.2887 C   0  0  0  0  0  0  0  0  0  0  0  0
   -2.0704    1.8892    6.9862 C   0  0  0  0  0  0  0  0  0  0  0  0
   -1.1624    1.6998    5.7624 C   0  0  2  0  0  0  0  0  0  0  0  0
   -1.7348    2.0706    4.3876 C   0  0  1  0  0  0  0  0  0  0  0  0
   -2.5489    3.3877    4.3921 C   0  0  0  0  0  0  0  0  0  0  0  0
   -0.5048    2.1594    3.4018 C   0  0  1  0  0  0  0  0  0  0  0  0
   -0.0442    3.4990    3.2817 O   0  0  0  0  0  0  0  0  0  0  0  0
    0.5524    1.3134    3.8175 O   0  0  0  0  0  0  0  0  0  0  0  0
    0.1126    0.0978    4.3309 C   0  0  1  0  0  0  0  0  0  0  0  0
    1.0331   -0.9292    4.2941 O   0  0  0  0  0  0  0  0  0  0  0  0
    0.6632   -2.0275    5.1175 C   0  0  1  0  0  0  0  0  0  0  0  0
    1.0292   -3.2984    4.3367 C   0  0  0  0  0  0  0  0  0  0  0  0
    1.5551   -1.9522    6.3692 C   0  0  0  0  0  0  0  0  0  0  0  0
    1.6853   -0.5338    6.9058 C   0  0  0  0  0  0  0  0  0  0  0  0
    0.2904    0.0631    7.0821 C   0  0  2  0  0  0  0  0  0  0  0  0
   -0.5382    0.2791    5.7452 C   0  0  1  0  0  0  0  0  0  0  0  0
   -1.4721   -0.7853    5.7468 O   0  0  0  0  0  0  0  0  0  0  0  0
   -0.7605   -2.1310    5.4341 O   0  0  0  0  0  0  0  0  0  0  0  0
    0.4238   -0.0459    9.8643 H   0  0  0  0  0  0  0  0  0  0  0  0
    0.5431    1.6514   10.2384 H   0  0  0  0  0  0  0  0  0  0  0  0
    1.8864    0.8394    9.4669 H   0  0  0  0  0  0  0  0  0  0  0  0
    0.7794    2.0860    7.7118 H   0  0  0  0  0  0  0  0  0  0  0  0
   -1.7872    0.9576    8.8903 H   0  0  0  0  0  0  0  0  0  0  0  0
   -1.2861    2.6327    8.8531 H   0  0  0  0  0  0  0  0  0  0  0  0
   -2.9037    1.1861    6.9488 H   0  0  0  0  0  0  0  0  0  0  0  0
   -2.5131    2.8874    7.0162 H   0  0  0  0  0  0  0  0  0  0  0  0
   -0.3626    2.4299    5.8904 H   0  0  0  0  0  0  0  0  0  0  0  0
   -2.3879    1.2661    4.0631 H   0  0  0  0  0  0  0  0  0  0  0  0
   -1.9861    4.1890    4.8704 H   0  0  0  0  0  0  0  0  0  0  0  0
   -3.4829    3.2981    4.9404 H   0  0  0  0  0  0  0  0  0  0  0  0
   -2.8007    3.7236    3.3851 H   0  0  0  0  0  0  0  0  0  0  0  0
   -0.8156    1.8590    2.3940 H   0  0  0  0  0  0  0  0  0  0  0  0
    0.0743    3.7129    2.3512 H   0  0  0  0  0  0  0  0  0  0  0  0
   -0.6455   -0.2660    3.6239 H   0  0  0  0  0  0  0  0  0  0  0  0
    0.4663   -3.3791    3.4068 H   0  0  0  0  0  0  0  0  0  0  0  0
    0.8303   -4.1927    4.9291 H   0  0  0  0  0  0  0  0  0  0  0  0
    2.0887   -3.3160    4.0722 H   0  0  0  0  0  0  0  0  0  0  0  0
    1.1599   -2.6184    7.1360 H   0  0  0  0  0  0  0  0  0  0  0  0
    2.5634   -2.3029    6.1542 H   0  0  0  0  0  0  0  0  0  0  0  0
    2.2291   -0.6237    7.8443 H   0  0  0  0  0  0  0  0  0  0  0  0
    2.2897    0.0868    6.2456 H   0  0  0  0  0  0  0  0  0  0  0  0
   -0.2482   -0.7161    7.6252 H   0  0  0  0  0  0  0  0  0  0  0  0
  1  2  1  0
  1 21  1  0
  1 22  1  0
  1 23  1  0
  2 17  1  0
  2  3  1  0
  2 24  1  6
  3  4  1  0
  3 25  1  0
  3 26  1  0
  4  5  1  0
  4 27  1  0
  4 28  1  0
  5 18  1  0
  5  6  1  0
  5 29  1  1
  6  7  1  0
  6  8  1  0
  6 30  1  6
  7 31  1  0
  7 32  1  0
  7 33  1  0
  8  9  1  0
  8 10  1  0
  8 34  1  6
  9 35  1  0
 10 11  1  0
 11 18  1  0
 11 12  1  0
 11 36  1  6
 12 13  1  0
 13 20  1  0
 13 14  1  6
 13 15  1  0
 14 37  1  0
 14 38  1  0
 14 39  1  0
 15 16  1  0
 15 40  1  0
 15 41  1  0
 16 17  1  0
 16 42  1  0
 16 43  1  0
 17 18  1  0
 17 44  1  1
 18 19  1  1
 19 20  1  0
M  END
>  <i_m_ct_stereo_status>  (193) 
1

>  <s_m_source_file>  (193) 
/var/tmp/pbs.5076255.sched01/tmpp9awzhar/40nweoahkg.sdf

>  <i_m_source_file_index>  (193) 
35

>  <i_lp_mmshare_version>  (193) 
48012

>  <i_f3d_flags>  (193) 
0

>  <s_epik_input>  (193) 
W0NAXTEyM1tDQEBIXTRbQ0gyXVtDSDJdW0NAQEhdKFtDSDNdKVtDQEBIXTJbQ0gyXVtDSDJdW0NAQF0oW0NIM10pKE9PMylPW0NAQEhdMU9bQ0BIXShbT0hdKVtDQEBIXTRbQ0gzXQ==

>  <s_epik_cmdline>  (193) 
J2VwaWtfcHl0aG9uJywgJy1waHQnLCAnMi4wJywgJy1waCcsICc3LjAnLCAnLXRuJywgJzgnLCAnLW1hJywgJzIwMCcsICctaW1hZScsICc8aW5maWxlLm1hZT4nLCAnLW9tYWUnLCAnPG91dGZpbGUubWFlPic=

>  <r_lp_tautomer_probability>  (193) 
1

>  <r_epik_Ionization_Penalty>  (193) 
3.16671e-07

>  <r_epik_Ionization_Penalty_Charging>  (193) 
0

>  <r_epik_Ionization_Penalty_Neutral>  (193) 
3.16671e-07

>  <r_epik_State_Penalty>  (193) 
-0

>  <r_epik_Charging_Adjusted_Penalty>  (193) 
0

>  <i_epik_Tot_Q>  (193) 
0

>  <i_epik_Tot_abs_Q>  (193) 
0

>  <s_epik_Chemistry_Notes>  (193) 
This compound contains an acetal/aminal-like group ( X-CH(R)-Y where X, Y are N, S, or O) that may be acid/base labile, releasing an aldehyde.

>  <s_lp_Force_Field>  (193) 
OPLS3e

>  <r_lp_Energy>  (193) 
64.0424

>  <b_lp_Chiralities_Consistent>  (193) 
1

>  <s_lp_Variant>  (193) 
53:0-1

>  <s_i_glide_gridfile>  (193) 
pfpi4k_grid

>  <i_i_glide_lignum>  (193) 
35

>  <i_i_glide_rotatable_bonds>  (193) 
1

>  <r_i_docking_score>  (193) 
-3.27882

>  <r_i_glide_ligand_efficiency>  (193) 
-0.163941

>  <r_i_glide_ligand_efficiency_sa>  (193) 
-0.445005

>  <r_i_glide_ligand_efficiency_ln>  (193) 
-0.820581

>  <r_i_glide_gscore>  (193) 
-3.27882

>  <r_i_glide_lipo>  (193) 
-0.0252555

>  <r_i_glide_hbond>  (193) 
-0.0211755

>  <r_i_glide_metal>  (193) 
-0

>  <r_i_glide_rewards>  (193) 
-1.47035

>  <r_i_glide_evdw>  (193) 
-16.7414

>  <r_i_glide_ecoul>  (193) 
-5.76543

>  <r_i_glide_erotb>  (193) 
0

>  <r_i_glide_esite>  (193) 
-0.0601558

>  <r_i_glide_emodel>  (193) 
-26.8432

>  <r_i_glide_energy>  (193) 
-22.5068

>  <r_i_glide_einternal>  (193) 
1.39225

>  <r_i_glide_intrahb_reward>  (193) 
-0

>  <i_i_glide_confnum>  (193) 
2

>  <i_i_glide_posenum>  (193) 
30

>  <r_i_glide_eff_state_penalty>  (193) 
0

>  <ligand_id>  (193) 
53

>  <original_smiles>  (193) 
CC1CCC2C(C)C(O)OC3OC4(C)CCC1C32OO4

>  <smiles>  (193) 
[H]OC1([H])OC2([H])OC3(C([H])([H])[H])OOC24C([H])(C([H])([H])C([H])([H])C([H])(C([H])([H])[H])C4([H])C([H])([H])C3([H])[H])C1([H])C([H])([H])[H]

$$$$
55:0:0
     RDKit          3D

 30 33  0  0  1  0  0  0  0  0999 V2000
    1.8589    2.9125    5.6680 Cl  0  0  0  0  0  0  0  0  0  0  0  0
    1.9353    1.9967    4.2041 C   0  0  0  0  0  0  0  0  0  0  0  0
    3.1346    1.3060    3.9349 C   0  0  0  0  0  0  0  0  0  0  0  0
    3.2791    0.5178    2.7750 C   0  0  0  0  0  0  0  0  0  0  0  0
    4.3463   -0.2369    2.3148 N   0  0  0  0  0  0  0  0  0  0  0  0
    3.8944   -0.7418    1.1594 C   0  0  0  0  0  0  0  0  0  0  0  0
    4.7193   -1.6037    0.3130 C   0  0  0  0  0  0  0  0  0  0  0  0
    6.0749   -1.8613    0.6251 C   0  0  0  0  0  0  0  0  0  0  0  0
    6.8147   -2.7115   -0.2192 C   0  0  0  0  0  0  0  0  0  0  0  0
    6.2997   -3.2785   -1.3282 N   0  0  0  0  0  0  0  0  0  0  0  0
    5.0051   -3.0386   -1.6206 C   0  0  0  0  0  0  0  0  0  0  0  0
    4.1778   -2.2066   -0.8417 C   0  0  0  0  0  0  0  0  0  0  0  0
    2.6194   -0.3805    0.8845 N   0  0  0  0  0  0  0  0  0  0  0  0
    2.1777    0.4457    1.8911 C   0  0  0  0  0  0  0  0  0  0  0  0
    0.9794    1.1219    2.1400 C   0  0  0  0  0  0  0  0  0  0  0  0
    0.8377    1.9122    3.3013 C   0  0  0  0  0  0  0  0  0  0  0  0
   -0.4397    2.5946    3.5185 C   0  0  0  0  0  0  0  0  0  0  0  0
   -0.8242    3.7073    4.2311 C   0  0  0  0  0  0  0  0  0  0  0  0
   -2.1827    3.9134    4.0441 N   0  0  0  0  0  0  0  0  0  0  0  0
   -2.5577    2.9290    3.2279 C   0  0  0  0  0  0  0  0  0  0  0  0
   -1.5467    2.0881    2.8847 O   0  0  0  0  0  0  0  0  0  0  0  0
    2.0469   -0.6588    0.0699 H   0  0  0  0  0  0  0  0  0  0  0  0
    3.9623    1.3792    4.6258 H   0  0  0  0  0  0  0  0  0  0  0  0
    6.5461   -1.4299    1.4977 H   0  0  0  0  0  0  0  0  0  0  0  0
    7.8515   -2.9359   -0.0077 H   0  0  0  0  0  0  0  0  0  0  0  0
    4.6187   -3.5227   -2.5060 H   0  0  0  0  0  0  0  0  0  0  0  0
    3.1486   -2.0518   -1.1295 H   0  0  0  0  0  0  0  0  0  0  0  0
    0.1748    1.0454    1.4214 H   0  0  0  0  0  0  0  0  0  0  0  0
   -0.2414    4.3820    4.8473 H   0  0  0  0  0  0  0  0  0  0  0  0
   -3.5720    2.7676    2.8831 H   0  0  0  0  0  0  0  0  0  0  0  0
  1  2  1  0
  2 16  2  0
  2  3  1  0
  3  4  2  0
  3 23  1  0
  4 14  1  0
  4  5  1  0
  5  6  2  0
  6  7  1  0
  6 13  1  0
  7 12  1  0
  7  8  2  0
  8  9  1  0
  8 24  1  0
  9 10  2  0
  9 25  1  0
 10 11  1  0
 11 12  2  0
 11 26  1  0
 12 27  1  0
 13 22  1  0
 13 14  1  0
 14 15  2  0
 15 16  1  0
 15 28  1  0
 16 17  1  0
 17 21  1  0
 17 18  2  0
 18 19  1  0
 18 29  1  0
 19 20  2  0
 20 21  1  0
 20 30  1  0
M  END
>  <i_m_ct_stereo_status>  (194) 
1

>  <s_m_source_file>  (194) 
/var/tmp/pbs.5076255.sched01/tmpp9awzhar/40nweoahkg.sdf

>  <i_m_source_file_index>  (194) 
37

>  <i_lp_mmshare_version>  (194) 
48012

>  <i_f3d_flags>  (194) 
0

>  <s_epik_input>  (194) 
bzFbY0hdbltjSF1jMS1jKGMoQ2wpW2NIXTIpW2NIXWMoYzIzKVtuSF1jKG4zKS1jNFtjSF1bY0hdbltjSF1bY0hdNA==

>  <s_epik_cmdline>  (194) 
J2VwaWtfcHl0aG9uJywgJy1waHQnLCAnMi4wJywgJy1waCcsICc3LjAnLCAnLXRuJywgJzgnLCAnLW1hJywgJzIwMCcsICctaW1hZScsICc8aW5maWxlLm1hZT4nLCAnLW9tYWUnLCAnPG91dGZpbGUubWFlPic=

>  <r_epik_Ionization_Penalty>  (194) 
0.00767994

>  <r_epik_Ionization_Penalty_Charging>  (194) 
0

>  <r_epik_Ionization_Penalty_Neutral>  (194) 
0.00767994

>  <r_epik_State_Penalty>  (194) 
0.362957

>  <r_epik_Charging_Adjusted_Penalty>  (194) 
0.362957

>  <i_epik_Tot_Q>  (194) 
0

>  <i_epik_Tot_abs_Q>  (194) 
0

>  <s_lp_Force_Field>  (194) 
OPLS3e

>  <r_lp_Energy>  (194) 
28.6968

>  <b_lp_Chiralities_Consistent>  (194) 
1

>  <s_lp_Variant>  (194) 
55:0-1

>  <s_i_glide_gridfile>  (194) 
pfpi4k_grid

>  <i_i_glide_lignum>  (194) 
37

>  <i_i_glide_rotatable_bonds>  (194) 
2

>  <r_i_docking_score>  (194) 
-3.97437

>  <r_i_glide_ligand_efficiency>  (194) 
-0.189256

>  <r_i_glide_ligand_efficiency_sa>  (194) 
-0.522143

>  <r_i_glide_ligand_efficiency_ln>  (194) 
-0.982656

>  <r_i_glide_gscore>  (194) 
-3.97437

>  <r_i_glide_lipo>  (194) 
-0.188253

>  <r_i_glide_hbond>  (194) 
-0.162186

>  <r_i_glide_metal>  (194) 
-0

>  <r_i_glide_rewards>  (194) 
-1.39857

>  <r_i_glide_evdw>  (194) 
-24.2407

>  <r_i_glide_ecoul>  (194) 
-9.07786

>  <r_i_glide_erotb>  (194) 
0.416283

>  <r_i_glide_esite>  (194) 
-0.0679357

>  <r_i_glide_emodel>  (194) 
-42.343

>  <r_i_glide_energy>  (194) 
-33.3185

>  <r_i_glide_einternal>  (194) 
0.423727

>  <r_i_glide_intrahb_reward>  (194) 
-0

>  <i_i_glide_confnum>  (194) 
1

>  <i_i_glide_posenum>  (194) 
31

>  <r_i_glide_eff_state_penalty>  (194) 
0

>  <ligand_id>  (194) 
55

>  <original_smiles>  (194) 
Clc1cc2nc(-c3ccncc3)[nH]c2cc1-c1cnco1

>  <smiles>  (194) 
[H]c1nc([H])c(-c2c(Cl)c([H])c3nc(-c4c([H])c([H])nc([H])c4[H])n([H])c3c2[H])o1

$$$$
55:0:1
     RDKit          3D

 30 33  0  0  1  0  0  0  0  0999 V2000
    3.1729   -4.2993    1.8361 Cl  0  0  0  0  0  0  0  0  0  0  0  0
    2.9822   -2.5799    1.8403 C   0  0  0  0  0  0  0  0  0  0  0  0
    1.8261   -2.0819    2.4731 C   0  0  0  0  0  0  0  0  0  0  0  0
    1.5516   -0.6994    2.5160 C   0  0  0  0  0  0  0  0  0  0  0  0
    0.4852   -0.0126    3.0678 N   0  0  0  0  0  0  0  0  0  0  0  0
    0.7809    1.2638    2.8136 C   0  0  0  0  0  0  0  0  0  0  0  0
   -0.0734    2.3647    3.2382 C   0  0  0  0  0  0  0  0  0  0  0  0
    0.4836    3.5820    3.6817 C   0  0  0  0  0  0  0  0  0  0  0  0
   -0.3891    4.6182    4.0506 C   0  0  0  0  0  0  0  0  0  0  0  0
   -1.7374    4.5127    4.0212 N   0  0  0  0  0  0  0  0  0  0  0  0
   -2.2600    3.3403    3.6015 C   0  0  0  0  0  0  0  0  0  0  0  0
   -1.4763    2.2410    3.2076 C   0  0  0  0  0  0  0  0  0  0  0  0
    1.9442    1.4334    2.1505 N   0  0  0  0  0  0  0  0  0  0  0  0
    2.4874    0.1804    1.9224 C   0  0  0  0  0  0  0  0  0  0  0  0
    3.6480   -0.2948    1.2943 C   0  0  0  0  0  0  0  0  0  0  0  0
    3.9170   -1.6869    1.2403 C   0  0  0  0  0  0  0  0  0  0  0  0
    5.1507   -2.1158    0.5639 C   0  0  0  0  0  0  0  0  0  0  0  0
    6.1152   -1.4027   -0.1032 C   0  0  0  0  0  0  0  0  0  0  0  0
    7.0862   -2.2736   -0.5741 N   0  0  0  0  0  0  0  0  0  0  0  0
    6.6789   -3.4703   -0.1563 C   0  0  0  0  0  0  0  0  0  0  0  0
    5.5112   -3.4361    0.5384 O   0  0  0  0  0  0  0  0  0  0  0  0
    2.3052    2.3340    1.8697 H   0  0  0  0  0  0  0  0  0  0  0  0
    1.1277   -2.7711    2.9194 H   0  0  0  0  0  0  0  0  0  0  0  0
    1.5527    3.7309    3.7223 H   0  0  0  0  0  0  0  0  0  0  0  0
   -0.0042    5.5662    4.3939 H   0  0  0  0  0  0  0  0  0  0  0  0
   -3.3403    3.2772    3.5857 H   0  0  0  0  0  0  0  0  0  0  0  0
   -1.9483    1.3335    2.8657 H   0  0  0  0  0  0  0  0  0  0  0  0
    4.3220    0.4191    0.8523 H   0  0  0  0  0  0  0  0  0  0  0  0
    6.1871   -0.3400   -0.2845 H   0  0  0  0  0  0  0  0  0  0  0  0
    7.2038   -4.4026   -0.3214 H   0  0  0  0  0  0  0  0  0  0  0  0
  1  2  1  0
  2 16  2  0
  2  3  1  0
  3  4  2  0
  3 23  1  0
  4 14  1  0
  4  5  1  0
  5  6  2  0
  6  7  1  0
  6 13  1  0
  7 12  1  0
  7  8  2  0
  8  9  1  0
  8 24  1  0
  9 10  2  0
  9 25  1  0
 10 11  1  0
 11 12  2  0
 11 26  1  0
 12 27  1  0
 13 22  1  0
 13 14  1  0
 14 15  2  0
 15 16  1  0
 15 28  1  0
 16 17  1  0
 17 21  1  0
 17 18  2  0
 18 19  1  0
 18 29  1  0
 19 20  2  0
 20 21  1  0
 20 30  1  0
M  END
>  <i_m_ct_stereo_status>  (195) 
1

>  <s_m_source_file>  (195) 
/var/tmp/pbs.5076255.sched01/tmpp9awzhar/40nweoahkg.sdf

>  <i_m_source_file_index>  (195) 
37

>  <i_lp_mmshare_version>  (195) 
48012

>  <i_f3d_flags>  (195) 
0

>  <s_epik_input>  (195) 
bzFbY0hdbltjSF1jMS1jKGMoQ2wpW2NIXTIpW2NIXWMoYzIzKVtuSF1jKG4zKS1jNFtjSF1bY0hdbltjSF1bY0hdNA==

>  <s_epik_cmdline>  (195) 
J2VwaWtfcHl0aG9uJywgJy1waHQnLCAnMi4wJywgJy1waCcsICc3LjAnLCAnLXRuJywgJzgnLCAnLW1hJywgJzIwMCcsICctaW1hZScsICc8aW5maWxlLm1hZT4nLCAnLW9tYWUnLCAnPG91dGZpbGUubWFlPic=

>  <r_epik_Ionization_Penalty>  (195) 
0.00767994

>  <r_epik_Ionization_Penalty_Charging>  (195) 
0

>  <r_epik_Ionization_Penalty_Neutral>  (195) 
0.00767994

>  <r_epik_State_Penalty>  (195) 
0.362957

>  <r_epik_Charging_Adjusted_Penalty>  (195) 
0.362957

>  <i_epik_Tot_Q>  (195) 
0

>  <i_epik_Tot_abs_Q>  (195) 
0

>  <s_lp_Force_Field>  (195) 
OPLS3e

>  <r_lp_Energy>  (195) 
28.6968

>  <b_lp_Chiralities_Consistent>  (195) 
1

>  <s_lp_Variant>  (195) 
55:0-1

>  <s_i_glide_gridfile>  (195) 
pfpi4k_grid

>  <i_i_glide_lignum>  (195) 
37

>  <i_i_glide_rotatable_bonds>  (195) 
2

>  <r_i_docking_score>  (195) 
-3.51965

>  <r_i_glide_ligand_efficiency>  (195) 
-0.167603

>  <r_i_glide_ligand_efficiency_sa>  (195) 
-0.462403

>  <r_i_glide_ligand_efficiency_ln>  (195) 
-0.870227

>  <r_i_glide_gscore>  (195) 
-3.51965

>  <r_i_glide_lipo>  (195) 
-0.155691

>  <r_i_glide_hbond>  (195) 
-0.269736

>  <r_i_glide_metal>  (195) 
-0

>  <r_i_glide_rewards>  (195) 
-1.38606

>  <r_i_glide_evdw>  (195) 
-24.2127

>  <r_i_glide_ecoul>  (195) 
-5.84051

>  <r_i_glide_erotb>  (195) 
0.416283

>  <r_i_glide_esite>  (195) 
-0.0377338

>  <r_i_glide_emodel>  (195) 
-37.7121

>  <r_i_glide_energy>  (195) 
-30.0532

>  <r_i_glide_einternal>  (195) 
1.07304

>  <r_i_glide_intrahb_reward>  (195) 
-0

>  <i_i_glide_confnum>  (195) 
4

>  <i_i_glide_posenum>  (195) 
40

>  <r_i_glide_eff_state_penalty>  (195) 
0

>  <ligand_id>  (195) 
55

>  <original_smiles>  (195) 
Clc1cc2nc(-c3ccncc3)[nH]c2cc1-c1cnco1

>  <smiles>  (195) 
[H]c1nc([H])c(-c2c(Cl)c([H])c3nc(-c4c([H])c([H])nc([H])c4[H])n([H])c3c2[H])o1

$$$$
55:0:2
     RDKit          3D

 30 33  0  0  1  0  0  0  0  0999 V2000
   -1.0875   -0.2165    4.4988 Cl  0  0  0  0  0  0  0  0  0  0  0  0
    0.3019    0.0599    3.5059 C   0  0  0  0  0  0  0  0  0  0  0  0
    1.0285   -1.0709    3.0715 C   0  0  0  0  0  0  0  0  0  0  0  0
    2.1824   -0.9367    2.2681 C   0  0  0  0  0  0  0  0  0  0  0  0
    3.0299   -1.8952    1.7334 N   0  0  0  0  0  0  0  0  0  0  0  0
    3.9381   -1.1696    1.0781 C   0  0  0  0  0  0  0  0  0  0  0  0
    5.0472   -1.7657    0.3443 C   0  0  0  0  0  0  0  0  0  0  0  0
    4.8220   -2.4863   -0.8460 C   0  0  0  0  0  0  0  0  0  0  0  0
    5.9286   -3.0472   -1.5132 C   0  0  0  0  0  0  0  0  0  0  0  0
    7.1984   -2.9164   -1.0753 N   0  0  0  0  0  0  0  0  0  0  0  0
    7.4047   -2.2502    0.0804 C   0  0  0  0  0  0  0  0  0  0  0  0
    6.3702   -1.6417    0.8154 C   0  0  0  0  0  0  0  0  0  0  0  0
    3.7415    0.1595    1.1691 N   0  0  0  0  0  0  0  0  0  0  0  0
    2.5999    0.3728    1.9263 C   0  0  0  0  0  0  0  0  0  0  0  0
    1.8875    1.5084    2.3519 C   0  0  0  0  0  0  0  0  0  0  0  0
    0.7223    1.3687    3.1440 C   0  0  0  0  0  0  0  0  0  0  0  0
    0.0247    2.5890    3.5648 C   0  0  0  0  0  0  0  0  0  0  0  0
   -1.2829    2.8953    3.8639 C   0  0  0  0  0  0  0  0  0  0  0  0
   -1.3699    4.2510    4.1736 N   0  0  0  0  0  0  0  0  0  0  0  0
   -0.1221    4.6977    4.0345 C   0  0  0  0  0  0  0  0  0  0  0  0
    0.7716    3.7342    3.6870 O   0  0  0  0  0  0  0  0  0  0  0  0
    4.3136    0.8555    0.7146 H   0  0  0  0  0  0  0  0  0  0  0  0
    0.7013   -2.0573    3.3538 H   0  0  0  0  0  0  0  0  0  0  0  0
    3.8225   -2.6129   -1.2385 H   0  0  0  0  0  0  0  0  0  0  0  0
    5.7972   -3.6059   -2.4293 H   0  0  0  0  0  0  0  0  0  0  0  0
    8.4301   -2.1841    0.4141 H   0  0  0  0  0  0  0  0  0  0  0  0
    6.5904   -1.1118    1.7318 H   0  0  0  0  0  0  0  0  0  0  0  0
    2.2245    2.4917    2.0638 H   0  0  0  0  0  0  0  0  0  0  0  0
   -2.1628    2.2690    3.8674 H   0  0  0  0  0  0  0  0  0  0  0  0
    0.1867    5.7194    4.2065 H   0  0  0  0  0  0  0  0  0  0  0  0
  1  2  1  0
  2 16  2  0
  2  3  1  0
  3  4  2  0
  3 23  1  0
  4 14  1  0
  4  5  1  0
  5  6  2  0
  6  7  1  0
  6 13  1  0
  7 12  1  0
  7  8  2  0
  8  9  1  0
  8 24  1  0
  9 10  2  0
  9 25  1  0
 10 11  1  0
 11 12  2  0
 11 26  1  0
 12 27  1  0
 13 22  1  0
 13 14  1  0
 14 15  2  0
 15 16  1  0
 15 28  1  0
 16 17  1  0
 17 21  1  0
 17 18  2  0
 18 19  1  0
 18 29  1  0
 19 20  2  0
 20 21  1  0
 20 30  1  0
M  END
>  <i_m_ct_stereo_status>  (196) 
1

>  <s_m_source_file>  (196) 
/var/tmp/pbs.5076255.sched01/tmpp9awzhar/40nweoahkg.sdf

>  <i_m_source_file_index>  (196) 
37

>  <i_lp_mmshare_version>  (196) 
48012

>  <i_f3d_flags>  (196) 
0

>  <s_epik_input>  (196) 
bzFbY0hdbltjSF1jMS1jKGMoQ2wpW2NIXTIpW2NIXWMoYzIzKVtuSF1jKG4zKS1jNFtjSF1bY0hdbltjSF1bY0hdNA==

>  <s_epik_cmdline>  (196) 
J2VwaWtfcHl0aG9uJywgJy1waHQnLCAnMi4wJywgJy1waCcsICc3LjAnLCAnLXRuJywgJzgnLCAnLW1hJywgJzIwMCcsICctaW1hZScsICc8aW5maWxlLm1hZT4nLCAnLW9tYWUnLCAnPG91dGZpbGUubWFlPic=

>  <r_epik_Ionization_Penalty>  (196) 
0.00767994

>  <r_epik_Ionization_Penalty_Charging>  (196) 
0

>  <r_epik_Ionization_Penalty_Neutral>  (196) 
0.00767994

>  <r_epik_State_Penalty>  (196) 
0.362957

>  <r_epik_Charging_Adjusted_Penalty>  (196) 
0.362957

>  <i_epik_Tot_Q>  (196) 
0

>  <i_epik_Tot_abs_Q>  (196) 
0

>  <s_lp_Force_Field>  (196) 
OPLS3e

>  <r_lp_Energy>  (196) 
28.6968

>  <b_lp_Chiralities_Consistent>  (196) 
1

>  <s_lp_Variant>  (196) 
55:0-1

>  <s_i_glide_gridfile>  (196) 
pfpi4k_grid

>  <i_i_glide_lignum>  (196) 
37

>  <i_i_glide_rotatable_bonds>  (196) 
2

>  <r_i_docking_score>  (196) 
-3.20682

>  <r_i_glide_ligand_efficiency>  (196) 
-0.152706

>  <r_i_glide_ligand_efficiency_sa>  (196) 
-0.421303

>  <r_i_glide_ligand_efficiency_ln>  (196) 
-0.792879

>  <r_i_glide_gscore>  (196) 
-3.20682

>  <r_i_glide_lipo>  (196) 
-0.24227

>  <r_i_glide_hbond>  (196) 
-0.0254676

>  <r_i_glide_metal>  (196) 
-0

>  <r_i_glide_rewards>  (196) 
-1.38606

>  <r_i_glide_evdw>  (196) 
-28.0237

>  <r_i_glide_ecoul>  (196) 
-3.70487

>  <r_i_glide_erotb>  (196) 
0.416283

>  <r_i_glide_esite>  (196) 
-0.012382

>  <r_i_glide_emodel>  (196) 
-37.4449

>  <r_i_glide_energy>  (196) 
-31.7286

>  <r_i_glide_einternal>  (196) 
3.48733

>  <r_i_glide_intrahb_reward>  (196) 
-0

>  <i_i_glide_confnum>  (196) 
3

>  <i_i_glide_posenum>  (196) 
17

>  <r_i_glide_eff_state_penalty>  (196) 
0

>  <ligand_id>  (196) 
55

>  <original_smiles>  (196) 
Clc1cc2nc(-c3ccncc3)[nH]c2cc1-c1cnco1

>  <smiles>  (196) 
[H]c1nc([H])c(-c2c(Cl)c([H])c3nc(-c4c([H])c([H])nc([H])c4[H])n([H])c3c2[H])o1

$$$$
55:1:0
     RDKit          3D

 30 33  0  0  1  0  0  0  0  0999 V2000
   -0.9264   -8.1397    2.1637 Cl  0  0  0  0  0  0  0  0  0  0  0  0
    0.5616   -7.2523    2.2227 C   0  0  0  0  0  0  0  0  0  0  0  0
    1.0201   -6.6552    1.0287 C   0  0  0  0  0  0  0  0  0  0  0  0
    2.2007   -5.8917    1.0342 C   0  0  0  0  0  0  0  0  0  0  0  0
    2.9119   -5.1812    0.0805 N   0  0  0  0  0  0  0  0  0  0  0  0
    3.9991   -4.6473    0.6848 C   0  0  0  0  0  0  0  0  0  0  0  0
    5.0061   -3.8407   -0.0059 C   0  0  0  0  0  0  0  0  0  0  0  0
    6.0077   -3.1540    0.7171 C   0  0  0  0  0  0  0  0  0  0  0  0
    6.9474   -2.3837    0.0084 C   0  0  0  0  0  0  0  0  0  0  0  0
    6.9403   -2.2585   -1.3357 N   0  0  0  0  0  0  0  0  0  0  0  0
    5.9899   -2.9261   -2.0205 C   0  0  0  0  0  0  0  0  0  0  0  0
    5.0025   -3.7209   -1.4118 C   0  0  0  0  0  0  0  0  0  0  0  0
    4.0769   -4.9378    1.9863 N   0  0  0  0  0  0  0  0  0  0  0  0
    2.9597   -5.7129    2.2176 C   0  0  0  0  0  0  0  0  0  0  0  0
    2.4881   -6.3138    3.4015 C   0  0  0  0  0  0  0  0  0  0  0  0
    1.2971   -7.0777    3.4280 C   0  0  0  0  0  0  0  0  0  0  0  0
    0.8953   -7.6546    4.7122 C   0  0  0  0  0  0  0  0  0  0  0  0
    1.1536   -7.2675    6.0074 C   0  0  0  0  0  0  0  0  0  0  0  0
    0.5654   -8.1840    6.8647 N   0  0  0  0  0  0  0  0  0  0  0  0
    0.0128   -9.0935    6.0659 C   0  0  0  0  0  0  0  0  0  0  0  0
    0.1758   -8.8196    4.7429 O   0  0  0  0  0  0  0  0  0  0  0  0
    0.4681   -6.7980    0.1177 H   0  0  0  0  0  0  0  0  0  0  0  0
    6.0581   -3.2064    1.7954 H   0  0  0  0  0  0  0  0  0  0  0  0
    7.7191   -1.8397    0.5302 H   0  0  0  0  0  0  0  0  0  0  0  0
    6.0090   -2.8150   -3.0959 H   0  0  0  0  0  0  0  0  0  0  0  0
    4.2658   -4.2267   -2.0209 H   0  0  0  0  0  0  0  0  0  0  0  0
    3.0684   -6.1811    4.3017 H   0  0  0  0  0  0  0  0  0  0  0  0
    1.7142   -6.4239    6.3880 H   0  0  0  0  0  0  0  0  0  0  0  0
   -0.5492   -9.9489    6.4180 H   0  0  0  0  0  0  0  0  0  0  0  0
    2.7301   -5.1099   -0.9160 H   0  0  0  0  0  0  0  0  0  0  0  0
  1  2  1  0
  2 16  2  0
  2  3  1  0
  3  4  2  0
  3 22  1  0
  4 14  1  0
  4  5  1  0
  5  6  1  0
  5 30  1  0
  6  7  1  0
  6 13  2  0
  7 12  1  0
  7  8  2  0
  8  9  1  0
  8 23  1  0
  9 10  2  0
  9 24  1  0
 10 11  1  0
 11 12  2  0
 11 25  1  0
 12 26  1  0
 13 14  1  0
 14 15  2  0
 15 16  1  0
 15 27  1  0
 16 17  1  0
 17 21  1  0
 17 18  2  0
 18 19  1  0
 18 28  1  0
 19 20  2  0
 20 21  1  0
 20 29  1  0
M  END
>  <i_m_ct_stereo_status>  (197) 
1

>  <s_m_source_file>  (197) 
/var/tmp/pbs.5076255.sched01/tmpp9awzhar/40nweoahkg.sdf

>  <i_m_source_file_index>  (197) 
38

>  <i_lp_mmshare_version>  (197) 
48012

>  <i_f3d_flags>  (197) 
0

>  <s_epik_input>  (197) 
bzFbY0hdbltjSF1jMS1jKGMoQ2wpW2NIXTIpW2NIXWMoYzIzKVtuSF1jKG4zKS1jNFtjSF1bY0hdbltjSF1bY0hdNA==

>  <s_epik_cmdline>  (197) 
J2VwaWtfcHl0aG9uJywgJy1waHQnLCAnMi4wJywgJy1waCcsICc3LjAnLCAnLXRuJywgJzgnLCAnLW1hJywgJzIwMCcsICctaW1hZScsICc8aW5maWxlLm1hZT4nLCAnLW9tYWUnLCAnPG91dGZpbGUubWFlPic=

>  <r_epik_Ionization_Penalty>  (197) 
0.00775785

>  <r_epik_Ionization_Penalty_Charging>  (197) 
0

>  <r_epik_Ionization_Penalty_Neutral>  (197) 
0.00775785

>  <r_epik_State_Penalty>  (197) 
0.462585

>  <r_epik_Charging_Adjusted_Penalty>  (197) 
0.462585

>  <i_epik_Tot_Q>  (197) 
0

>  <i_epik_Tot_abs_Q>  (197) 
0

>  <s_lp_Force_Field>  (197) 
OPLS3e

>  <r_lp_Energy>  (197) 
29.0816

>  <b_lp_Chiralities_Consistent>  (197) 
1

>  <s_lp_Variant>  (197) 
55:0-2

>  <s_i_glide_gridfile>  (197) 
pfpi4k_grid

>  <i_i_glide_lignum>  (197) 
38

>  <i_i_glide_rotatable_bonds>  (197) 
2

>  <r_i_docking_score>  (197) 
-3.89714

>  <r_i_glide_ligand_efficiency>  (197) 
-0.185578

>  <r_i_glide_ligand_efficiency_sa>  (197) 
-0.511996

>  <r_i_glide_ligand_efficiency_ln>  (197) 
-0.96356

>  <r_i_glide_gscore>  (197) 
-3.89714

>  <r_i_glide_lipo>  (197) 
-0.238052

>  <r_i_glide_hbond>  (197) 
-0.422756

>  <r_i_glide_metal>  (197) 
-0

>  <r_i_glide_rewards>  (197) 
-1.41539

>  <r_i_glide_evdw>  (197) 
-24.6108

>  <r_i_glide_ecoul>  (197) 
-6.40844

>  <r_i_glide_erotb>  (197) 
0.416283

>  <r_i_glide_esite>  (197) 
-0.0454244

>  <r_i_glide_emodel>  (197) 
-38.6194

>  <r_i_glide_energy>  (197) 
-31.0192

>  <r_i_glide_einternal>  (197) 
0.455593

>  <r_i_glide_intrahb_reward>  (197) 
-0

>  <i_i_glide_confnum>  (197) 
4

>  <i_i_glide_posenum>  (197) 
25

>  <r_i_glide_eff_state_penalty>  (197) 
0

>  <ligand_id>  (197) 
55

>  <original_smiles>  (197) 
Clc1cc2nc(-c3ccncc3)[nH]c2cc1-c1cnco1

>  <smiles>  (197) 
[H]c1nc([H])c(-c2c(Cl)c([H])c3c(nc(-c4c([H])c([H])nc([H])c4[H])n3[H])c2[H])o1

$$$$
55:1:1
     RDKit          3D

 30 33  0  0  1  0  0  0  0  0999 V2000
   -0.3088   -8.9513    2.8790 Cl  0  0  0  0  0  0  0  0  0  0  0  0
    0.8028   -7.6279    2.8315 C   0  0  0  0  0  0  0  0  0  0  0  0
    1.2174   -7.1837    1.5568 C   0  0  0  0  0  0  0  0  0  0  0  0
    2.1089   -6.1034    1.4485 C   0  0  0  0  0  0  0  0  0  0  0  0
    2.7067   -5.4257    0.3958 N   0  0  0  0  0  0  0  0  0  0  0  0
    3.4759   -4.4454    0.9177 C   0  0  0  0  0  0  0  0  0  0  0  0
    4.2728   -3.5177    0.1143 C   0  0  0  0  0  0  0  0  0  0  0  0
    4.7839   -3.9006   -1.1419 C   0  0  0  0  0  0  0  0  0  0  0  0
    5.5436   -2.9717   -1.8774 C   0  0  0  0  0  0  0  0  0  0  0  0
    5.8145   -1.7224   -1.4421 N   0  0  0  0  0  0  0  0  0  0  0  0
    5.3100   -1.3541   -0.2443 C   0  0  0  0  0  0  0  0  0  0  0  0
    4.5456   -2.2104    0.5708 C   0  0  0  0  0  0  0  0  0  0  0  0
    3.4467   -4.3982    2.2515 N   0  0  0  0  0  0  0  0  0  0  0  0
    2.6001   -5.4351    2.5969 C   0  0  0  0  0  0  0  0  0  0  0  0
    2.1745   -5.8902    3.8627 C   0  0  0  0  0  0  0  0  0  0  0  0
    1.2839   -6.9834    4.0078 C   0  0  0  0  0  0  0  0  0  0  0  0
    0.9046   -7.3770    5.3720 C   0  0  0  0  0  0  0  0  0  0  0  0
    0.3236   -8.4917    5.9335 C   0  0  0  0  0  0  0  0  0  0  0  0
    0.2180   -8.2975    7.3073 N   0  0  0  0  0  0  0  0  0  0  0  0
    0.7534   -7.1004    7.5180 C   0  0  0  0  0  0  0  0  0  0  0  0
    1.1746   -6.4848    6.3824 O   0  0  0  0  0  0  0  0  0  0  0  0
    0.8516   -7.6894    0.6778 H   0  0  0  0  0  0  0  0  0  0  0  0
    4.6144   -4.8921   -1.5361 H   0  0  0  0  0  0  0  0  0  0  0  0
    5.9523   -3.2403   -2.8407 H   0  0  0  0  0  0  0  0  0  0  0  0
    5.5310   -0.3462    0.0766 H   0  0  0  0  0  0  0  0  0  0  0  0
    4.1731   -1.8639    1.5244 H   0  0  0  0  0  0  0  0  0  0  0  0
    2.5591   -5.3793    4.7326 H   0  0  0  0  0  0  0  0  0  0  0  0
   -0.0224   -9.4110    5.4838 H   0  0  0  0  0  0  0  0  0  0  0  0
    0.8353   -6.6271    8.4862 H   0  0  0  0  0  0  0  0  0  0  0  0
    2.6271   -5.6037   -0.5986 H   0  0  0  0  0  0  0  0  0  0  0  0
  1  2  1  0
  2 16  2  0
  2  3  1  0
  3  4  2  0
  3 22  1  0
  4 14  1  0
  4  5  1  0
  5  6  1  0
  5 30  1  0
  6  7  1  0
  6 13  2  0
  7 12  1  0
  7  8  2  0
  8  9  1  0
  8 23  1  0
  9 10  2  0
  9 24  1  0
 10 11  1  0
 11 12  2  0
 11 25  1  0
 12 26  1  0
 13 14  1  0
 14 15  2  0
 15 16  1  0
 15 27  1  0
 16 17  1  0
 17 21  1  0
 17 18  2  0
 18 19  1  0
 18 28  1  0
 19 20  2  0
 20 21  1  0
 20 29  1  0
M  END
>  <i_m_ct_stereo_status>  (198) 
1

>  <s_m_source_file>  (198) 
/var/tmp/pbs.5076255.sched01/tmpp9awzhar/40nweoahkg.sdf

>  <i_m_source_file_index>  (198) 
38

>  <i_lp_mmshare_version>  (198) 
48012

>  <i_f3d_flags>  (198) 
0

>  <s_epik_input>  (198) 
bzFbY0hdbltjSF1jMS1jKGMoQ2wpW2NIXTIpW2NIXWMoYzIzKVtuSF1jKG4zKS1jNFtjSF1bY0hdbltjSF1bY0hdNA==

>  <s_epik_cmdline>  (198) 
J2VwaWtfcHl0aG9uJywgJy1waHQnLCAnMi4wJywgJy1waCcsICc3LjAnLCAnLXRuJywgJzgnLCAnLW1hJywgJzIwMCcsICctaW1hZScsICc8aW5maWxlLm1hZT4nLCAnLW9tYWUnLCAnPG91dGZpbGUubWFlPic=

>  <r_epik_Ionization_Penalty>  (198) 
0.00775785

>  <r_epik_Ionization_Penalty_Charging>  (198) 
0

>  <r_epik_Ionization_Penalty_Neutral>  (198) 
0.00775785

>  <r_epik_State_Penalty>  (198) 
0.462585

>  <r_epik_Charging_Adjusted_Penalty>  (198) 
0.462585

>  <i_epik_Tot_Q>  (198) 
0

>  <i_epik_Tot_abs_Q>  (198) 
0

>  <s_lp_Force_Field>  (198) 
OPLS3e

>  <r_lp_Energy>  (198) 
29.0816

>  <b_lp_Chiralities_Consistent>  (198) 
1

>  <s_lp_Variant>  (198) 
55:0-2

>  <s_i_glide_gridfile>  (198) 
pfpi4k_grid

>  <i_i_glide_lignum>  (198) 
38

>  <i_i_glide_rotatable_bonds>  (198) 
2

>  <r_i_docking_score>  (198) 
-3.34243

>  <r_i_glide_ligand_efficiency>  (198) 
-0.159163

>  <r_i_glide_ligand_efficiency_sa>  (198) 
-0.439119

>  <r_i_glide_ligand_efficiency_ln>  (198) 
-0.826409

>  <r_i_glide_gscore>  (198) 
-3.34243

>  <r_i_glide_lipo>  (198) 
-0.104036

>  <r_i_glide_hbond>  (198) 
-0.338926

>  <r_i_glide_metal>  (198) 
-0

>  <r_i_glide_rewards>  (198) 
-1.38606

>  <r_i_glide_evdw>  (198) 
-23.87

>  <r_i_glide_ecoul>  (198) 
-4.61502

>  <r_i_glide_erotb>  (198) 
0.416283

>  <r_i_glide_esite>  (198) 
-0.0439345

>  <r_i_glide_emodel>  (198) 
-34.6542

>  <r_i_glide_energy>  (198) 
-28.485

>  <r_i_glide_einternal>  (198) 
1.00746

>  <r_i_glide_intrahb_reward>  (198) 
-0

>  <i_i_glide_confnum>  (198) 
4

>  <i_i_glide_posenum>  (198) 
22

>  <r_i_glide_eff_state_penalty>  (198) 
0

>  <ligand_id>  (198) 
55

>  <original_smiles>  (198) 
Clc1cc2nc(-c3ccncc3)[nH]c2cc1-c1cnco1

>  <smiles>  (198) 
[H]c1nc([H])c(-c2c(Cl)c([H])c3c(nc(-c4c([H])c([H])nc([H])c4[H])n3[H])c2[H])o1

$$$$
55:1:2
     RDKit          3D

 30 33  0  0  1  0  0  0  0  0999 V2000
   -2.9785    2.9634    3.6658 Cl  0  0  0  0  0  0  0  0  0  0  0  0
   -1.4347    2.2067    3.8456 C   0  0  0  0  0  0  0  0  0  0  0  0
   -0.7863    1.8067    2.6575 C   0  0  0  0  0  0  0  0  0  0  0  0
    0.4810    1.2119    2.7123 C   0  0  0  0  0  0  0  0  0  0  0  0
    1.3694    0.7208    1.7734 N   0  0  0  0  0  0  0  0  0  0  0  0
    2.4512    0.2570    2.4394 C   0  0  0  0  0  0  0  0  0  0  0  0
    3.6129   -0.3507    1.7902 C   0  0  0  0  0  0  0  0  0  0  0  0
    4.8449   -0.4732    2.4639 C   0  0  0  0  0  0  0  0  0  0  0  0
    5.9313   -1.0569    1.7813 C   0  0  0  0  0  0  0  0  0  0  0  0
    5.8632   -1.5017    0.5107 N   0  0  0  0  0  0  0  0  0  0  0  0
    4.6779   -1.3974   -0.1211 C   0  0  0  0  0  0  0  0  0  0  0  0
    3.5388   -0.8301    0.4709 C   0  0  0  0  0  0  0  0  0  0  0  0
    2.3602    0.3884    3.7634 N   0  0  0  0  0  0  0  0  0  0  0  0
    1.1293    0.9872    3.9493 C   0  0  0  0  0  0  0  0  0  0  0  0
    0.4620    1.3763    5.1321 C   0  0  0  0  0  0  0  0  0  0  0  0
   -0.8163    1.9883    5.1080 C   0  0  0  0  0  0  0  0  0  0  0  0
   -1.4166    2.3620    6.3983 C   0  0  0  0  0  0  0  0  0  0  0  0
   -2.6045    2.9433    6.7861 C   0  0  0  0  0  0  0  0  0  0  0  0
   -2.6261    3.0404    8.1678 N   0  0  0  0  0  0  0  0  0  0  0  0
   -1.4590    2.5467    8.5668 C   0  0  0  0  0  0  0  0  0  0  0  0
   -0.6905    2.0983    7.5362 O   0  0  0  0  0  0  0  0  0  0  0  0
   -1.2523    1.9798    1.7021 H   0  0  0  0  0  0  0  0  0  0  0  0
    4.9673   -0.1186    3.4813 H   0  0  0  0  0  0  0  0  0  0  0  0
    6.8954   -1.1384    2.2622 H   0  0  0  0  0  0  0  0  0  0  0  0
    4.6372   -1.7751   -1.1306 H   0  0  0  0  0  0  0  0  0  0  0  0
    2.6343   -0.7697   -0.0954 H   0  0  0  0  0  0  0  0  0  0  0  0
    0.9717    1.1943    6.0649 H   0  0  0  0  0  0  0  0  0  0  0  0
   -3.4481    3.2928    6.2055 H   0  0  0  0  0  0  0  0  0  0  0  0
   -1.1436    2.4685    9.5991 H   0  0  0  0  0  0  0  0  0  0  0  0
    1.2386    0.6704    0.7704 H   0  0  0  0  0  0  0  0  0  0  0  0
  1  2  1  0
  2 16  2  0
  2  3  1  0
  3  4  2  0
  3 22  1  0
  4 14  1  0
  4  5  1  0
  5  6  1  0
  5 30  1  0
  6  7  1  0
  6 13  2  0
  7 12  1  0
  7  8  2  0
  8  9  1  0
  8 23  1  0
  9 10  2  0
  9 24  1  0
 10 11  1  0
 11 12  2  0
 11 25  1  0
 12 26  1  0
 13 14  1  0
 14 15  2  0
 15 16  1  0
 15 27  1  0
 16 17  1  0
 17 21  1  0
 17 18  2  0
 18 19  1  0
 18 28  1  0
 19 20  2  0
 20 21  1  0
 20 29  1  0
M  END
>  <i_m_ct_stereo_status>  (199) 
1

>  <s_m_source_file>  (199) 
/var/tmp/pbs.5076255.sched01/tmpp9awzhar/40nweoahkg.sdf

>  <i_m_source_file_index>  (199) 
38

>  <i_lp_mmshare_version>  (199) 
48012

>  <i_f3d_flags>  (199) 
0

>  <s_epik_input>  (199) 
bzFbY0hdbltjSF1jMS1jKGMoQ2wpW2NIXTIpW2NIXWMoYzIzKVtuSF1jKG4zKS1jNFtjSF1bY0hdbltjSF1bY0hdNA==

>  <s_epik_cmdline>  (199) 
J2VwaWtfcHl0aG9uJywgJy1waHQnLCAnMi4wJywgJy1waCcsICc3LjAnLCAnLXRuJywgJzgnLCAnLW1hJywgJzIwMCcsICctaW1hZScsICc8aW5maWxlLm1hZT4nLCAnLW9tYWUnLCAnPG91dGZpbGUubWFlPic=

>  <r_epik_Ionization_Penalty>  (199) 
0.00775785

>  <r_epik_Ionization_Penalty_Charging>  (199) 
0

>  <r_epik_Ionization_Penalty_Neutral>  (199) 
0.00775785

>  <r_epik_State_Penalty>  (199) 
0.462585

>  <r_epik_Charging_Adjusted_Penalty>  (199) 
0.462585

>  <i_epik_Tot_Q>  (199) 
0

>  <i_epik_Tot_abs_Q>  (199) 
0

>  <s_lp_Force_Field>  (199) 
OPLS3e

>  <r_lp_Energy>  (199) 
29.0816

>  <b_lp_Chiralities_Consistent>  (199) 
1

>  <s_lp_Variant>  (199) 
55:0-2

>  <s_i_glide_gridfile>  (199) 
pfpi4k_grid

>  <i_i_glide_lignum>  (199) 
38

>  <i_i_glide_rotatable_bonds>  (199) 
2

>  <r_i_docking_score>  (199) 
-3.20935

>  <r_i_glide_ligand_efficiency>  (199) 
-0.152826

>  <r_i_glide_ligand_efficiency_sa>  (199) 
-0.421636

>  <r_i_glide_ligand_efficiency_ln>  (199) 
-0.793506

>  <r_i_glide_gscore>  (199) 
-3.20935

>  <r_i_glide_lipo>  (199) 
-0.399578

>  <r_i_glide_hbond>  (199) 
-0.040113

>  <r_i_glide_metal>  (199) 
-0

>  <r_i_glide_rewards>  (199) 
-1.38606

>  <r_i_glide_evdw>  (199) 
-25.5458

>  <r_i_glide_ecoul>  (199) 
-3.02554

>  <r_i_glide_erotb>  (199) 
0.416283

>  <r_i_glide_esite>  (199) 
-0.068761

>  <r_i_glide_emodel>  (199) 
-34.7206

>  <r_i_glide_energy>  (199) 
-28.5714

>  <r_i_glide_einternal>  (199) 
0.596125

>  <r_i_glide_intrahb_reward>  (199) 
-0

>  <i_i_glide_confnum>  (199) 
2

>  <i_i_glide_posenum>  (199) 
15

>  <r_i_glide_eff_state_penalty>  (199) 
0

>  <ligand_id>  (199) 
55

>  <original_smiles>  (199) 
Clc1cc2nc(-c3ccncc3)[nH]c2cc1-c1cnco1

>  <smiles>  (199) 
[H]c1nc([H])c(-c2c(Cl)c([H])c3c(nc(-c4c([H])c([H])nc([H])c4[H])n3[H])c2[H])o1

$$$$
56:0:0
     RDKit          3D

 43 45  0  0  1  0  0  0  0  0999 V2000
    9.4445   -3.0087    0.4849 C   0  0  0  0  0  0  0  0  0  0  0  0
    8.0720   -3.3411    0.5499 O   0  0  0  0  0  0  0  0  0  0  0  0
    7.2689   -2.9357   -0.4482 C   0  0  0  0  0  0  0  0  0  0  0  0
    7.7127   -2.3584   -1.4417 O   0  0  0  0  0  0  0  0  0  0  0  0
    5.8229   -3.1936   -0.1641 C   0  0  0  0  0  0  0  0  0  0  0  0
    4.8274   -3.0499   -1.0446 C   0  0  0  0  0  0  0  0  0  0  0  0
    4.9520   -2.6838   -2.5335 C   0  0  0  0  0  0  0  0  0  0  0  0
    3.5322   -3.2474   -0.5778 N   0  0  0  0  0  0  0  0  0  0  0  0
    2.3773   -3.0767   -1.4625 C   0  0  0  0  0  0  0  0  0  0  0  0
    3.1696   -3.6650    0.7991 C   0  0  1  0  0  0  0  0  0  0  0  0
    2.5615   -2.4074    1.4926 C   0  0  0  0  0  0  0  0  0  0  0  0
    3.8232   -1.4372    1.7387 C   0  0  0  0  0  0  0  0  0  0  0  0
    5.2391   -2.1937    2.0423 C   0  0  0  0  0  0  0  0  0  0  0  0
    5.5081   -3.6157    1.2762 C   0  0  2  0  0  0  0  0  0  0  0  0
    5.4164   -5.2551    1.1468 C   0  0  0  0  0  0  0  0  0  0  0  0
    4.1515   -5.8856    0.6078 O   0  0  0  0  0  0  0  0  0  0  0  0
    2.8947   -5.1835    0.6517 C   0  0  0  0  0  0  0  0  0  0  0  0
    1.7686   -5.6457    0.5015 O   0  0  0  0  0  0  0  0  0  0  0  0
    4.1926   -3.8602    1.8275 N   0  0  0  0  0  0  0  0  0  0  0  0
    3.9699   -4.3047    3.2168 C   0  0  0  0  0  0  0  0  0  0  0  0
    4.8510   -4.4480    4.0609 O   0  0  0  0  0  0  0  0  0  0  0  0
    2.6674   -4.5815    3.4693 O   0  0  0  0  0  0  0  0  0  0  0  0
    2.2740   -5.0544    4.7470 C   0  0  0  0  0  0  0  0  0  0  0  0
    9.9728   -3.3860    1.3605 H   0  0  0  0  0  0  0  0  0  0  0  0
    9.5937   -1.9288    0.4281 H   0  0  0  0  0  0  0  0  0  0  0  0
    9.8773   -3.4568   -0.4062 H   0  0  0  0  0  0  0  0  0  0  0  0
    5.9485   -2.7802   -2.9531 H   0  0  0  0  0  0  0  0  0  0  0  0
    4.6078   -1.6607   -2.6919 H   0  0  0  0  0  0  0  0  0  0  0  0
    4.3481   -3.3633   -3.1327 H   0  0  0  0  0  0  0  0  0  0  0  0
    2.4096   -2.1131   -1.9710 H   0  0  0  0  0  0  0  0  0  0  0  0
    1.4208   -3.1331   -0.9460 H   0  0  0  0  0  0  0  0  0  0  0  0
    2.3579   -3.8557   -2.2236 H   0  0  0  0  0  0  0  0  0  0  0  0
    1.8275   -1.8989    0.8799 H   0  0  0  0  0  0  0  0  0  0  0  0
    2.0249   -2.5907    2.4242 H   0  0  0  0  0  0  0  0  0  0  0  0
    3.9489   -0.8438    0.8306 H   0  0  0  0  0  0  0  0  0  0  0  0
    3.5943   -0.7128    2.5251 H   0  0  0  0  0  0  0  0  0  0  0  0
    6.0066   -1.5007    1.7087 H   0  0  0  0  0  0  0  0  0  0  0  0
    5.4450   -2.2131    3.1140 H   0  0  0  0  0  0  0  0  0  0  0  0
    6.1899   -5.5607    0.4445 H   0  0  0  0  0  0  0  0  0  0  0  0
    5.7086   -5.7638    2.0688 H   0  0  0  0  0  0  0  0  0  0  0  0
    1.1957   -5.2218    4.7478 H   0  0  0  0  0  0  0  0  0  0  0  0
    2.5010   -4.3289    5.5301 H   0  0  0  0  0  0  0  0  0  0  0  0
    2.7606   -6.0007    4.9891 H   0  0  0  0  0  0  0  0  0  0  0  0
  1  2  1  0
  1 24  1  0
  1 25  1  0
  1 26  1  0
  2  3  1  0
  3  4  2  0
  3  5  1  0
  5 14  1  0
  5  6  2  0
  6  7  1  0
  6  8  1  0
  7 27  1  0
  7 28  1  0
  7 29  1  0
  8  9  1  0
 10  8  1  6
  9 30  1  0
  9 31  1  0
  9 32  1  0
 10 17  1  0
 10 19  1  0
 10 11  1  0
 11 12  1  0
 11 33  1  0
 11 34  1  0
 12 13  1  0
 12 35  1  0
 12 36  1  0
 14 13  1  6
 13 37  1  0
 13 38  1  0
 14 15  1  0
 14 19  1  0
 15 16  1  0
 15 39  1  0
 15 40  1  0
 16 17  1  0
 17 18  2  0
 19 20  1  0
 20 21  2  0
 20 22  1  0
 22 23  1  0
 23 41  1  0
 23 42  1  0
 23 43  1  0
M  END
>  <i_m_ct_stereo_status>  (200) 
1

>  <s_m_source_file>  (200) 
/var/tmp/pbs.5076255.sched01/tmpp9awzhar/40nweoahkg.sdf

>  <i_m_source_file_index>  (200) 
39

>  <i_lp_mmshare_version>  (200) 
48012

>  <i_f3d_flags>  (200) 
0

>  <s_epik_input>  (200) 
W0NIM11PQyg9TylDKD1DKFtDSDNdKU4oW0NAQF0xMjMpW0NIM10pW0NAXShbQ0gyXVtDSDJdW0NIMl0xKShbQ0gyXU9DMj1PKU4zQyg9TylPW0NIM10=

>  <s_epik_cmdline>  (200) 
J2VwaWtfcHl0aG9uJywgJy1waHQnLCAnMi4wJywgJy1waCcsICc3LjAnLCAnLXRuJywgJzgnLCAnLW1hJywgJzIwMCcsICctaW1hZScsICc8aW5maWxlLm1hZT4nLCAnLW9tYWUnLCAnPG91dGZpbGUubWFlPic=

>  <r_lp_tautomer_probability>  (200) 
1

>  <r_epik_Ionization_Penalty>  (200) 
6.31303e-09

>  <r_epik_Ionization_Penalty_Charging>  (200) 
0

>  <r_epik_Ionization_Penalty_Neutral>  (200) 
6.31303e-09

>  <r_epik_State_Penalty>  (200) 
-0

>  <r_epik_Charging_Adjusted_Penalty>  (200) 
0

>  <i_epik_Tot_Q>  (200) 
0

>  <i_epik_Tot_abs_Q>  (200) 
0

>  <s_epik_Chemistry_Notes>  (200) 
This compound has an ester and may undergo hydrolysis at high or low pH.

>  <s_lp_Force_Field>  (200) 
OPLS3e

>  <r_lp_Energy>  (200) 
233.427

>  <b_lp_Chiralities_Consistent>  (200) 
1

>  <s_lp_Variant>  (200) 
56:0-1

>  <s_i_glide_gridfile>  (200) 
pfpi4k_grid

>  <i_i_glide_lignum>  (200) 
39

>  <i_i_glide_rotatable_bonds>  (200) 
4

>  <r_i_docking_score>  (200) 
-3.39741

>  <r_i_glide_ligand_efficiency>  (200) 
-0.147713

>  <r_i_glide_ligand_efficiency_sa>  (200) 
-0.420077

>  <r_i_glide_ligand_efficiency_ln>  (200) 
-0.821523

>  <r_i_glide_gscore>  (200) 
-3.39741

>  <r_i_glide_lipo>  (200) 
-0.410318

>  <r_i_glide_hbond>  (200) 
-0.262865

>  <r_i_glide_metal>  (200) 
-0

>  <r_i_glide_rewards>  (200) 
-1.33688

>  <r_i_glide_evdw>  (200) 
-23.1724

>  <r_i_glide_ecoul>  (200) 
-3.67748

>  <r_i_glide_erotb>  (200) 
0.356047

>  <r_i_glide_esite>  (200) 
-0.0331484

>  <r_i_glide_emodel>  (200) 
-31.859

>  <r_i_glide_energy>  (200) 
-26.8499

>  <r_i_glide_einternal>  (200) 
1.05812

>  <r_i_glide_intrahb_reward>  (200) 
-0

>  <i_i_glide_confnum>  (200) 
6

>  <i_i_glide_posenum>  (200) 
1

>  <r_i_glide_eff_state_penalty>  (200) 
0

>  <ligand_id>  (200) 
56

>  <original_smiles>  (200) 
COC(=O)C1=C(C)N(C)C23CCCC1(COC2=O)N3C(=O)OC

>  <smiles>  (200) 
[H]C([H])([H])OC(=O)C1=C(C([H])([H])[H])N(C([H])([H])[H])C23C(=O)OC([H])([H])C1(N2C(=O)OC([H])([H])[H])C([H])([H])C([H])([H])C3([H])[H]

$$$$
56:0:1
     RDKit          3D

 43 45  0  0  1  0  0  0  0  0999 V2000
    3.3402   -1.6619   -3.7324 C   0  0  0  0  0  0  0  0  0  0  0  0
    3.3525   -2.1374   -2.4034 O   0  0  0  0  0  0  0  0  0  0  0  0
    4.2463   -3.0272   -1.9781 C   0  0  0  0  0  0  0  0  0  0  0  0
    5.0182   -3.6134   -2.7431 O   0  0  0  0  0  0  0  0  0  0  0  0
    4.2171   -3.2504   -0.4956 C   0  0  0  0  0  0  0  0  0  0  0  0
    3.9250   -2.3267    0.4353 C   0  0  0  0  0  0  0  0  0  0  0  0
    3.5931   -0.8439    0.2228 C   0  0  0  0  0  0  0  0  0  0  0  0
    3.9611   -2.7301    1.7594 N   0  0  0  0  0  0  0  0  0  0  0  0
    3.6970   -1.7836    2.8520 C   0  0  0  0  0  0  0  0  0  0  0  0
    4.2126   -4.1228    2.2222 C   0  0  1  0  0  0  0  0  0  0  0  0
    5.6476   -4.0984    2.8424 C   0  0  0  0  0  0  0  0  0  0  0  0
    6.6325   -3.9671    1.5716 C   0  0  0  0  0  0  0  0  0  0  0  0
    6.1031   -4.6950    0.2041 C   0  0  0  0  0  0  0  0  0  0  0  0
    4.4939   -4.6932   -0.0824 C   0  0  2  0  0  0  0  0  0  0  0  0
    2.9786   -5.3068    0.0683 C   0  0  0  0  0  0  0  0  0  0  0  0
    2.1629   -5.0539    1.3181 O   0  0  0  0  0  0  0  0  0  0  0  0
    2.7991   -4.6523    2.5390 C   0  0  0  0  0  0  0  0  0  0  0  0
    2.2907   -4.6359    3.6560 O   0  0  0  0  0  0  0  0  0  0  0  0
    4.5253   -5.1936    1.2738 N   0  0  0  0  0  0  0  0  0  0  0  0
    4.7574   -6.6086    1.6173 C   0  0  0  0  0  0  0  0  0  0  0  0
    5.0043   -7.5014    0.8045 O   0  0  0  0  0  0  0  0  0  0  0  0
    4.6385   -6.8535    2.9434 O   0  0  0  0  0  0  0  0  0  0  0  0
    4.8153   -8.1690    3.4465 C   0  0  0  0  0  0  0  0  0  0  0  0
    2.6495   -0.8210   -3.7907 H   0  0  0  0  0  0  0  0  0  0  0  0
    2.9900   -2.4407   -4.4102 H   0  0  0  0  0  0  0  0  0  0  0  0
    4.3152   -1.3022   -4.0649 H   0  0  0  0  0  0  0  0  0  0  0  0
    3.3956   -0.5857   -0.7984 H   0  0  0  0  0  0  0  0  0  0  0  0
    4.4178   -0.2084    0.5555 H   0  0  0  0  0  0  0  0  0  0  0  0
    2.6883   -0.5655    0.7736 H   0  0  0  0  0  0  0  0  0  0  0  0
    4.3285   -0.8967    2.7570 H   0  0  0  0  0  0  0  0  0  0  0  0
    3.8835   -2.1986    3.8449 H   0  0  0  0  0  0  0  0  0  0  0  0
    2.6505   -1.4696    2.8328 H   0  0  0  0  0  0  0  0  0  0  0  0
    5.8019   -3.2546    3.5131 H   0  0  0  0  0  0  0  0  0  0  0  0
    5.9099   -4.9628    3.4517 H   0  0  0  0  0  0  0  0  0  0  0  0
    6.7373   -2.9007    1.3578 H   0  0  0  0  0  0  0  0  0  0  0  0
    7.6321   -4.3273    1.8238 H   0  0  0  0  0  0  0  0  0  0  0  0
    6.5788   -4.1406   -0.6022 H   0  0  0  0  0  0  0  0  0  0  0  0
    6.5771   -5.6733    0.0792 H   0  0  0  0  0  0  0  0  0  0  0  0
    2.3789   -4.8844   -0.7344 H   0  0  0  0  0  0  0  0  0  0  0  0
    2.9602   -6.3750   -0.1458 H   0  0  0  0  0  0  0  0  0  0  0  0
    4.6836   -8.1568    4.5290 H   0  0  0  0  0  0  0  0  0  0  0  0
    5.8186   -8.5455    3.2328 H   0  0  0  0  0  0  0  0  0  0  0  0
    4.0811   -8.8583    3.0229 H   0  0  0  0  0  0  0  0  0  0  0  0
  1  2  1  0
  1 24  1  0
  1 25  1  0
  1 26  1  0
  2  3  1  0
  3  4  2  0
  3  5  1  0
  5 14  1  0
  5  6  2  0
  6  7  1  0
  6  8  1  0
  7 27  1  0
  7 28  1  0
  7 29  1  0
  8  9  1  0
 10  8  1  6
  9 30  1  0
  9 31  1  0
  9 32  1  0
 10 17  1  0
 10 19  1  0
 10 11  1  0
 11 12  1  0
 11 33  1  0
 11 34  1  0
 12 13  1  0
 12 35  1  0
 12 36  1  0
 14 13  1  1
 13 37  1  0
 13 38  1  0
 14 15  1  0
 14 19  1  0
 15 16  1  0
 15 39  1  0
 15 40  1  0
 16 17  1  0
 17 18  2  0
 19 20  1  0
 20 21  2  0
 20 22  1  0
 22 23  1  0
 23 41  1  0
 23 42  1  0
 23 43  1  0
M  END
>  <i_m_ct_stereo_status>  (201) 
1

>  <s_m_source_file>  (201) 
/var/tmp/pbs.5076255.sched01/tmpp9awzhar/40nweoahkg.sdf

>  <i_m_source_file_index>  (201) 
39

>  <i_lp_mmshare_version>  (201) 
48012

>  <i_f3d_flags>  (201) 
0

>  <s_epik_input>  (201) 
W0NIM11PQyg9TylDKD1DKFtDSDNdKU4oW0NAQF0xMjMpW0NIM10pW0NAXShbQ0gyXVtDSDJdW0NIMl0xKShbQ0gyXU9DMj1PKU4zQyg9TylPW0NIM10=

>  <s_epik_cmdline>  (201) 
J2VwaWtfcHl0aG9uJywgJy1waHQnLCAnMi4wJywgJy1waCcsICc3LjAnLCAnLXRuJywgJzgnLCAnLW1hJywgJzIwMCcsICctaW1hZScsICc8aW5maWxlLm1hZT4nLCAnLW9tYWUnLCAnPG91dGZpbGUubWFlPic=

>  <r_lp_tautomer_probability>  (201) 
1

>  <r_epik_Ionization_Penalty>  (201) 
6.31303e-09

>  <r_epik_Ionization_Penalty_Charging>  (201) 
0

>  <r_epik_Ionization_Penalty_Neutral>  (201) 
6.31303e-09

>  <r_epik_State_Penalty>  (201) 
-0

>  <r_epik_Charging_Adjusted_Penalty>  (201) 
0

>  <i_epik_Tot_Q>  (201) 
0

>  <i_epik_Tot_abs_Q>  (201) 
0

>  <s_epik_Chemistry_Notes>  (201) 
This compound has an ester and may undergo hydrolysis at high or low pH.

>  <s_lp_Force_Field>  (201) 
OPLS3e

>  <r_lp_Energy>  (201) 
233.427

>  <b_lp_Chiralities_Consistent>  (201) 
1

>  <s_lp_Variant>  (201) 
56:0-1

>  <s_i_glide_gridfile>  (201) 
pfpi4k_grid

>  <i_i_glide_lignum>  (201) 
39

>  <i_i_glide_rotatable_bonds>  (201) 
4

>  <r_i_docking_score>  (201) 
-2.61205

>  <r_i_glide_ligand_efficiency>  (201) 
-0.113567

>  <r_i_glide_ligand_efficiency_sa>  (201) 
-0.32297

>  <r_i_glide_ligand_efficiency_ln>  (201) 
-0.631616

>  <r_i_glide_gscore>  (201) 
-2.61205

>  <r_i_glide_lipo>  (201) 
-0.403924

>  <r_i_glide_hbond>  (201) 
-0.0154259

>  <r_i_glide_metal>  (201) 
-0

>  <r_i_glide_rewards>  (201) 
-1.33777

>  <r_i_glide_evdw>  (201) 
-22.0616

>  <r_i_glide_ecoul>  (201) 
-0.604647

>  <r_i_glide_erotb>  (201) 
0.356047

>  <r_i_glide_esite>  (201) 
-0.0171925

>  <r_i_glide_emodel>  (201) 
-26.3622

>  <r_i_glide_energy>  (201) 
-22.6662

>  <r_i_glide_einternal>  (201) 
0.854615

>  <r_i_glide_intrahb_reward>  (201) 
-0

>  <i_i_glide_confnum>  (201) 
5

>  <i_i_glide_posenum>  (201) 
5

>  <r_i_glide_eff_state_penalty>  (201) 
0

>  <ligand_id>  (201) 
56

>  <original_smiles>  (201) 
COC(=O)C1=C(C)N(C)C23CCCC1(COC2=O)N3C(=O)OC

>  <smiles>  (201) 
[H]C([H])([H])OC(=O)C1=C(C([H])([H])[H])N(C([H])([H])[H])C23C(=O)OC([H])([H])C1(N2C(=O)OC([H])([H])[H])C([H])([H])C([H])([H])C3([H])[H]

$$$$
56:0:2
     RDKit          3D

 43 45  0  0  1  0  0  0  0  0999 V2000
    3.4621   -1.9331   -4.0877 C   0  0  0  0  0  0  0  0  0  0  0  0
    3.4779   -2.2660   -2.7156 O   0  0  0  0  0  0  0  0  0  0  0  0
    4.3258   -3.1428   -2.2116 C   0  0  0  0  0  0  0  0  0  0  0  0
    5.0520   -3.8540   -2.9371 O   0  0  0  0  0  0  0  0  0  0  0  0
    4.3325   -3.2115   -0.7243 C   0  0  0  0  0  0  0  0  0  0  0  0
    4.0800   -2.1824    0.1235 C   0  0  0  0  0  0  0  0  0  0  0  0
    3.8008   -0.7182   -0.2198 C   0  0  0  0  0  0  0  0  0  0  0  0
    4.1277   -2.4709    1.4755 N   0  0  0  0  0  0  0  0  0  0  0  0
    3.9097   -1.4035    2.4746 C   0  0  0  0  0  0  0  0  0  0  0  0
    4.3529   -3.8129    2.0703 C   0  0  1  0  0  0  0  0  0  0  0  0
    5.7759   -3.7688    2.6757 C   0  0  0  0  0  0  0  0  0  0  0  0
    6.7537   -3.7846    1.3926 C   0  0  0  0  0  0  0  0  0  0  0  0
    6.1857   -4.6250    0.1085 C   0  0  0  0  0  0  0  0  0  0  0  0
    4.5722   -4.6090   -0.1657 C   0  0  2  0  0  0  0  0  0  0  0  0
    3.0410   -5.1610    0.0763 C   0  0  0  0  0  0  0  0  0  0  0  0
    2.2655   -4.7548    1.3096 O   0  0  0  0  0  0  0  0  0  0  0  0
    2.9490   -4.2764    2.4795 C   0  0  0  0  0  0  0  0  0  0  0  0
    2.4846   -4.1060    3.5983 O   0  0  0  0  0  0  0  0  0  0  0  0
    4.6206   -4.9852    1.2219 N   0  0  0  0  0  0  0  0  0  0  0  0
    4.8234   -6.3396    1.7656 C   0  0  0  0  0  0  0  0  0  0  0  0
    4.8454   -6.6673    2.9481 O   0  0  0  0  0  0  0  0  0  0  0  0
    4.9441   -7.2334    0.7560 O   0  0  0  0  0  0  0  0  0  0  0  0
    5.0684   -8.6175    1.0362 C   0  0  0  0  0  0  0  0  0  0  0  0
    2.8400   -1.0470   -4.2061 H   0  0  0  0  0  0  0  0  0  0  0  0
    3.0192   -2.7499   -4.6578 H   0  0  0  0  0  0  0  0  0  0  0  0
    4.4487   -1.6928   -4.4867 H   0  0  0  0  0  0  0  0  0  0  0  0
    3.5867   -0.5068   -1.2516 H   0  0  0  0  0  0  0  0  0  0  0  0
    4.6491   -0.0836    0.0487 H   0  0  0  0  0  0  0  0  0  0  0  0
    2.9190   -0.3683    0.3278 H   0  0  0  0  0  0  0  0  0  0  0  0
    4.5630   -0.5488    2.2842 H   0  0  0  0  0  0  0  0  0  0  0  0
    4.0980   -1.7113    3.5056 H   0  0  0  0  0  0  0  0  0  0  0  0
    2.8748   -1.0551    2.4408 H   0  0  0  0  0  0  0  0  0  0  0  0
    5.9415   -2.8581    3.2517 H   0  0  0  0  0  0  0  0  0  0  0  0
    6.0036   -4.5803    3.3688 H   0  0  0  0  0  0  0  0  0  0  0  0
    6.8842   -2.7498    1.0748 H   0  0  0  0  0  0  0  0  0  0  0  0
    7.7448   -4.1413    1.6763 H   0  0  0  0  0  0  0  0  0  0  0  0
    6.6651   -4.1599   -0.7453 H   0  0  0  0  0  0  0  0  0  0  0  0
    6.6430   -5.6182    0.0771 H   0  0  0  0  0  0  0  0  0  0  0  0
    2.4347   -4.7989   -0.7492 H   0  0  0  0  0  0  0  0  0  0  0  0
    2.9597   -6.2457   -0.0279 H   0  0  0  0  0  0  0  0  0  0  0  0
    5.1583   -9.1666    0.1013 H   0  0  0  0  0  0  0  0  0  0  0  0
    4.1927   -9.0067    1.5571 H   0  0  0  0  0  0  0  0  0  0  0  0
    5.9582   -8.8263    1.6318 H   0  0  0  0  0  0  0  0  0  0  0  0
  1  2  1  0
  1 24  1  0
  1 25  1  0
  1 26  1  0
  2  3  1  0
  3  4  2  0
  3  5  1  0
  5 14  1  0
  5  6  2  0
  6  7  1  0
  6  8  1  0
  7 27  1  0
  7 28  1  0
  7 29  1  0
  8  9  1  0
 10  8  1  6
  9 30  1  0
  9 31  1  0
  9 32  1  0
 10 17  1  0
 10 19  1  0
 10 11  1  0
 11 12  1  0
 11 33  1  0
 11 34  1  0
 12 13  1  0
 12 35  1  0
 12 36  1  0
 14 13  1  1
 13 37  1  0
 13 38  1  0
 14 15  1  0
 14 19  1  0
 15 16  1  0
 15 39  1  0
 15 40  1  0
 16 17  1  0
 17 18  2  0
 19 20  1  0
 20 21  2  0
 20 22  1  0
 22 23  1  0
 23 41  1  0
 23 42  1  0
 23 43  1  0
M  END
>  <i_m_ct_stereo_status>  (202) 
1

>  <s_m_source_file>  (202) 
/var/tmp/pbs.5076255.sched01/tmpp9awzhar/40nweoahkg.sdf

>  <i_m_source_file_index>  (202) 
39

>  <i_lp_mmshare_version>  (202) 
48012

>  <i_f3d_flags>  (202) 
0

>  <s_epik_input>  (202) 
W0NIM11PQyg9TylDKD1DKFtDSDNdKU4oW0NAQF0xMjMpW0NIM10pW0NAXShbQ0gyXVtDSDJdW0NIMl0xKShbQ0gyXU9DMj1PKU4zQyg9TylPW0NIM10=

>  <s_epik_cmdline>  (202) 
J2VwaWtfcHl0aG9uJywgJy1waHQnLCAnMi4wJywgJy1waCcsICc3LjAnLCAnLXRuJywgJzgnLCAnLW1hJywgJzIwMCcsICctaW1hZScsICc8aW5maWxlLm1hZT4nLCAnLW9tYWUnLCAnPG91dGZpbGUubWFlPic=

>  <r_lp_tautomer_probability>  (202) 
1

>  <r_epik_Ionization_Penalty>  (202) 
6.31303e-09

>  <r_epik_Ionization_Penalty_Charging>  (202) 
0

>  <r_epik_Ionization_Penalty_Neutral>  (202) 
6.31303e-09

>  <r_epik_State_Penalty>  (202) 
-0

>  <r_epik_Charging_Adjusted_Penalty>  (202) 
0

>  <i_epik_Tot_Q>  (202) 
0

>  <i_epik_Tot_abs_Q>  (202) 
0

>  <s_epik_Chemistry_Notes>  (202) 
This compound has an ester and may undergo hydrolysis at high or low pH.

>  <s_lp_Force_Field>  (202) 
OPLS3e

>  <r_lp_Energy>  (202) 
233.427

>  <b_lp_Chiralities_Consistent>  (202) 
1

>  <s_lp_Variant>  (202) 
56:0-1

>  <s_i_glide_gridfile>  (202) 
pfpi4k_grid

>  <i_i_glide_lignum>  (202) 
39

>  <i_i_glide_rotatable_bonds>  (202) 
4

>  <r_i_docking_score>  (202) 
-2.20658

>  <r_i_glide_ligand_efficiency>  (202) 
-0.0959382

>  <r_i_glide_ligand_efficiency_sa>  (202) 
-0.272835

>  <r_i_glide_ligand_efficiency_ln>  (202) 
-0.533571

>  <r_i_glide_gscore>  (202) 
-2.20658

>  <r_i_glide_lipo>  (202) 
-0.199418

>  <r_i_glide_hbond>  (202) 
-0.00410037

>  <r_i_glide_metal>  (202) 
-0

>  <r_i_glide_rewards>  (202) 
-1.3313

>  <r_i_glide_evdw>  (202) 
-22.3602

>  <r_i_glide_ecoul>  (202) 
0.674466

>  <r_i_glide_erotb>  (202) 
0.356047

>  <r_i_glide_esite>  (202) 
-0.0109682

>  <r_i_glide_emodel>  (202) 
-24.7529

>  <r_i_glide_energy>  (202) 
-21.6857

>  <r_i_glide_einternal>  (202) 
0.686851

>  <r_i_glide_intrahb_reward>  (202) 
-0

>  <i_i_glide_confnum>  (202) 
2

>  <i_i_glide_posenum>  (202) 
9

>  <r_i_glide_eff_state_penalty>  (202) 
0

>  <ligand_id>  (202) 
56

>  <original_smiles>  (202) 
COC(=O)C1=C(C)N(C)C23CCCC1(COC2=O)N3C(=O)OC

>  <smiles>  (202) 
[H]C([H])([H])OC(=O)C1=C(C([H])([H])[H])N(C([H])([H])[H])C23C(=O)OC([H])([H])C1(N2C(=O)OC([H])([H])[H])C([H])([H])C([H])([H])C3([H])[H]

$$$$
58:0:0
     RDKit          3D

 33 35  0  0  1  0  0  0  0  0999 V2000
   -1.8917    1.9463    4.1743 C   0  0  0  0  0  0  0  0  0  0  0  0
   -1.2351    0.5459    4.2886 C   0  0  2  0  0  0  0  0  0  0  0  0
   -1.7846   -0.2317    5.4883 C   0  0  0  0  0  0  0  0  0  0  0  0
   -2.1886    0.4034    6.4797 O   0  0  0  0  0  0  0  0  0  0  0  0
   -1.8722   -1.4845    5.4016 O   0  0  0  0  0  0  0  0  0  0  0  0
    0.3170    0.5870    4.2126 C   0  0  2  0  0  0  0  0  0  0  0  0
    0.9575    1.4331    5.3333 C   0  0  0  0  0  0  0  0  0  0  0  0
    1.0801    2.9006    4.9045 C   0  0  0  0  0  0  0  0  0  0  0  0
    0.9053    3.8151    5.7090 O   0  0  0  0  0  0  0  0  0  0  0  0
    1.4062    3.2206    3.4326 C   0  0  0  0  0  0  0  0  0  0  0  0
    1.9218    1.9966    2.6462 C   0  0  0  0  0  0  0  0  0  0  0  0
    0.9215    0.8460    2.7471 C   0  0  1  0  0  0  0  0  0  0  0  0
    1.5221   -0.5291    2.8103 C   0  0  0  0  0  0  0  0  0  0  0  0
    2.1888   -1.4785    2.0292 C   0  0  0  0  0  0  0  0  0  0  0  0
    2.3608   -2.7253    2.7011 C   0  0  0  0  0  0  0  0  0  0  0  0
    1.8817   -2.9719    4.0255 C   0  0  0  0  0  0  0  0  0  0  0  0
    1.1603   -2.0023    4.7903 C   0  0  0  0  0  0  0  0  0  0  0  0
    0.9804   -0.7807    4.1198 C   0  0  0  0  0  0  0  0  0  0  0  0
   -2.9765    1.8744    4.0826 H   0  0  0  0  0  0  0  0  0  0  0  0
   -1.5400    2.4975    3.2965 H   0  0  0  0  0  0  0  0  0  0  0  0
   -1.7018    2.5732    5.0497 H   0  0  0  0  0  0  0  0  0  0  0  0
   -1.5923    0.0119    3.4139 H   0  0  0  0  0  0  0  0  0  0  0  0
    0.4141    1.3696    6.2753 H   0  0  0  0  0  0  0  0  0  0  0  0
    1.9783    1.1078    5.5475 H   0  0  0  0  0  0  0  0  0  0  0  0
    0.4975    3.5978    2.9539 H   0  0  0  0  0  0  0  0  0  0  0  0
    2.1205    4.0491    3.3924 H   0  0  0  0  0  0  0  0  0  0  0  0
    2.1236    2.2631    1.6112 H   0  0  0  0  0  0  0  0  0  0  0  0
    2.8800    1.7145    3.0863 H   0  0  0  0  0  0  0  0  0  0  0  0
    0.1188    0.8593    2.0069 H   0  0  0  0  0  0  0  0  0  0  0  0
    2.5064   -1.3111    0.9987 H   0  0  0  0  0  0  0  0  0  0  0  0
    2.8667   -3.5323    2.1837 H   0  0  0  0  0  0  0  0  0  0  0  0
    2.0749   -3.9486    4.4624 H   0  0  0  0  0  0  0  0  0  0  0  0
    0.7852   -2.2126    5.7934 H   0  0  0  0  0  0  0  0  0  0  0  0
  1  2  1  0
  1 19  1  0
  1 20  1  0
  1 21  1  0
  2  3  1  0
  2  6  1  0
  2 22  1  6
  3  4  2  0
  3  5  1  0
  6 12  1  0
  6 18  1  0
  6  7  1  1
  7  8  1  0
  7 23  1  0
  7 24  1  0
  8  9  2  0
  8 10  1  0
 10 11  1  0
 10 25  1  0
 10 26  1  0
 11 12  1  0
 11 27  1  0
 11 28  1  0
 12 13  1  0
 12 29  1  6
 13 18  2  0
 13 14  1  0
 14 15  2  0
 14 30  1  0
 15 16  1  0
 15 31  1  0
 16 17  2  0
 16 32  1  0
 17 18  1  0
 17 33  1  0
M  CHG  1   5  -1
M  END
>  <i_m_ct_stereo_status>  (203) 
1

>  <s_m_source_file>  (203) 
/var/tmp/pbs.5076255.sched01/tmp2672eyar/80wl2hclo4.sdf

>  <i_m_source_file_index>  (203) 
1

>  <i_lp_mmshare_version>  (203) 
48012

>  <i_f3d_flags>  (203) 
0

>  <s_epik_input>  (203) 
Tz1DKFtPSF0pW0NAQEhdKFtDSDNdKVtDQEBdMTJbQ0BASF0oW0NIMl1bQ0gyXUMoPU8pW0NIMl0xKWMzYzJbY0hdW2NIXVtjSF1bY0hdMw==

>  <s_epik_cmdline>  (203) 
J2VwaWtfcHl0aG9uJywgJy1waHQnLCAnMi4wJywgJy1waCcsICc3LjAnLCAnLXRuJywgJzgnLCAnLW1hJywgJzIwMCcsICctaW1hZScsICc8aW5maWxlLm1hZT4nLCAnLW9tYWUnLCAnPG91dGZpbGUubWFlPic=

>  <r_lp_tautomer_probability>  (203) 
1

>  <r_epik_Ionization_Penalty>  (203) 
0.00219086

>  <r_epik_Ionization_Penalty_Charging>  (203) 
0.00219086

>  <r_epik_Ionization_Penalty_Neutral>  (203) 
2.1615e-13

>  <r_epik_State_Penalty>  (203) 
0.00150583

>  <r_epik_Charging_Adjusted_Penalty>  (203) 
0.0036967

>  <i_epik_Tot_Q>  (203) 
-1

>  <i_epik_Tot_abs_Q>  (203) 
1

>  <s_lp_Force_Field>  (203) 
OPLS3e

>  <r_lp_Energy>  (203) 
15.3538

>  <b_lp_Chiralities_Consistent>  (203) 
1

>  <s_lp_Variant>  (203) 
58:0-1

>  <s_i_glide_gridfile>  (203) 
pfpi4k_grid

>  <i_i_glide_lignum>  (203) 
1

>  <i_i_glide_rotatable_bonds>  (203) 
2

>  <r_i_docking_score>  (203) 
-3.37313

>  <r_i_glide_ligand_efficiency>  (203) 
-0.187396

>  <r_i_glide_ligand_efficiency_sa>  (203) 
-0.491117

>  <r_i_glide_ligand_efficiency_ln>  (203) 
-0.867045

>  <r_i_glide_gscore>  (203) 
-3.37313

>  <r_i_glide_lipo>  (203) 
-0.00829012

>  <r_i_glide_hbond>  (203) 
-0.2

>  <r_i_glide_metal>  (203) 
-0

>  <r_i_glide_rewards>  (203) 
-1.75038

>  <r_i_glide_evdw>  (203) 
-13.5648

>  <r_i_glide_ecoul>  (203) 
-4.40763

>  <r_i_glide_erotb>  (203) 
0

>  <r_i_glide_esite>  (203) 
-0.0750769

>  <r_i_glide_emodel>  (203) 
-25.1392

>  <r_i_glide_energy>  (203) 
-17.9724

>  <r_i_glide_einternal>  (203) 
0.764143

>  <r_i_glide_intrahb_reward>  (203) 
-0

>  <i_i_glide_confnum>  (203) 
2

>  <i_i_glide_posenum>  (203) 
19

>  <r_i_glide_eff_state_penalty>  (203) 
0

>  <ligand_id>  (203) 
58

>  <original_smiles>  (203) 
CC(C(=O)O)C12CC(=O)CCC1c1ccccc12

>  <smiles>  (203) 
[H]c1c([H])c([H])c2c(c1[H])C1([H])C([H])([H])C([H])([H])C(=O)C([H])([H])C21C([H])(C(=O)[O-])C([H])([H])[H]

$$$$
59:0:0
     RDKit          3D

 77 81  0  0  1  0  0  0  0  0999 V2000
    1.4482  -10.8814    4.2731 C   0  0  0  0  0  0  0  0  0  0  0  0
    1.5480   -9.6477    5.2085 C   0  0  0  0  0  0  0  0  0  0  0  0
    0.3268   -9.6709    6.1482 C   0  0  0  0  0  0  0  0  0  0  0  0
    2.9026   -9.6511    5.9739 C   0  0  1  0  0  0  0  0  0  0  0  0
    3.4101  -10.9345    6.2776 O   0  0  0  0  0  0  0  0  0  0  0  0
    3.8229   -8.8597    5.0712 C   0  0  0  0  0  0  0  0  0  0  0  0
    3.1293   -8.1478    4.1805 C   0  0  0  0  0  0  0  0  0  0  0  0
    1.6495   -8.3787    4.3013 C   0  0  2  0  0  0  0  0  0  0  0  0
    1.0010   -7.0456    4.7413 C   0  0  1  0  0  0  0  0  0  0  0  0
    1.3001   -6.6824    6.0753 O   0  0  0  0  0  0  0  0  0  0  0  0
    1.4295   -5.8984    3.7851 C   0  0  0  0  0  0  0  0  0  0  0  0
    2.9855   -5.6899    3.5565 C   0  0  1  0  0  0  0  0  0  0  0  0
    3.6399   -5.2407    4.9015 C   0  0  0  0  0  0  0  0  0  0  0  0
    3.5732   -7.0919    3.1704 C   0  0  1  0  0  0  0  0  0  0  0  0
    5.0863   -7.0153    2.9056 C   0  0  1  0  0  0  0  0  0  0  0  0
    5.6038   -8.2938    2.5598 O   0  0  0  0  0  0  0  0  0  0  0  0
    5.2850   -6.0209    1.7568 C   0  0  0  0  0  0  0  0  0  0  0  0
    5.6940   -6.4131    0.6702 O   0  0  0  0  0  0  0  0  0  0  0  0
    4.8430   -4.5474    2.0176 C   0  0  1  0  0  0  0  0  0  0  0  0
    5.2731   -3.5409    0.8399 C   0  0  2  0  0  0  0  0  0  0  0  0
    6.8009   -3.7634    0.5842 C   0  0  0  0  0  0  0  0  0  0  0  0
    5.1659   -2.0319    1.2346 C   0  0  0  0  0  0  0  0  0  0  0  0
    5.4457   -1.0343    0.0955 C   0  0  0  0  0  0  0  0  0  0  0  0
    4.5578   -1.3068   -1.1286 C   0  0  1  0  0  0  0  0  0  0  0  0
    4.9374   -0.4311   -2.1661 O   0  0  0  0  0  0  0  0  0  0  0  0
    4.6297   -2.7687   -1.6400 C   0  0  0  0  0  0  0  0  0  0  0  0
    3.5666   -2.9263   -2.7599 C   0  0  0  0  0  0  0  0  0  0  0  0
    5.9902   -3.0587   -2.3279 C   0  0  0  0  0  0  0  0  0  0  0  0
    4.3701   -3.7698   -0.4411 C   0  0  2  0  0  0  0  0  0  0  0  0
    2.8717   -3.8115   -0.0249 C   0  0  0  0  0  0  0  0  0  0  0  0
    2.5353   -4.8007    1.1150 C   0  0  0  0  0  0  0  0  0  0  0  0
    3.3103   -4.5675    2.4414 C   0  0  1  0  0  0  0  0  0  0  0  0
    2.8622   -3.2025    3.0557 C   0  0  0  0  0  0  0  0  0  0  0  0
    1.4100  -11.8216    4.8275 H   0  0  0  0  0  0  0  0  0  0  0  0
    2.3078  -10.9412    3.5989 H   0  0  0  0  0  0  0  0  0  0  0  0
    0.5513  -10.8416    3.6526 H   0  0  0  0  0  0  0  0  0  0  0  0
    0.3791   -8.9323    6.9435 H   0  0  0  0  0  0  0  0  0  0  0  0
    0.2235  -10.6426    6.6305 H   0  0  0  0  0  0  0  0  0  0  0  0
   -0.5876   -9.4966    5.5880 H   0  0  0  0  0  0  0  0  0  0  0  0
    2.8196   -9.0952    6.9071 H   0  0  0  0  0  0  0  0  0  0  0  0
    2.7461  -11.4273    6.7592 H   0  0  0  0  0  0  0  0  0  0  0  0
    4.8924   -8.8221    5.2123 H   0  0  0  0  0  0  0  0  0  0  0  0
    1.2683   -8.6113    3.3030 H   0  0  0  0  0  0  0  0  0  0  0  0
   -0.0813   -7.1635    4.6885 H   0  0  0  0  0  0  0  0  0  0  0  0
    1.1163   -7.4243    6.6319 H   0  0  0  0  0  0  0  0  0  0  0  0
    0.9744   -6.1528    2.8318 H   0  0  0  0  0  0  0  0  0  0  0  0
    0.9335   -4.9860    4.1165 H   0  0  0  0  0  0  0  0  0  0  0  0
    4.6409   -4.8256    4.7731 H   0  0  0  0  0  0  0  0  0  0  0  0
    3.7443   -6.0617    5.6086 H   0  0  0  0  0  0  0  0  0  0  0  0
    3.0373   -4.4861    5.4106 H   0  0  0  0  0  0  0  0  0  0  0  0
    3.0985   -7.4186    2.2454 H   0  0  0  0  0  0  0  0  0  0  0  0
    5.6278   -6.6549    3.7808 H   0  0  0  0  0  0  0  0  0  0  0  0
    5.1025   -8.6501    1.8402 H   0  0  0  0  0  0  0  0  0  0  0  0
    5.4179   -4.2350    2.8882 H   0  0  0  0  0  0  0  0  0  0  0  0
    7.3474   -2.8747    0.2856 H   0  0  0  0  0  0  0  0  0  0  0  0
    6.9922   -4.5098   -0.1837 H   0  0  0  0  0  0  0  0  0  0  0  0
    7.3097   -4.0928    1.4898 H   0  0  0  0  0  0  0  0  0  0  0  0
    4.1667   -1.7649    1.5381 H   0  0  0  0  0  0  0  0  0  0  0  0
    5.8127   -1.8139    2.0850 H   0  0  0  0  0  0  0  0  0  0  0  0
    5.2388   -0.0268    0.4599 H   0  0  0  0  0  0  0  0  0  0  0  0
    6.4960   -1.0174   -0.1821 H   0  0  0  0  0  0  0  0  0  0  0  0
    3.5262   -1.0643   -0.8644 H   0  0  0  0  0  0  0  0  0  0  0  0
    4.8959    0.4550   -1.8279 H   0  0  0  0  0  0  0  0  0  0  0  0
    3.4675   -3.9659   -3.0565 H   0  0  0  0  0  0  0  0  0  0  0  0
    3.8312   -2.3698   -3.6609 H   0  0  0  0  0  0  0  0  0  0  0  0
    2.5872   -2.5595   -2.4482 H   0  0  0  0  0  0  0  0  0  0  0  0
    6.1512   -4.1328   -2.4284 H   0  0  0  0  0  0  0  0  0  0  0  0
    6.8394   -2.6295   -1.8022 H   0  0  0  0  0  0  0  0  0  0  0  0
    6.0301   -2.6546   -3.3396 H   0  0  0  0  0  0  0  0  0  0  0  0
    4.5809   -4.7591   -0.8465 H   0  0  0  0  0  0  0  0  0  0  0  0
    2.5296   -2.8086    0.2212 H   0  0  0  0  0  0  0  0  0  0  0  0
    2.2633   -4.1145   -0.8756 H   0  0  0  0  0  0  0  0  0  0  0  0
    1.4722   -4.7241    1.3182 H   0  0  0  0  0  0  0  0  0  0  0  0
    2.6927   -5.8101    0.7323 H   0  0  0  0  0  0  0  0  0  0  0  0
    2.4234   -2.5165    2.3361 H   0  0  0  0  0  0  0  0  0  0  0  0
    3.6955   -2.7058    3.5532 H   0  0  0  0  0  0  0  0  0  0  0  0
    2.0845   -3.2893    3.8067 H   0  0  0  0  0  0  0  0  0  0  0  0
  1  2  1  0
  1 34  1  0
  1 35  1  0
  1 36  1  0
  2  8  1  0
  2  3  1  0
  2  4  1  0
  3 37  1  0
  3 38  1  0
  3 39  1  0
  4  5  1  0
  4  6  1  0
  4 40  1  1
  5 41  1  0
  6  7  2  0
  6 42  1  0
  7 14  1  0
  7  8  1  0
  8  9  1  0
  8 43  1  6
  9 10  1  0
  9 11  1  0
  9 44  1  1
 10 45  1  0
 11 12  1  0
 11 46  1  0
 11 47  1  0
 12 32  1  0
 12 13  1  1
 12 14  1  0
 13 48  1  0
 13 49  1  0
 13 50  1  0
 14 15  1  0
 14 51  1  6
 15 16  1  0
 15 17  1  0
 15 52  1  1
 16 53  1  0
 17 18  2  0
 17 19  1  0
 19 32  1  0
 19 20  1  0
 19 54  1  1
 20 29  1  0
 20 21  1  6
 20 22  1  0
 21 55  1  0
 21 56  1  0
 21 57  1  0
 22 23  1  0
 22 58  1  0
 22 59  1  0
 23 24  1  0
 23 60  1  0
 23 61  1  0
 24 25  1  0
 24 26  1  0
 24 62  1  1
 25 63  1  0
 26 27  1  0
 26 28  1  0
 26 29  1  0
 27 64  1  0
 27 65  1  0
 27 66  1  0
 28 67  1  0
 28 68  1  0
 28 69  1  0
 29 30  1  0
 29 70  1  6
 30 31  1  0
 30 71  1  0
 30 72  1  0
 31 32  1  0
 31 73  1  0
 31 74  1  0
 32 33  1  1
 33 75  1  0
 33 76  1  0
 33 77  1  0
M  END
>  <i_m_ct_stereo_status>  (204) 
1

>  <s_m_source_file>  (204) 
/var/tmp/pbs.5076255.sched01/tmp2672eyar/80wl2hclo4.sdf

>  <i_m_source_file_index>  (204) 
2

>  <i_lp_mmshare_version>  (204) 
48012

>  <i_f3d_flags>  (204) 
0

>  <s_epik_input>  (204) 
W09IXVtDQEBIXShbQ0hdPTEpQyhbQ0gzXSkoW0NIM10pW0NAQEhdKFtDQEBIXShbT0hdKVtDSDJdMilDMVtDQEBIXShbQ0BdMjNbQ0gzXSlbQ0BASF0oW09IXSlDKD1PKVtDQEhdNFtDQEBdNShbQ0gzXSlbQ0BIXShDKFtDSDNdKShbQ0gzXSlbQ0BIXShbT0hdKVtDSDJdW0NIMl01KVtDSDJdW0NIMl1bQ0BAXTM0W0NIM10=

>  <s_epik_cmdline>  (204) 
J2VwaWtfcHl0aG9uJywgJy1waHQnLCAnMi4wJywgJy1waCcsICc3LjAnLCAnLXRuJywgJzgnLCAnLW1hJywgJzIwMCcsICctaW1hZScsICc8aW5maWxlLm1hZT4nLCAnLW9tYWUnLCAnPG91dGZpbGUubWFlPic=

>  <r_lp_tautomer_probability>  (204) 
1

>  <r_epik_Ionization_Penalty>  (204) 
2.58409e-06

>  <r_epik_Ionization_Penalty_Charging>  (204) 
0

>  <r_epik_Ionization_Penalty_Neutral>  (204) 
2.58409e-06

>  <r_epik_State_Penalty>  (204) 
-0

>  <r_epik_Charging_Adjusted_Penalty>  (204) 
0

>  <i_epik_Tot_Q>  (204) 
0

>  <i_epik_Tot_abs_Q>  (204) 
0

>  <s_lp_Force_Field>  (204) 
OPLS3e

>  <r_lp_Energy>  (204) 
77.7516

>  <b_lp_Chiralities_Consistent>  (204) 
1

>  <s_lp_Variant>  (204) 
59:0-1

>  <s_i_glide_gridfile>  (204) 
pfpi4k_grid

>  <i_i_glide_lignum>  (204) 
2

>  <i_i_glide_rotatable_bonds>  (204) 
4

>  <r_i_docking_score>  (204) 
-3.73942

>  <r_i_glide_ligand_efficiency>  (204) 
-0.113316

>  <r_i_glide_ligand_efficiency_sa>  (204) 
-0.363465

>  <r_i_glide_ligand_efficiency_ln>  (204) 
-0.831629

>  <r_i_glide_gscore>  (204) 
-3.73942

>  <r_i_glide_lipo>  (204) 
-0.464658

>  <r_i_glide_hbond>  (204) 
-0.456

>  <r_i_glide_metal>  (204) 
-0

>  <r_i_glide_rewards>  (204) 
-0.333197

>  <r_i_glide_evdw>  (204) 
-29.6975

>  <r_i_glide_ecoul>  (204) 
-6.6713

>  <r_i_glide_erotb>  (204) 
0

>  <r_i_glide_esite>  (204) 
0

>  <r_i_glide_emodel>  (204) 
-44.6789

>  <r_i_glide_energy>  (204) 
-36.3688

>  <r_i_glide_einternal>  (204) 
2.61481

>  <r_i_glide_intrahb_reward>  (204) 
-0

>  <i_i_glide_confnum>  (204) 
2

>  <i_i_glide_posenum>  (204) 
38

>  <r_i_glide_eff_state_penalty>  (204) 
0

>  <ligand_id>  (204) 
59

>  <original_smiles>  (204) 
CC1(C)C(O)C=C2C1C(O)CC1(C)C2C(O)C(=O)C2C3(C)CCC(O)C(C)(C)C3CCC21C

>  <smiles>  (204) 
[H]OC1([H])C(=O)C2([H])C3(C([H])([H])[H])C([H])([H])C([H])([H])C([H])(O[H])C(C([H])([H])[H])(C([H])([H])[H])C3([H])C([H])([H])C([H])([H])C2(C([H])([H])[H])C2(C([H])([H])[H])C([H])([H])C([H])(O[H])C3([H])C(=C([H])C([H])(O[H])C3(C([H])([H])[H])C([H])([H])[H])C12[H]

$$$$
59:0:1
     RDKit          3D

 77 81  0  0  1  0  0  0  0  0999 V2000
    1.5723  -10.8616    4.2809 C   0  0  0  0  0  0  0  0  0  0  0  0
    1.5666   -9.5965    5.1807 C   0  0  0  0  0  0  0  0  0  0  0  0
    0.3081   -9.6486    6.0634 C   0  0  0  0  0  0  0  0  0  0  0  0
    2.8758   -9.5147    6.0160 C   0  0  1  0  0  0  0  0  0  0  0  0
    3.4141  -10.7683    6.3837 O   0  0  0  0  0  0  0  0  0  0  0  0
    3.8068   -8.7080    5.1373 C   0  0  0  0  0  0  0  0  0  0  0  0
    3.1309   -8.0578    4.1852 C   0  0  0  0  0  0  0  0  0  0  0  0
    1.6598   -8.3519    4.2399 C   0  0  2  0  0  0  0  0  0  0  0  0
    0.9319   -7.0399    4.6089 C   0  0  1  0  0  0  0  0  0  0  0  0
    1.1415   -6.6293    5.9457 O   0  0  0  0  0  0  0  0  0  0  0  0
    1.3558   -5.9026    3.6377 C   0  0  0  0  0  0  0  0  0  0  0  0
    2.9094   -5.6279    3.4749 C   0  0  1  0  0  0  0  0  0  0  0  0
    3.4762   -5.1097    4.8362 C   0  0  0  0  0  0  0  0  0  0  0  0
    3.5796   -7.0106    3.1651 C   0  0  1  0  0  0  0  0  0  0  0  0
    5.0970   -6.8670    2.9678 C   0  0  1  0  0  0  0  0  0  0  0  0
    5.6751   -8.1286    2.6687 O   0  0  0  0  0  0  0  0  0  0  0  0
    5.3100   -5.8975    1.7996 C   0  0  0  0  0  0  0  0  0  0  0  0
    5.8099   -6.2915    0.7501 O   0  0  0  0  0  0  0  0  0  0  0  0
    4.7853   -4.4433    1.9914 C   0  0  1  0  0  0  0  0  0  0  0  0
    5.2269   -3.4534    0.8064 C   0  0  2  0  0  0  0  0  0  0  0  0
    6.7743   -3.6111    0.6320 C   0  0  0  0  0  0  0  0  0  0  0  0
    5.0328   -1.9418    1.1484 C   0  0  0  0  0  0  0  0  0  0  0  0
    5.3192   -0.9664   -0.0076 C   0  0  0  0  0  0  0  0  0  0  0  0
    4.5038   -1.3121   -1.2649 C   0  0  1  0  0  0  0  0  0  0  0  0
    4.8770   -0.4411   -2.3105 O   0  0  0  0  0  0  0  0  0  0  0  0
    4.6681   -2.7816   -1.7200 C   0  0  0  0  0  0  0  0  0  0  0  0
    3.6805   -3.0362   -2.8896 C   0  0  0  0  0  0  0  0  0  0  0  0
    6.0691   -3.0303   -2.3339 C   0  0  0  0  0  0  0  0  0  0  0  0
    4.3996   -3.7615   -0.5088 C   0  0  2  0  0  0  0  0  0  0  0  0
    2.8860   -3.8631   -0.1635 C   0  0  0  0  0  0  0  0  0  0  0  0
    2.5399   -4.8377    0.9877 C   0  0  0  0  0  0  0  0  0  0  0  0
    3.2366   -4.5260    2.3409 C   0  0  1  0  0  0  0  0  0  0  0  0
    2.6964   -3.1671    2.8915 C   0  0  0  0  0  0  0  0  0  0  0  0
    1.5484  -11.7868    4.8621 H   0  0  0  0  0  0  0  0  0  0  0  0
    2.4667  -10.9016    3.6518 H   0  0  0  0  0  0  0  0  0  0  0  0
    0.7068  -10.8833    3.6157 H   0  0  0  0  0  0  0  0  0  0  0  0
    0.2942   -8.8745    6.8262 H   0  0  0  0  0  0  0  0  0  0  0  0
    0.2318  -10.6055    6.5784 H   0  0  0  0  0  0  0  0  0  0  0  0
   -0.5881   -9.5352    5.4570 H   0  0  0  0  0  0  0  0  0  0  0  0
    2.7152   -8.9344    6.9237 H   0  0  0  0  0  0  0  0  0  0  0  0
    2.7368  -11.2772    6.8269 H   0  0  0  0  0  0  0  0  0  0  0  0
    4.8607   -8.6168    5.3449 H   0  0  0  0  0  0  0  0  0  0  0  0
    1.3373   -8.6301    3.2333 H   0  0  0  0  0  0  0  0  0  0  0  0
   -0.1415   -7.2015    4.5106 H   0  0  0  0  0  0  0  0  0  0  0  0
    2.0758   -6.5733    6.0928 H   0  0  0  0  0  0  0  0  0  0  0  0
    0.9613   -6.2084    2.6729 H   0  0  0  0  0  0  0  0  0  0  0  0
    0.8018   -5.0042    3.9106 H   0  0  0  0  0  0  0  0  0  0  0  0
    4.4587   -4.6460    4.7392 H   0  0  0  0  0  0  0  0  0  0  0  0
    3.5981   -5.9012    5.5733 H   0  0  0  0  0  0  0  0  0  0  0  0
    2.8145   -4.3693    5.2931 H   0  0  0  0  0  0  0  0  0  0  0  0
    3.1713   -7.3883    2.2278 H   0  0  0  0  0  0  0  0  0  0  0  0
    5.5816   -6.4628    3.8586 H   0  0  0  0  0  0  0  0  0  0  0  0
    5.5344   -8.7180    3.3951 H   0  0  0  0  0  0  0  0  0  0  0  0
    5.3013   -4.0828    2.8794 H   0  0  0  0  0  0  0  0  0  0  0  0
    7.2946   -2.7071    0.3339 H   0  0  0  0  0  0  0  0  0  0  0  0
    7.0407   -4.3682   -0.1038 H   0  0  0  0  0  0  0  0  0  0  0  0
    7.2524   -3.8922    1.5700 H   0  0  0  0  0  0  0  0  0  0  0  0
    4.0077   -1.7141    1.3958 H   0  0  0  0  0  0  0  0  0  0  0  0
    5.6260   -1.6704    2.0237 H   0  0  0  0  0  0  0  0  0  0  0  0
    5.0504    0.0396    0.3185 H   0  0  0  0  0  0  0  0  0  0  0  0
    6.3813   -0.9077   -0.2330 H   0  0  0  0  0  0  0  0  0  0  0  0
    3.4517   -1.1180   -1.0504 H   0  0  0  0  0  0  0  0  0  0  0  0
    4.7347    0.4433   -2.0093 H   0  0  0  0  0  0  0  0  0  0  0  0
    3.6578   -4.0915   -3.1576 H   0  0  0  0  0  0  0  0  0  0  0  0
    3.9610   -2.4922   -3.7917 H   0  0  0  0  0  0  0  0  0  0  0  0
    2.6688   -2.7142   -2.6401 H   0  0  0  0  0  0  0  0  0  0  0  0
    6.2538   -4.1000   -2.4002 H   0  0  0  0  0  0  0  0  0  0  0  0
    6.8791   -2.5600   -1.7789 H   0  0  0  0  0  0  0  0  0  0  0  0
    6.1460   -2.6557   -3.3531 H   0  0  0  0  0  0  0  0  0  0  0  0
    4.6724   -4.7534   -0.8708 H   0  0  0  0  0  0  0  0  0  0  0  0
    2.4864   -2.8704    0.0360 H   0  0  0  0  0  0  0  0  0  0  0  0
    2.3340   -4.2184   -1.0324 H   0  0  0  0  0  0  0  0  0  0  0  0
    1.4651   -4.8159    1.1275 H   0  0  0  0  0  0  0  0  0  0  0  0
    2.7679   -5.8474    0.6434 H   0  0  0  0  0  0  0  0  0  0  0  0
    2.2635   -2.5227    2.1309 H   0  0  0  0  0  0  0  0  0  0  0  0
    3.4800   -2.6166    3.4124 H   0  0  0  0  0  0  0  0  0  0  0  0
    1.8864   -3.2662    3.6070 H   0  0  0  0  0  0  0  0  0  0  0  0
  1  2  1  0
  1 34  1  0
  1 35  1  0
  1 36  1  0
  2  8  1  0
  2  3  1  0
  2  4  1  0
  3 37  1  0
  3 38  1  0
  3 39  1  0
  4  5  1  0
  4  6  1  0
  4 40  1  1
  5 41  1  0
  6  7  2  0
  6 42  1  0
  7 14  1  0
  7  8  1  0
  8  9  1  0
  8 43  1  6
  9 10  1  0
  9 11  1  0
  9 44  1  1
 10 45  1  0
 11 12  1  0
 11 46  1  0
 11 47  1  0
 12 32  1  0
 12 13  1  1
 12 14  1  0
 13 48  1  0
 13 49  1  0
 13 50  1  0
 14 15  1  0
 14 51  1  6
 15 16  1  0
 15 17  1  0
 15 52  1  1
 16 53  1  0
 17 18  2  0
 17 19  1  0
 19 32  1  0
 19 20  1  0
 19 54  1  1
 20 29  1  0
 20 21  1  6
 20 22  1  0
 21 55  1  0
 21 56  1  0
 21 57  1  0
 22 23  1  0
 22 58  1  0
 22 59  1  0
 23 24  1  0
 23 60  1  0
 23 61  1  0
 24 25  1  0
 24 26  1  0
 24 62  1  1
 25 63  1  0
 26 27  1  0
 26 28  1  0
 26 29  1  0
 27 64  1  0
 27 65  1  0
 27 66  1  0
 28 67  1  0
 28 68  1  0
 28 69  1  0
 29 30  1  0
 29 70  1  6
 30 31  1  0
 30 71  1  0
 30 72  1  0
 31 32  1  0
 31 73  1  0
 31 74  1  0
 32 33  1  1
 33 75  1  0
 33 76  1  0
 33 77  1  0
M  END
>  <i_m_ct_stereo_status>  (205) 
1

>  <s_m_source_file>  (205) 
/var/tmp/pbs.5076255.sched01/tmp2672eyar/80wl2hclo4.sdf

>  <i_m_source_file_index>  (205) 
2

>  <i_lp_mmshare_version>  (205) 
48012

>  <i_f3d_flags>  (205) 
0

>  <s_epik_input>  (205) 
W09IXVtDQEBIXShbQ0hdPTEpQyhbQ0gzXSkoW0NIM10pW0NAQEhdKFtDQEBIXShbT0hdKVtDSDJdMilDMVtDQEBIXShbQ0BdMjNbQ0gzXSlbQ0BASF0oW09IXSlDKD1PKVtDQEhdNFtDQEBdNShbQ0gzXSlbQ0BIXShDKFtDSDNdKShbQ0gzXSlbQ0BIXShbT0hdKVtDSDJdW0NIMl01KVtDSDJdW0NIMl1bQ0BAXTM0W0NIM10=

>  <s_epik_cmdline>  (205) 
J2VwaWtfcHl0aG9uJywgJy1waHQnLCAnMi4wJywgJy1waCcsICc3LjAnLCAnLXRuJywgJzgnLCAnLW1hJywgJzIwMCcsICctaW1hZScsICc8aW5maWxlLm1hZT4nLCAnLW9tYWUnLCAnPG91dGZpbGUubWFlPic=

>  <r_lp_tautomer_probability>  (205) 
1

>  <r_epik_Ionization_Penalty>  (205) 
2.58409e-06

>  <r_epik_Ionization_Penalty_Charging>  (205) 
0

>  <r_epik_Ionization_Penalty_Neutral>  (205) 
2.58409e-06

>  <r_epik_State_Penalty>  (205) 
-0

>  <r_epik_Charging_Adjusted_Penalty>  (205) 
0

>  <i_epik_Tot_Q>  (205) 
0

>  <i_epik_Tot_abs_Q>  (205) 
0

>  <s_lp_Force_Field>  (205) 
OPLS3e

>  <r_lp_Energy>  (205) 
77.7516

>  <b_lp_Chiralities_Consistent>  (205) 
1

>  <s_lp_Variant>  (205) 
59:0-1

>  <s_i_glide_gridfile>  (205) 
pfpi4k_grid

>  <i_i_glide_lignum>  (205) 
2

>  <i_i_glide_rotatable_bonds>  (205) 
4

>  <r_i_docking_score>  (205) 
-3.62059

>  <r_i_glide_ligand_efficiency>  (205) 
-0.109715

>  <r_i_glide_ligand_efficiency_sa>  (205) 
-0.351914

>  <r_i_glide_ligand_efficiency_ln>  (205) 
-0.805201

>  <r_i_glide_gscore>  (205) 
-3.62059

>  <r_i_glide_lipo>  (205) 
-0.406378

>  <r_i_glide_hbond>  (205) 
-0.433322

>  <r_i_glide_metal>  (205) 
-0

>  <r_i_glide_rewards>  (205) 
-0.327

>  <r_i_glide_evdw>  (205) 
-30.5666

>  <r_i_glide_ecoul>  (205) 
-6.17042

>  <r_i_glide_erotb>  (205) 
0

>  <r_i_glide_esite>  (205) 
0

>  <r_i_glide_emodel>  (205) 
-45.595

>  <r_i_glide_energy>  (205) 
-36.737

>  <r_i_glide_einternal>  (205) 
0.884079

>  <r_i_glide_intrahb_reward>  (205) 
-0

>  <i_i_glide_confnum>  (205) 
2

>  <i_i_glide_posenum>  (205) 
12

>  <r_i_glide_eff_state_penalty>  (205) 
0

>  <ligand_id>  (205) 
59

>  <original_smiles>  (205) 
CC1(C)C(O)C=C2C1C(O)CC1(C)C2C(O)C(=O)C2C3(C)CCC(O)C(C)(C)C3CCC21C

>  <smiles>  (205) 
[H]OC1([H])C(=O)C2([H])C3(C([H])([H])[H])C([H])([H])C([H])([H])C([H])(O[H])C(C([H])([H])[H])(C([H])([H])[H])C3([H])C([H])([H])C([H])([H])C2(C([H])([H])[H])C2(C([H])([H])[H])C([H])([H])C([H])(O[H])C3([H])C(=C([H])C([H])(O[H])C3(C([H])([H])[H])C([H])([H])[H])C12[H]

$$$$
59:0:2
     RDKit          3D

 77 81  0  0  1  0  0  0  0  0999 V2000
    1.5767  -10.8850    4.2630 C   0  0  0  0  0  0  0  0  0  0  0  0
    1.5714   -9.6225    5.1664 C   0  0  0  0  0  0  0  0  0  0  0  0
    0.3130   -9.6810    6.0521 C   0  0  0  0  0  0  0  0  0  0  0  0
    2.8841   -9.5414    5.9977 C   0  0  1  0  0  0  0  0  0  0  0  0
    3.4233  -10.7945    6.3632 O   0  0  0  0  0  0  0  0  0  0  0  0
    3.8104   -8.7314    5.1164 C   0  0  0  0  0  0  0  0  0  0  0  0
    3.1321   -8.0797    4.1695 C   0  0  0  0  0  0  0  0  0  0  0  0
    1.6604   -8.3757    4.2263 C   0  0  2  0  0  0  0  0  0  0  0  0
    0.9303   -7.0667    4.5999 C   0  0  1  0  0  0  0  0  0  0  0  0
    1.1526   -6.6540    5.9339 O   0  0  0  0  0  0  0  0  0  0  0  0
    1.3481   -5.9248    3.6310 C   0  0  0  0  0  0  0  0  0  0  0  0
    2.9014   -5.6470    3.4665 C   0  0  1  0  0  0  0  0  0  0  0  0
    3.4699   -5.1322    4.8277 C   0  0  0  0  0  0  0  0  0  0  0  0
    3.5736   -7.0277    3.1510 C   0  0  1  0  0  0  0  0  0  0  0  0
    5.0903   -6.8822    2.9490 C   0  0  1  0  0  0  0  0  0  0  0  0
    5.6676   -8.1423    2.6458 O   0  0  0  0  0  0  0  0  0  0  0  0
    5.2991   -5.9087    1.7845 C   0  0  0  0  0  0  0  0  0  0  0  0
    5.7998   -6.2982    0.7325 O   0  0  0  0  0  0  0  0  0  0  0  0
    4.7730   -4.4557    1.9801 C   0  0  1  0  0  0  0  0  0  0  0  0
    5.2104   -3.4610    0.7969 C   0  0  2  0  0  0  0  0  0  0  0  0
    6.7582   -3.6165    0.6186 C   0  0  0  0  0  0  0  0  0  0  0  0
    5.0142   -1.9519    1.1435 C   0  0  0  0  0  0  0  0  0  0  0  0
    5.2982   -0.9726   -0.0108 C   0  0  0  0  0  0  0  0  0  0  0  0
    4.4809   -1.3168   -1.2657 C   0  0  1  0  0  0  0  0  0  0  0  0
    4.8511   -0.4416   -2.3127 O   0  0  0  0  0  0  0  0  0  0  0  0
    4.6463   -2.7861   -1.7290 C   0  0  0  0  0  0  0  0  0  0  0  0
    3.6533   -3.0386   -2.8941 C   0  0  0  0  0  0  0  0  0  0  0  0
    6.0453   -3.0337   -2.3452 C   0  0  0  0  0  0  0  0  0  0  0  0
    4.3784   -3.7687   -0.5152 C   0  0  2  0  0  0  0  0  0  0  0  0
    2.8664   -3.8716   -0.1677 C   0  0  0  0  0  0  0  0  0  0  0  0
    2.5244   -4.8501    0.9813 C   0  0  0  0  0  0  0  0  0  0  0  0
    3.2237   -4.5417    2.3348 C   0  0  1  0  0  0  0  0  0  0  0  0
    2.6843   -3.1847    2.8900 C   0  0  0  0  0  0  0  0  0  0  0  0
    1.5561  -11.8112    4.8415 H   0  0  0  0  0  0  0  0  0  0  0  0
    2.4694  -10.9221    3.6315 H   0  0  0  0  0  0  0  0  0  0  0  0
    0.7102  -10.9066    3.5998 H   0  0  0  0  0  0  0  0  0  0  0  0
    0.2942   -8.9191    6.8280 H   0  0  0  0  0  0  0  0  0  0  0  0
    0.2422  -10.6441    6.5583 H   0  0  0  0  0  0  0  0  0  0  0  0
   -0.5843   -9.5683    5.4499 H   0  0  0  0  0  0  0  0  0  0  0  0
    2.7289   -8.9605    6.9066 H   0  0  0  0  0  0  0  0  0  0  0  0
    2.7500  -11.3010    6.8150 H   0  0  0  0  0  0  0  0  0  0  0  0
    4.8656   -8.6371    5.3235 H   0  0  0  0  0  0  0  0  0  0  0  0
    1.3364   -8.6527    3.2195 H   0  0  0  0  0  0  0  0  0  0  0  0
   -0.1420   -7.2362    4.5035 H   0  0  0  0  0  0  0  0  0  0  0  0
    0.9876   -7.3924    6.5026 H   0  0  0  0  0  0  0  0  0  0  0  0
    0.9508   -6.2272    2.6669 H   0  0  0  0  0  0  0  0  0  0  0  0
    0.7949   -5.0294    3.9122 H   0  0  0  0  0  0  0  0  0  0  0  0
    4.4539   -4.6718    4.7347 H   0  0  0  0  0  0  0  0  0  0  0  0
    3.5791   -5.9261    5.5638 H   0  0  0  0  0  0  0  0  0  0  0  0
    2.8086   -4.3940    5.2877 H   0  0  0  0  0  0  0  0  0  0  0  0
    3.1634   -7.4036    2.2132 H   0  0  0  0  0  0  0  0  0  0  0  0
    5.5760   -6.4803    3.8409 H   0  0  0  0  0  0  0  0  0  0  0  0
    5.5186   -8.7361    3.3671 H   0  0  0  0  0  0  0  0  0  0  0  0
    5.2905   -4.0981    2.8691 H   0  0  0  0  0  0  0  0  0  0  0  0
    7.2760   -2.7114    0.3219 H   0  0  0  0  0  0  0  0  0  0  0  0
    7.0241   -4.3712   -0.1195 H   0  0  0  0  0  0  0  0  0  0  0  0
    7.2391   -3.8997    1.5548 H   0  0  0  0  0  0  0  0  0  0  0  0
    3.9898   -1.7264    1.3936 H   0  0  0  0  0  0  0  0  0  0  0  0
    5.6080   -1.6816    2.0163 H   0  0  0  0  0  0  0  0  0  0  0  0
    5.0264    0.0320    0.3168 H   0  0  0  0  0  0  0  0  0  0  0  0
    6.3586   -0.9107   -0.2390 H   0  0  0  0  0  0  0  0  0  0  0  0
    3.4286   -1.1231   -1.0528 H   0  0  0  0  0  0  0  0  0  0  0  0
    4.7184    0.4458   -2.0059 H   0  0  0  0  0  0  0  0  0  0  0  0
    3.6295   -4.0912   -3.1652 H   0  0  0  0  0  0  0  0  0  0  0  0
    3.9301   -2.4904   -3.7958 H   0  0  0  0  0  0  0  0  0  0  0  0
    2.6417   -2.7165   -2.6402 H   0  0  0  0  0  0  0  0  0  0  0  0
    6.2324   -4.1014   -2.4098 H   0  0  0  0  0  0  0  0  0  0  0  0
    6.8542   -2.5605   -1.7912 H   0  0  0  0  0  0  0  0  0  0  0  0
    6.1192   -2.6520   -3.3623 H   0  0  0  0  0  0  0  0  0  0  0  0
    4.6521   -4.7576   -0.8800 H   0  0  0  0  0  0  0  0  0  0  0  0
    2.4657   -2.8796    0.0361 H   0  0  0  0  0  0  0  0  0  0  0  0
    2.3133   -4.2246   -1.0347 H   0  0  0  0  0  0  0  0  0  0  0  0
    1.4501   -4.8332    1.1241 H   0  0  0  0  0  0  0  0  0  0  0  0
    2.7542   -5.8590    0.6345 H   0  0  0  0  0  0  0  0  0  0  0  0
    2.2479   -2.5392    2.1325 H   0  0  0  0  0  0  0  0  0  0  0  0
    3.4683   -2.6347    3.4098 H   0  0  0  0  0  0  0  0  0  0  0  0
    1.8768   -3.2872    3.6077 H   0  0  0  0  0  0  0  0  0  0  0  0
  1  2  1  0
  1 34  1  0
  1 35  1  0
  1 36  1  0
  2  8  1  0
  2  3  1  0
  2  4  1  0
  3 37  1  0
  3 38  1  0
  3 39  1  0
  4  5  1  0
  4  6  1  0
  4 40  1  1
  5 41  1  0
  6  7  2  0
  6 42  1  0
  7 14  1  0
  7  8  1  0
  8  9  1  0
  8 43  1  6
  9 10  1  0
  9 11  1  0
  9 44  1  1
 10 45  1  0
 11 12  1  0
 11 46  1  0
 11 47  1  0
 12 32  1  0
 12 13  1  1
 12 14  1  0
 13 48  1  0
 13 49  1  0
 13 50  1  0
 14 15  1  0
 14 51  1  6
 15 16  1  0
 15 17  1  0
 15 52  1  1
 16 53  1  0
 17 18  2  0
 17 19  1  0
 19 32  1  0
 19 20  1  0
 19 54  1  1
 20 29  1  0
 20 21  1  6
 20 22  1  0
 21 55  1  0
 21 56  1  0
 21 57  1  0
 22 23  1  0
 22 58  1  0
 22 59  1  0
 23 24  1  0
 23 60  1  0
 23 61  1  0
 24 25  1  0
 24 26  1  0
 24 62  1  1
 25 63  1  0
 26 27  1  0
 26 28  1  0
 26 29  1  0
 27 64  1  0
 27 65  1  0
 27 66  1  0
 28 67  1  0
 28 68  1  0
 28 69  1  0
 29 30  1  0
 29 70  1  6
 30 31  1  0
 30 71  1  0
 30 72  1  0
 31 32  1  0
 31 73  1  0
 31 74  1  0
 32 33  1  1
 33 75  1  0
 33 76  1  0
 33 77  1  0
M  END
>  <i_m_ct_stereo_status>  (206) 
1

>  <s_m_source_file>  (206) 
/var/tmp/pbs.5076255.sched01/tmp2672eyar/80wl2hclo4.sdf

>  <i_m_source_file_index>  (206) 
2

>  <i_lp_mmshare_version>  (206) 
48012

>  <i_f3d_flags>  (206) 
0

>  <s_epik_input>  (206) 
W09IXVtDQEBIXShbQ0hdPTEpQyhbQ0gzXSkoW0NIM10pW0NAQEhdKFtDQEBIXShbT0hdKVtDSDJdMilDMVtDQEBIXShbQ0BdMjNbQ0gzXSlbQ0BASF0oW09IXSlDKD1PKVtDQEhdNFtDQEBdNShbQ0gzXSlbQ0BIXShDKFtDSDNdKShbQ0gzXSlbQ0BIXShbT0hdKVtDSDJdW0NIMl01KVtDSDJdW0NIMl1bQ0BAXTM0W0NIM10=

>  <s_epik_cmdline>  (206) 
J2VwaWtfcHl0aG9uJywgJy1waHQnLCAnMi4wJywgJy1waCcsICc3LjAnLCAnLXRuJywgJzgnLCAnLW1hJywgJzIwMCcsICctaW1hZScsICc8aW5maWxlLm1hZT4nLCAnLW9tYWUnLCAnPG91dGZpbGUubWFlPic=

>  <r_lp_tautomer_probability>  (206) 
1

>  <r_epik_Ionization_Penalty>  (206) 
2.58409e-06

>  <r_epik_Ionization_Penalty_Charging>  (206) 
0

>  <r_epik_Ionization_Penalty_Neutral>  (206) 
2.58409e-06

>  <r_epik_State_Penalty>  (206) 
-0

>  <r_epik_Charging_Adjusted_Penalty>  (206) 
0

>  <i_epik_Tot_Q>  (206) 
0

>  <i_epik_Tot_abs_Q>  (206) 
0

>  <s_lp_Force_Field>  (206) 
OPLS3e

>  <r_lp_Energy>  (206) 
77.7516

>  <b_lp_Chiralities_Consistent>  (206) 
1

>  <s_lp_Variant>  (206) 
59:0-1

>  <s_i_glide_gridfile>  (206) 
pfpi4k_grid

>  <i_i_glide_lignum>  (206) 
2

>  <i_i_glide_rotatable_bonds>  (206) 
4

>  <r_i_docking_score>  (206) 
-3.60113

>  <r_i_glide_ligand_efficiency>  (206) 
-0.109125

>  <r_i_glide_ligand_efficiency_sa>  (206) 
-0.350022

>  <r_i_glide_ligand_efficiency_ln>  (206) 
-0.800872

>  <r_i_glide_gscore>  (206) 
-3.60113

>  <r_i_glide_lipo>  (206) 
-0.404147

>  <r_i_glide_hbond>  (206) 
-0.434663

>  <r_i_glide_metal>  (206) 
-0

>  <r_i_glide_rewards>  (206) 
-0.328258

>  <r_i_glide_evdw>  (206) 
-30.618

>  <r_i_glide_ecoul>  (206) 
-6.02106

>  <r_i_glide_erotb>  (206) 
0

>  <r_i_glide_esite>  (206) 
0

>  <r_i_glide_emodel>  (206) 
-45.2704

>  <r_i_glide_energy>  (206) 
-36.6391

>  <r_i_glide_einternal>  (206) 
1.25372

>  <r_i_glide_intrahb_reward>  (206) 
-0

>  <i_i_glide_confnum>  (206) 
2

>  <i_i_glide_posenum>  (206) 
2

>  <r_i_glide_eff_state_penalty>  (206) 
0

>  <ligand_id>  (206) 
59

>  <original_smiles>  (206) 
CC1(C)C(O)C=C2C1C(O)CC1(C)C2C(O)C(=O)C2C3(C)CCC(O)C(C)(C)C3CCC21C

>  <smiles>  (206) 
[H]OC1([H])C(=O)C2([H])C3(C([H])([H])[H])C([H])([H])C([H])([H])C([H])(O[H])C(C([H])([H])[H])(C([H])([H])[H])C3([H])C([H])([H])C([H])([H])C2(C([H])([H])[H])C2(C([H])([H])[H])C([H])([H])C([H])(O[H])C3([H])C(=C([H])C([H])(O[H])C3(C([H])([H])[H])C([H])([H])[H])C12[H]

$$$$
60:0:0
     RDKit          3D

 45 51  0  0  1  0  0  0  0  0999 V2000
    6.1625   -3.3610   -1.3356 O   0  0  0  0  0  0  0  0  0  0  0  0
    5.4715   -4.0589   -0.3908 C   0  0  0  0  0  0  0  0  0  0  0  0
    4.0591   -3.8952   -0.2737 C   0  0  0  0  0  0  0  0  0  0  0  0
    3.3186   -4.6301    0.6831 C   0  0  0  0  0  0  0  0  0  0  0  0
    3.9868   -5.5389    1.5254 C   0  0  0  0  0  0  0  0  0  0  0  0
    5.3713   -5.6222    1.3605 C   0  0  0  0  0  0  0  0  0  0  0  0
    6.1571   -4.9387    0.4544 C   0  0  0  0  0  0  0  0  0  0  0  0
    7.4868   -5.2799    0.4910 O   0  0  0  0  0  0  0  0  0  0  0  0
    7.6200   -6.3799    1.4093 C   0  0  1  0  0  0  0  0  0  0  0  0
    8.5535   -6.1373    2.5914 C   0  0  0  0  0  0  0  0  0  0  0  0
    7.8584   -6.6381    3.7352 O   0  0  0  0  0  0  0  0  0  0  0  0
    6.4499   -6.5073    3.5596 C   0  0  2  0  0  0  0  0  0  0  0  0
    5.7089   -7.6393    2.8648 C   0  0  1  0  0  0  0  0  0  0  0  0
    6.2051   -9.0451    2.6226 C   0  0  0  0  0  0  0  0  0  0  0  0
    5.0554   -9.7670    1.9021 C   0  0  0  0  0  0  0  0  0  0  0  0
    3.9525   -8.7892    1.8025 N   0  0  1  0  0  0  0  0  0  0  0  0
    2.6054   -9.4121    1.7343 C   0  0  0  0  0  0  0  0  0  0  0  0
    2.1330   -9.9960    3.0616 C   0  0  0  0  0  0  0  0  0  0  0  0
    2.2640  -11.4787    3.3102 C   0  0  0  0  0  0  0  0  0  0  0  0
    0.8988  -10.8564    3.1666 C   0  0  0  0  0  0  0  0  0  0  0  0
    4.2021   -7.7733    2.8609 C   0  0  2  0  0  0  0  0  0  0  0  0
    3.4400   -6.4386    2.6315 C   0  0  0  0  0  0  0  0  0  0  0  0
    6.2760   -6.5173    2.0653 C   0  0  1  0  0  0  0  0  0  0  0  0
    5.5888   -2.9100   -1.9308 H   0  0  0  0  0  0  0  0  0  0  0  0
    3.5335   -3.2154   -0.9290 H   0  0  0  0  0  0  0  0  0  0  0  0
    2.2461   -4.4931    0.7668 H   0  0  0  0  0  0  0  0  0  0  0  0
    7.8555   -7.3037    0.8815 H   0  0  0  0  0  0  0  0  0  0  0  0
    9.5101   -6.6359    2.4773 H   0  0  0  0  0  0  0  0  0  0  0  0
    8.7316   -5.0643    2.6865 H   0  0  0  0  0  0  0  0  0  0  0  0
    5.9823   -5.6616    4.0561 H   0  0  0  0  0  0  0  0  0  0  0  0
    7.1055   -9.0316    2.0049 H   0  0  0  0  0  0  0  0  0  0  0  0
    6.4350   -9.5408    3.5747 H   0  0  0  0  0  0  0  0  0  0  0  0
    5.3509  -10.1407    0.9210 H   0  0  0  0  0  0  0  0  0  0  0  0
    4.7538  -10.6215    2.5020 H   0  0  0  0  0  0  0  0  0  0  0  0
    1.8763   -8.6879    1.3881 H   0  0  0  0  0  0  0  0  0  0  0  0
    2.6282  -10.1864    0.9716 H   0  0  0  0  0  0  0  0  0  0  0  0
    2.2138   -9.3283    3.9240 H   0  0  0  0  0  0  0  0  0  0  0  0
    2.6291  -12.1033    2.4937 H   0  0  0  0  0  0  0  0  0  0  0  0
    2.6029  -11.7688    4.3041 H   0  0  0  0  0  0  0  0  0  0  0  0
    0.3111  -10.7274    4.0777 H   0  0  0  0  0  0  0  0  0  0  0  0
    0.3181  -11.0345    2.2604 H   0  0  0  0  0  0  0  0  0  0  0  0
    3.9524   -8.1513    3.8541 H   0  0  0  0  0  0  0  0  0  0  0  0
    3.4784   -5.8649    3.5584 H   0  0  0  0  0  0  0  0  0  0  0  0
    2.3815   -6.6254    2.4534 H   0  0  0  0  0  0  0  0  0  0  0  0
    4.0984   -8.3208    0.9234 H   0  0  0  0  0  0  0  0  0  0  0  0
  1  2  1  0
  1 24  1  0
  2  7  2  0
  2  3  1  0
  3  4  2  0
  3 25  1  0
  4  5  1  0
  4 26  1  0
  5 22  1  0
  5  6  2  0
 23  6  1  1
  6  7  1  0
  7  8  1  0
  8  9  1  0
  9 23  1  0
  9 10  1  0
  9 27  1  6
 10 11  1  0
 10 28  1  0
 10 29  1  0
 11 12  1  0
 12 23  1  0
 12 13  1  0
 12 30  1  1
 13 21  1  0
 13 14  1  6
 13 23  1  0
 14 15  1  0
 14 31  1  0
 14 32  1  0
 15 16  1  0
 15 33  1  0
 15 34  1  0
 16 17  1  0
 16 21  1  0
 16 45  1  6
 17 18  1  0
 17 35  1  0
 17 36  1  0
 18 20  1  0
 18 19  1  0
 18 37  1  0
 19 20  1  0
 19 38  1  0
 19 39  1  0
 20 40  1  0
 20 41  1  0
 21 22  1  0
 21 42  1  1
 22 43  1  0
 22 44  1  0
M  CHG  1  16   1
M  END
>  <i_m_ct_stereo_status>  (207) 
1

>  <s_m_source_file>  (207) 
/var/tmp/pbs.5076255.sched01/tmp2672eyar/80wl2hclo4.sdf

>  <i_m_source_file_index>  (207) 
3

>  <i_lp_mmshare_version>  (207) 
48012

>  <i_f3d_flags>  (207) 
0

>  <s_epik_input>  (207) 
W0NASF0xMk9bQ0gyXVtDQEBIXTNPYzRjKFtPSF0pW2NIXVtjSF1jKGM0W0NAXTIzW0NAXTE1NilbQ0gyXVtDQEhdNk4oW0NIMl1bQ0gyXTUpW0NIMl1bQ0hdN1tDSDJdW0NIMl03

>  <s_epik_cmdline>  (207) 
J2VwaWtfcHl0aG9uJywgJy1waHQnLCAnMi4wJywgJy1waCcsICc3LjAnLCAnLXRuJywgJzgnLCAnLW1hJywgJzIwMCcsICctaW1hZScsICc8aW5maWxlLm1hZT4nLCAnLW9tYWUnLCAnPG91dGZpbGUubWFlPic=

>  <r_lp_tautomer_probability>  (207) 
1

>  <r_epik_Ionization_Penalty>  (207) 
0.0084541

>  <r_epik_Ionization_Penalty_Charging>  (207) 
0.00263125

>  <r_epik_Ionization_Penalty_Neutral>  (207) 
0.00582284

>  <r_epik_State_Penalty>  (207) 
-0

>  <r_epik_Charging_Adjusted_Penalty>  (207) 
0.00263125

>  <i_epik_Tot_Q>  (207) 
1

>  <i_epik_Tot_abs_Q>  (207) 
1

>  <s_lp_Force_Field>  (207) 
OPLS3e

>  <r_lp_Energy>  (207) 
95.1374

>  <b_lp_Chiralities_Consistent>  (207) 
1

>  <s_lp_Variant>  (207) 
60:0-1

>  <s_i_glide_gridfile>  (207) 
pfpi4k_grid

>  <i_i_glide_lignum>  (207) 
3

>  <i_i_glide_rotatable_bonds>  (207) 
3

>  <r_i_docking_score>  (207) 
-3.10809

>  <r_i_glide_ligand_efficiency>  (207) 
-0.135134

>  <r_i_glide_ligand_efficiency_sa>  (207) 
-0.384304

>  <r_i_glide_ligand_efficiency_ln>  (207) 
-0.751565

>  <r_i_glide_gscore>  (207) 
-3.10809

>  <r_i_glide_lipo>  (207) 
-0.541016

>  <r_i_glide_hbond>  (207) 
0

>  <r_i_glide_metal>  (207) 
-0

>  <r_i_glide_rewards>  (207) 
-1.27921

>  <r_i_glide_evdw>  (207) 
-23.5477

>  <r_i_glide_ecoul>  (207) 
-3.06324

>  <r_i_glide_erotb>  (207) 
0.380372

>  <r_i_glide_esite>  (207) 
-0.0313696

>  <r_i_glide_emodel>  (207) 
-30.8954

>  <r_i_glide_energy>  (207) 
-26.6109

>  <r_i_glide_einternal>  (207) 
3.34754

>  <r_i_glide_intrahb_reward>  (207) 
-0

>  <i_i_glide_confnum>  (207) 
5

>  <i_i_glide_posenum>  (207) 
30

>  <r_i_glide_eff_state_penalty>  (207) 
0

>  <ligand_id>  (207) 
60

>  <original_smiles>  (207) 
Oc1ccc2c3c1OC1COC4C5(CCN(CC6CC6)C5C2)C314

>  <smiles>  (207) 
[H]Oc1c([H])c([H])c2c3c1OC1([H])C([H])([H])OC4([H])C31C41C([H])([H])C([H])([H])[N+]([H])(C([H])([H])C3([H])C([H])([H])C3([H])[H])C1([H])C2([H])[H]

$$$$
60:0:1
     RDKit          3D

 45 51  0  0  1  0  0  0  0  0999 V2000
    5.7375   -3.0160   -1.2418 O   0  0  0  0  0  0  0  0  0  0  0  0
    5.1555   -3.8067   -0.2943 C   0  0  0  0  0  0  0  0  0  0  0  0
    3.7557   -3.7397   -0.0690 C   0  0  0  0  0  0  0  0  0  0  0  0
    3.1278   -4.5709    0.8964 C   0  0  0  0  0  0  0  0  0  0  0  0
    3.9064   -5.4818    1.6327 C   0  0  0  0  0  0  0  0  0  0  0  0
    5.2792   -5.4712    1.3721 C   0  0  0  0  0  0  0  0  0  0  0  0
    5.9545   -4.6914    0.4561 C   0  0  0  0  0  0  0  0  0  0  0  0
    7.2990   -4.9353    0.4070 O   0  0  0  0  0  0  0  0  0  0  0  0
    7.5598   -6.0802    1.2320 C   0  0  1  0  0  0  0  0  0  0  0  0
    8.5701   -5.8485    2.3466 C   0  0  0  0  0  0  0  0  0  0  0  0
    7.9889   -6.4498    3.5051 O   0  0  0  0  0  0  0  0  0  0  0  0
    6.5617   -6.3956    3.4415 C   0  0  2  0  0  0  0  0  0  0  0  0
    5.8356   -7.5391    2.7433 C   0  0  1  0  0  0  0  0  0  0  0  0
    6.4039   -8.8899    2.3750 C   0  0  0  0  0  0  0  0  0  0  0  0
    5.2592   -9.6386    1.6806 C   0  0  0  0  0  0  0  0  0  0  0  0
    4.0871   -8.7330    1.7136 N   0  0  1  0  0  0  0  0  0  0  0  0
    2.7804   -9.4376    1.7033 C   0  0  0  0  0  0  0  0  0  0  0  0
    2.4618  -10.1156    3.0267 C   0  0  0  0  0  0  0  0  0  0  0  0
    1.1246  -10.7693    3.2794 C   0  0  0  0  0  0  0  0  0  0  0  0
    1.4753   -9.4811    3.9787 C   0  0  0  0  0  0  0  0  0  0  0  0
    4.3324   -7.7729    2.8198 C   0  0  2  0  0  0  0  0  0  0  0  0
    3.4893   -6.4705    2.7226 C   0  0  0  0  0  0  0  0  0  0  0  0
    6.2804   -6.3406    1.9653 C   0  0  1  0  0  0  0  0  0  0  0  0
    5.0961   -2.5301   -1.7316 H   0  0  0  0  0  0  0  0  0  0  0  0
    3.1427   -3.0586   -0.6401 H   0  0  0  0  0  0  0  0  0  0  0  0
    2.0626   -4.5031    1.0674 H   0  0  0  0  0  0  0  0  0  0  0  0
    7.8142   -6.9475    0.6239 H   0  0  0  0  0  0  0  0  0  0  0  0
    9.5464   -6.2603    2.1180 H   0  0  0  0  0  0  0  0  0  0  0  0
    8.6878   -4.7738    2.4863 H   0  0  0  0  0  0  0  0  0  0  0  0
    6.0826   -5.6021    4.0130 H   0  0  0  0  0  0  0  0  0  0  0  0
    7.2522   -8.7682    1.7015 H   0  0  0  0  0  0  0  0  0  0  0  0
    6.7356   -9.4243    3.2717 H   0  0  0  0  0  0  0  0  0  0  0  0
    5.5030   -9.9287    0.6560 H   0  0  0  0  0  0  0  0  0  0  0  0
    5.0748  -10.5588    2.2306 H   0  0  0  0  0  0  0  0  0  0  0  0
    1.9803   -8.7426    1.4434 H   0  0  0  0  0  0  0  0  0  0  0  0
    2.7909  -10.1833    0.9074 H   0  0  0  0  0  0  0  0  0  0  0  0
    3.3019  -10.6410    3.4883 H   0  0  0  0  0  0  0  0  0  0  0  0
    0.3829  -10.7452    2.4829 H   0  0  0  0  0  0  0  0  0  0  0  0
    1.1450  -11.6807    3.8774 H   0  0  0  0  0  0  0  0  0  0  0  0
    1.7418   -9.5272    5.0331 H   0  0  0  0  0  0  0  0  0  0  0  0
    0.9749   -8.5691    3.6553 H   0  0  0  0  0  0  0  0  0  0  0  0
    4.1308   -8.2511    3.7792 H   0  0  0  0  0  0  0  0  0  0  0  0
    3.5661   -5.9487    3.6783 H   0  0  0  0  0  0  0  0  0  0  0  0
    2.4324   -6.7066    2.6090 H   0  0  0  0  0  0  0  0  0  0  0  0
    4.1401   -8.1899    0.8644 H   0  0  0  0  0  0  0  0  0  0  0  0
  1  2  1  0
  1 24  1  0
  2  7  2  0
  2  3  1  0
  3  4  2  0
  3 25  1  0
  4  5  1  0
  4 26  1  0
  5 22  1  0
  5  6  2  0
 23  6  1  1
  6  7  1  0
  7  8  1  0
  8  9  1  0
  9 23  1  0
  9 10  1  0
  9 27  1  6
 10 11  1  0
 10 28  1  0
 10 29  1  0
 11 12  1  0
 12 23  1  0
 12 13  1  0
 12 30  1  1
 13 21  1  0
 13 14  1  6
 13 23  1  0
 14 15  1  0
 14 31  1  0
 14 32  1  0
 15 16  1  0
 15 33  1  0
 15 34  1  0
 16 17  1  0
 16 21  1  0
 16 45  1  6
 17 18  1  0
 17 35  1  0
 17 36  1  0
 18 20  1  0
 18 19  1  0
 18 37  1  0
 19 20  1  0
 19 38  1  0
 19 39  1  0
 20 40  1  0
 20 41  1  0
 21 22  1  0
 21 42  1  1
 22 43  1  0
 22 44  1  0
M  CHG  1  16   1
M  END
>  <i_m_ct_stereo_status>  (208) 
1

>  <s_m_source_file>  (208) 
/var/tmp/pbs.5076255.sched01/tmp2672eyar/80wl2hclo4.sdf

>  <i_m_source_file_index>  (208) 
3

>  <i_lp_mmshare_version>  (208) 
48012

>  <i_f3d_flags>  (208) 
0

>  <s_epik_input>  (208) 
W0NASF0xMk9bQ0gyXVtDQEBIXTNPYzRjKFtPSF0pW2NIXVtjSF1jKGM0W0NAXTIzW0NAXTE1NilbQ0gyXVtDQEhdNk4oW0NIMl1bQ0gyXTUpW0NIMl1bQ0hdN1tDSDJdW0NIMl03

>  <s_epik_cmdline>  (208) 
J2VwaWtfcHl0aG9uJywgJy1waHQnLCAnMi4wJywgJy1waCcsICc3LjAnLCAnLXRuJywgJzgnLCAnLW1hJywgJzIwMCcsICctaW1hZScsICc8aW5maWxlLm1hZT4nLCAnLW9tYWUnLCAnPG91dGZpbGUubWFlPic=

>  <r_lp_tautomer_probability>  (208) 
1

>  <r_epik_Ionization_Penalty>  (208) 
0.0084541

>  <r_epik_Ionization_Penalty_Charging>  (208) 
0.00263125

>  <r_epik_Ionization_Penalty_Neutral>  (208) 
0.00582284

>  <r_epik_State_Penalty>  (208) 
-0

>  <r_epik_Charging_Adjusted_Penalty>  (208) 
0.00263125

>  <i_epik_Tot_Q>  (208) 
1

>  <i_epik_Tot_abs_Q>  (208) 
1

>  <s_lp_Force_Field>  (208) 
OPLS3e

>  <r_lp_Energy>  (208) 
95.1374

>  <b_lp_Chiralities_Consistent>  (208) 
1

>  <s_lp_Variant>  (208) 
60:0-1

>  <s_i_glide_gridfile>  (208) 
pfpi4k_grid

>  <i_i_glide_lignum>  (208) 
3

>  <i_i_glide_rotatable_bonds>  (208) 
3

>  <r_i_docking_score>  (208) 
-3.01939

>  <r_i_glide_ligand_efficiency>  (208) 
-0.131278

>  <r_i_glide_ligand_efficiency_sa>  (208) 
-0.373337

>  <r_i_glide_ligand_efficiency_ln>  (208) 
-0.730117

>  <r_i_glide_gscore>  (208) 
-3.01939

>  <r_i_glide_lipo>  (208) 
-0.54055

>  <r_i_glide_hbond>  (208) 
0

>  <r_i_glide_metal>  (208) 
-0

>  <r_i_glide_rewards>  (208) 
-1.27921

>  <r_i_glide_evdw>  (208) 
-23.3881

>  <r_i_glide_ecoul>  (208) 
-2.52645

>  <r_i_glide_erotb>  (208) 
0.380372

>  <r_i_glide_esite>  (208) 
-0.0316359

>  <r_i_glide_emodel>  (208) 
-30.2526

>  <r_i_glide_energy>  (208) 
-25.9145

>  <r_i_glide_einternal>  (208) 
3.07191

>  <r_i_glide_intrahb_reward>  (208) 
-0

>  <i_i_glide_confnum>  (208) 
2

>  <i_i_glide_posenum>  (208) 
17

>  <r_i_glide_eff_state_penalty>  (208) 
0

>  <ligand_id>  (208) 
60

>  <original_smiles>  (208) 
Oc1ccc2c3c1OC1COC4C5(CCN(CC6CC6)C5C2)C314

>  <smiles>  (208) 
[H]Oc1c([H])c([H])c2c3c1OC1([H])C([H])([H])OC4([H])C31C41C([H])([H])C([H])([H])[N+]([H])(C([H])([H])C3([H])C([H])([H])C3([H])[H])C1([H])C2([H])[H]

$$$$
60:0:2
     RDKit          3D

 45 51  0  0  1  0  0  0  0  0999 V2000
    6.3486   -3.3816   -1.2447 O   0  0  0  0  0  0  0  0  0  0  0  0
    5.6141   -4.0744   -0.3291 C   0  0  0  0  0  0  0  0  0  0  0  0
    4.2035   -3.9003   -0.2531 C   0  0  0  0  0  0  0  0  0  0  0  0
    3.4273   -4.6304    0.6864 C   0  0  0  0  0  0  0  0  0  0  0  0
    4.0672   -5.5345    1.5510 C   0  0  0  0  0  0  0  0  0  0  0  0
    5.4567   -5.6301    1.4264 C   0  0  0  0  0  0  0  0  0  0  0  0
    6.2676   -4.9641    0.5313 C   0  0  0  0  0  0  0  0  0  0  0  0
    7.5936   -5.3125    0.6144 O   0  0  0  0  0  0  0  0  0  0  0  0
    7.6966   -6.3997    1.5541 C   0  0  1  0  0  0  0  0  0  0  0  0
    8.5952   -6.1545    2.7620 C   0  0  0  0  0  0  0  0  0  0  0  0
    7.8607   -6.6425    3.8885 O   0  0  0  0  0  0  0  0  0  0  0  0
    6.4571   -6.5051    3.6692 C   0  0  2  0  0  0  0  0  0  0  0  0
    5.7308   -7.6380    2.9556 C   0  0  1  0  0  0  0  0  0  0  0  0
    6.2256   -9.0479    2.7386 C   0  0  0  0  0  0  0  0  0  0  0  0
    5.0952   -9.7689    1.9856 C   0  0  0  0  0  0  0  0  0  0  0  0
    4.0008   -8.7868    1.8424 N   0  0  1  0  0  0  0  0  0  0  0  0
    2.6509   -9.4028    1.7375 C   0  0  0  0  0  0  0  0  0  0  0  0
    2.1368   -9.9748    3.0536 C   0  0  0  0  0  0  0  0  0  0  0  0
    2.2309  -11.4592    3.3150 C   0  0  0  0  0  0  0  0  0  0  0  0
    0.8820  -10.8112    3.1259 C   0  0  0  0  0  0  0  0  0  0  0  0
    4.2228   -7.7632    2.9032 C   0  0  2  0  0  0  0  0  0  0  0  0
    3.4771   -6.4261    2.6439 C   0  0  0  0  0  0  0  0  0  0  0  0
    6.3329   -6.5219    2.1671 C   0  0  1  0  0  0  0  0  0  0  0  0
    7.2492   -3.6678   -1.2234 H   0  0  0  0  0  0  0  0  0  0  0  0
    3.7128   -3.2208   -0.9323 H   0  0  0  0  0  0  0  0  0  0  0  0
    2.3538   -4.4867    0.7298 H   0  0  0  0  0  0  0  0  0  0  0  0
    7.9437   -7.3284    1.0446 H   0  0  0  0  0  0  0  0  0  0  0  0
    9.5542   -6.6565    2.6819 H   0  0  0  0  0  0  0  0  0  0  0  0
    8.7753   -5.0842    2.8630 H   0  0  0  0  0  0  0  0  0  0  0  0
    5.9784   -5.6531    4.1447 H   0  0  0  0  0  0  0  0  0  0  0  0
    7.1460   -9.0434    2.1520 H   0  0  0  0  0  0  0  0  0  0  0  0
    6.4244   -9.5397    3.6995 H   0  0  0  0  0  0  0  0  0  0  0  0
    5.4190  -10.1547    1.0179 H   0  0  0  0  0  0  0  0  0  0  0  0
    4.7682  -10.6168    2.5815 H   0  0  0  0  0  0  0  0  0  0  0  0
    1.9393   -8.6757    1.3590 H   0  0  0  0  0  0  0  0  0  0  0  0
    2.6886  -10.1839    0.9822 H   0  0  0  0  0  0  0  0  0  0  0  0
    2.2010   -9.3014    3.9129 H   0  0  0  0  0  0  0  0  0  0  0  0
    2.6174  -12.0915    2.5123 H   0  0  0  0  0  0  0  0  0  0  0  0
    2.5394  -11.7432    4.3212 H   0  0  0  0  0  0  0  0  0  0  0  0
    0.2725  -10.6650    4.0173 H   0  0  0  0  0  0  0  0  0  0  0  0
    0.3290  -10.9832    2.2030 H   0  0  0  0  0  0  0  0  0  0  0  0
    3.9385   -8.1366    3.8897 H   0  0  0  0  0  0  0  0  0  0  0  0
    3.4855   -5.8493    3.5696 H   0  0  0  0  0  0  0  0  0  0  0  0
    2.4224   -6.6067    2.4336 H   0  0  0  0  0  0  0  0  0  0  0  0
    4.1778   -8.3247    0.9654 H   0  0  0  0  0  0  0  0  0  0  0  0
  1  2  1  0
  1 24  1  0
  2  7  2  0
  2  3  1  0
  3  4  2  0
  3 25  1  0
  4  5  1  0
  4 26  1  0
  5 22  1  0
  5  6  2  0
 23  6  1  6
  6  7  1  0
  7  8  1  0
  8  9  1  0
  9 23  1  0
  9 10  1  0
  9 27  1  6
 10 11  1  0
 10 28  1  0
 10 29  1  0
 11 12  1  0
 12 23  1  0
 12 13  1  0
 12 30  1  1
 13 21  1  0
 13 14  1  6
 13 23  1  0
 14 15  1  0
 14 31  1  0
 14 32  1  0
 15 16  1  0
 15 33  1  0
 15 34  1  0
 16 17  1  0
 16 21  1  0
 16 45  1  6
 17 18  1  0
 17 35  1  0
 17 36  1  0
 18 20  1  0
 18 19  1  0
 18 37  1  0
 19 20  1  0
 19 38  1  0
 19 39  1  0
 20 40  1  0
 20 41  1  0
 21 22  1  0
 21 42  1  1
 22 43  1  0
 22 44  1  0
M  CHG  1  16   1
M  END
>  <i_m_ct_stereo_status>  (209) 
1

>  <s_m_source_file>  (209) 
/var/tmp/pbs.5076255.sched01/tmp2672eyar/80wl2hclo4.sdf

>  <i_m_source_file_index>  (209) 
3

>  <i_lp_mmshare_version>  (209) 
48012

>  <i_f3d_flags>  (209) 
0

>  <s_epik_input>  (209) 
W0NASF0xMk9bQ0gyXVtDQEBIXTNPYzRjKFtPSF0pW2NIXVtjSF1jKGM0W0NAXTIzW0NAXTE1NilbQ0gyXVtDQEhdNk4oW0NIMl1bQ0gyXTUpW0NIMl1bQ0hdN1tDSDJdW0NIMl03

>  <s_epik_cmdline>  (209) 
J2VwaWtfcHl0aG9uJywgJy1waHQnLCAnMi4wJywgJy1waCcsICc3LjAnLCAnLXRuJywgJzgnLCAnLW1hJywgJzIwMCcsICctaW1hZScsICc8aW5maWxlLm1hZT4nLCAnLW9tYWUnLCAnPG91dGZpbGUubWFlPic=

>  <r_lp_tautomer_probability>  (209) 
1

>  <r_epik_Ionization_Penalty>  (209) 
0.0084541

>  <r_epik_Ionization_Penalty_Charging>  (209) 
0.00263125

>  <r_epik_Ionization_Penalty_Neutral>  (209) 
0.00582284

>  <r_epik_State_Penalty>  (209) 
-0

>  <r_epik_Charging_Adjusted_Penalty>  (209) 
0.00263125

>  <i_epik_Tot_Q>  (209) 
1

>  <i_epik_Tot_abs_Q>  (209) 
1

>  <s_lp_Force_Field>  (209) 
OPLS3e

>  <r_lp_Energy>  (209) 
95.1374

>  <b_lp_Chiralities_Consistent>  (209) 
1

>  <s_lp_Variant>  (209) 
60:0-1

>  <s_i_glide_gridfile>  (209) 
pfpi4k_grid

>  <i_i_glide_lignum>  (209) 
3

>  <i_i_glide_rotatable_bonds>  (209) 
3

>  <r_i_docking_score>  (209) 
-3.0158

>  <r_i_glide_ligand_efficiency>  (209) 
-0.131122

>  <r_i_glide_ligand_efficiency_sa>  (209) 
-0.372893

>  <r_i_glide_ligand_efficiency_ln>  (209) 
-0.729247

>  <r_i_glide_gscore>  (209) 
-3.0158

>  <r_i_glide_lipo>  (209) 
-0.532295

>  <r_i_glide_hbond>  (209) 
0

>  <r_i_glide_metal>  (209) 
-0

>  <r_i_glide_rewards>  (209) 
-1.27921

>  <r_i_glide_evdw>  (209) 
-23.47

>  <r_i_glide_ecoul>  (209) 
-2.53827

>  <r_i_glide_erotb>  (209) 
0.380372

>  <r_i_glide_esite>  (209) 
-0.0304252

>  <r_i_glide_emodel>  (209) 
-30.1333

>  <r_i_glide_energy>  (209) 
-26.0083

>  <r_i_glide_einternal>  (209) 
3.31329

>  <r_i_glide_intrahb_reward>  (209) 
-0

>  <i_i_glide_confnum>  (209) 
5

>  <i_i_glide_posenum>  (209) 
1

>  <r_i_glide_eff_state_penalty>  (209) 
0

>  <ligand_id>  (209) 
60

>  <original_smiles>  (209) 
Oc1ccc2c3c1OC1COC4C5(CCN(CC6CC6)C5C2)C314

>  <smiles>  (209) 
[H]Oc1c([H])c([H])c2c3c1OC1([H])C([H])([H])OC4([H])C31C41C([H])([H])C([H])([H])[N+]([H])(C([H])([H])C3([H])C([H])([H])C3([H])[H])C1([H])C2([H])[H]

$$$$
61:0:0
     RDKit          3D

 91 96  0  0  1  0  0  0  0  0999 V2000
   -0.1493    2.2785    2.8541 C   0  0  0  0  0  0  0  0  0  0  0  0
   -0.4495    3.0934    4.1280 C   0  0  0  0  0  0  0  0  0  0  0  0
   -0.6950    4.5668    3.7113 C   0  0  0  0  0  0  0  0  0  0  0  0
   -1.7731    2.5841    4.7580 C   0  0  1  0  0  0  0  0  0  0  0  0
   -2.8484    2.5869    3.8365 O   0  0  0  0  0  0  0  0  0  0  0  0
   -1.6119    1.2003    5.3933 C   0  0  0  0  0  0  0  0  0  0  0  0
   -0.6142    1.3042    6.5430 C   0  0  0  0  0  0  0  0  0  0  0  0
    0.8111    1.8030    6.1551 C   0  0  2  0  0  0  0  0  0  0  0  0
    1.3990    2.3052    7.5113 C   0  0  0  0  0  0  0  0  0  0  0  0
    0.7107    3.0526    5.2076 C   0  0  1  0  0  0  0  0  0  0  0  0
    2.1260    3.4703    4.7227 C   0  0  0  0  0  0  0  0  0  0  0  0
    3.0055    2.3492    4.1212 C   0  0  0  0  0  0  0  0  0  0  0  0
    3.1066    1.0117    4.9398 C   0  0  1  0  0  0  0  0  0  0  0  0
    4.0615    1.3733    6.1430 C   0  0  0  0  0  0  0  0  0  0  0  0
    1.6792    0.6429    5.4972 C   0  0  1  0  0  0  0  0  0  0  0  0
    1.7320   -0.6532    6.3550 C   0  0  0  0  0  0  0  0  0  0  0  0
    3.0013   -1.5112    6.1879 C   0  0  1  0  0  0  0  0  0  0  0  0
    2.7644   -2.7049    6.8907 O   0  0  0  0  0  0  0  0  0  0  0  0
    3.4104   -1.6395    4.7118 C   0  0  0  0  0  0  0  0  0  0  0  0
    3.4827   -2.8235    4.0071 C   0  0  0  0  0  0  0  0  0  0  0  0
    3.1882   -4.2153    4.5731 C   0  0  0  0  0  0  0  0  0  0  0  0
    3.5400   -5.3798    3.6282 C   0  0  0  0  0  0  0  0  0  0  0  0
    4.9328   -5.2144    2.9451 C   0  0  1  0  0  0  0  0  0  0  0  0
    5.9531   -5.0568    4.1140 C   0  0  0  0  0  0  0  0  0  0  0  0
    5.3192   -6.5407    2.1454 C   0  0  0  0  0  0  0  0  0  0  0  0
    6.7684   -6.5729    1.5856 C   0  0  0  0  0  0  0  0  0  0  0  0
    5.1652   -7.8407    3.0014 C   0  0  0  0  0  0  0  0  0  0  0  0
    4.4356   -6.6619    0.9018 C   0  0  0  0  0  0  0  0  0  0  0  0
    3.9781   -7.7542    0.5871 O   0  0  0  0  0  0  0  0  0  0  0  0
    4.2804   -5.4618    0.0851 C   0  0  0  0  0  0  0  0  0  0  0  0
    4.4882   -4.2369    0.5813 C   0  0  0  0  0  0  0  0  0  0  0  0
    4.8311   -3.8961    2.0175 C   0  0  2  0  0  0  0  0  0  0  0  0
    6.1738   -3.1529    1.9282 C   0  0  0  0  0  0  0  0  0  0  0  0
    3.7041   -2.8899    2.4889 C   0  0  2  0  0  0  0  0  0  0  0  0
    3.6420   -1.5194    1.7575 C   0  0  0  0  0  0  0  0  0  0  0  0
    3.0490   -0.4195    2.6405 C   0  0  0  0  0  0  0  0  0  0  0  0
    2.0700    0.1830    2.2382 O   0  0  0  0  0  0  0  0  0  0  0  0
    3.6852   -0.2460    4.0597 C   0  0  1  0  0  0  0  0  0  0  0  0
    5.2247   -0.0904    3.8750 C   0  0  0  0  0  0  0  0  0  0  0  0
   -0.9492    2.3861    2.1185 H   0  0  0  0  0  0  0  0  0  0  0  0
   -0.0435    1.2140    3.0341 H   0  0  0  0  0  0  0  0  0  0  0  0
    0.7411    2.6398    2.3463 H   0  0  0  0  0  0  0  0  0  0  0  0
   -0.9334    5.1867    4.5765 H   0  0  0  0  0  0  0  0  0  0  0  0
   -1.5290    4.6512    3.0117 H   0  0  0  0  0  0  0  0  0  0  0  0
    0.1640    5.0105    3.2094 H   0  0  0  0  0  0  0  0  0  0  0  0
   -2.0735    3.2783    5.5430 H   0  0  0  0  0  0  0  0  0  0  0  0
   -2.7855    1.8188    3.2793 H   0  0  0  0  0  0  0  0  0  0  0  0
   -2.5641    0.8628    5.7966 H   0  0  0  0  0  0  0  0  0  0  0  0
   -1.3072    0.4427    4.6750 H   0  0  0  0  0  0  0  0  0  0  0  0
   -1.0579    1.9937    7.2642 H   0  0  0  0  0  0  0  0  0  0  0  0
   -0.5699    0.3545    7.0685 H   0  0  0  0  0  0  0  0  0  0  0  0
    2.3418    2.8318    7.4150 H   0  0  0  0  0  0  0  0  0  0  0  0
    1.5439    1.5120    8.2401 H   0  0  0  0  0  0  0  0  0  0  0  0
    0.7350    3.0274    7.9859 H   0  0  0  0  0  0  0  0  0  0  0  0
    0.4144    3.8681    5.8704 H   0  0  0  0  0  0  0  0  0  0  0  0
    2.0566    4.2745    3.9966 H   0  0  0  0  0  0  0  0  0  0  0  0
    2.6607    3.9304    5.5535 H   0  0  0  0  0  0  0  0  0  0  0  0
    2.6809    2.2255    3.0997 H   0  0  0  0  0  0  0  0  0  0  0  0
    4.0033    2.7633    4.0042 H   0  0  0  0  0  0  0  0  0  0  0  0
    3.6922    1.0265    7.1031 H   0  0  0  0  0  0  0  0  0  0  0  0
    4.2068    2.4438    6.2634 H   0  0  0  0  0  0  0  0  0  0  0  0
    5.0688    0.9845    6.0834 H   0  0  0  0  0  0  0  0  0  0  0  0
    1.1133    0.3455    4.6174 H   0  0  0  0  0  0  0  0  0  0  0  0
    1.6058   -0.4419    7.4148 H   0  0  0  0  0  0  0  0  0  0  0  0
    0.8699   -1.2599    6.0800 H   0  0  0  0  0  0  0  0  0  0  0  0
    3.8499   -1.0736    6.7033 H   0  0  0  0  0  0  0  0  0  0  0  0
    3.5910   -3.1699    6.9524 H   0  0  0  0  0  0  0  0  0  0  0  0
    3.7749   -4.3627    5.4787 H   0  0  0  0  0  0  0  0  0  0  0  0
    2.1329   -4.2735    4.8439 H   0  0  0  0  0  0  0  0  0  0  0  0
    3.4825   -6.2838    4.2309 H   0  0  0  0  0  0  0  0  0  0  0  0
    2.7607   -5.4828    2.8760 H   0  0  0  0  0  0  0  0  0  0  0  0
    6.9862   -5.1035    3.7785 H   0  0  0  0  0  0  0  0  0  0  0  0
    5.8306   -5.8378    4.8677 H   0  0  0  0  0  0  0  0  0  0  0  0
    5.8595   -4.1009    4.6306 H   0  0  0  0  0  0  0  0  0  0  0  0
    7.5394   -6.5778    2.3564 H   0  0  0  0  0  0  0  0  0  0  0  0
    6.9664   -5.7562    0.8928 H   0  0  0  0  0  0  0  0  0  0  0  0
    6.9284   -7.4852    1.0081 H   0  0  0  0  0  0  0  0  0  0  0  0
    5.7331   -7.8175    3.9334 H   0  0  0  0  0  0  0  0  0  0  0  0
    5.5153   -8.7163    2.4507 H   0  0  0  0  0  0  0  0  0  0  0  0
    4.1234   -8.0605    3.2427 H   0  0  0  0  0  0  0  0  0  0  0  0
    4.0890   -5.5788   -0.9612 H   0  0  0  0  0  0  0  0  0  0  0  0
    4.4143   -3.4002   -0.0969 H   0  0  0  0  0  0  0  0  0  0  0  0
    6.3079   -2.6236    2.8624 H   0  0  0  0  0  0  0  0  0  0  0  0
    6.2206   -2.4144    1.1268 H   0  0  0  0  0  0  0  0  0  0  0  0
    7.0239   -3.8105    1.7659 H   0  0  0  0  0  0  0  0  0  0  0  0
    2.7644   -3.3411    2.1672 H   0  0  0  0  0  0  0  0  0  0  0  0
    4.6028   -1.1824    1.3784 H   0  0  0  0  0  0  0  0  0  0  0  0
    3.0145   -1.6196    0.8699 H   0  0  0  0  0  0  0  0  0  0  0  0
    5.6461   -0.6036    3.0223 H   0  0  0  0  0  0  0  0  0  0  0  0
    5.7835   -0.4750    4.7302 H   0  0  0  0  0  0  0  0  0  0  0  0
    5.5081    0.9465    3.7310 H   0  0  0  0  0  0  0  0  0  0  0  0
  1  2  1  0
  1 40  1  0
  1 41  1  0
  1 42  1  0
  2 10  1  0
  2  3  1  0
  2  4  1  0
  3 43  1  0
  3 44  1  0
  3 45  1  0
  4  5  1  0
  4  6  1  0
  4 46  1  1
  5 47  1  0
  6  7  1  0
  6 48  1  0
  6 49  1  0
  7  8  1  0
  7 50  1  0
  7 51  1  0
  8 15  1  0
  8  9  1  1
  8 10  1  0
  9 52  1  0
  9 53  1  0
  9 54  1  0
 10 11  1  0
 10 55  1  1
 11 12  1  0
 11 56  1  0
 11 57  1  0
 12 13  1  0
 12 58  1  0
 12 59  1  0
 13 38  1  0
 13 14  1  1
 13 15  1  0
 14 60  1  0
 14 61  1  0
 14 62  1  0
 15 16  1  0
 15 63  1  6
 16 17  1  0
 16 64  1  0
 16 65  1  0
 17 18  1  0
 17 19  1  0
 17 66  1  1
 18 67  1  0
 19 38  1  0
 19 20  2  0
 20 34  1  0
 20 21  1  0
 21 22  1  0
 21 68  1  0
 21 69  1  0
 22 23  1  0
 22 70  1  0
 22 71  1  0
 23 32  1  0
 23 24  1  1
 23 25  1  0
 24 72  1  0
 24 73  1  0
 24 74  1  0
 25 26  1  0
 25 27  1  0
 25 28  1  0
 26 75  1  0
 26 76  1  0
 26 77  1  0
 27 78  1  0
 27 79  1  0
 27 80  1  0
 28 29  2  0
 28 30  1  0
 30 31  2  0
 30 81  1  0
 31 32  1  0
 31 82  1  0
 32 33  1  6
 32 34  1  0
 33 83  1  0
 33 84  1  0
 33 85  1  0
 34 35  1  0
 34 86  1  6
 35 36  1  0
 35 87  1  0
 35 88  1  0
 36 37  2  0
 36 38  1  0
 38 39  1  6
 39 89  1  0
 39 90  1  0
 39 91  1  0
M  END
>  <i_m_ct_stereo_status>  (210) 
1

>  <s_m_source_file>  (210) 
/var/tmp/pbs.5076255.sched01/tmp2672eyar/80wl2hclo4.sdf

>  <i_m_source_file_index>  (210) 
4

>  <i_lp_mmshare_version>  (210) 
48012

>  <i_f3d_flags>  (210) 
0

>  <s_epik_input>  (210) 
W0NIMl0xW0NIMl1bQ0BIXShbT0hdKUMoW0NIM10pKFtDSDNdKVtDQEBIXShbQ0BAXTEyW0NIM10pW0NIMl1bQ0gyXVtDQEBdMyhbQ0gzXSlbQ0BIXTJbQ0gyXVtDQEBIXShbT0hdKUM0PUM1W0NAQEhdKFtDSDJdQyg9TylbQ0BAXTM0W0NIM10pW0NAQF02KFtDSDNdKVtDQEBdKFtDSDNdKShbQ0gyXVtDSDJdNSlDKFtDSDNdKShbQ0gzXSlDKD1PKVtDSF09W0NIXTY=

>  <s_epik_cmdline>  (210) 
J2VwaWtfcHl0aG9uJywgJy1waHQnLCAnMi4wJywgJy1waCcsICc3LjAnLCAnLXRuJywgJzgnLCAnLW1hJywgJzIwMCcsICctaW1hZScsICc8aW5maWxlLm1hZT4nLCAnLW9tYWUnLCAnPG91dGZpbGUubWFlPic=

>  <r_lp_tautomer_probability>  (210) 
1

>  <r_epik_Ionization_Penalty>  (210) 
2.80063e-06

>  <r_epik_Ionization_Penalty_Charging>  (210) 
0

>  <r_epik_Ionization_Penalty_Neutral>  (210) 
2.80063e-06

>  <r_epik_State_Penalty>  (210) 
-0

>  <r_epik_Charging_Adjusted_Penalty>  (210) 
0

>  <i_epik_Tot_Q>  (210) 
0

>  <i_epik_Tot_abs_Q>  (210) 
0

>  <s_lp_Force_Field>  (210) 
OPLS3e

>  <r_lp_Energy>  (210) 
134.193

>  <b_lp_Chiralities_Consistent>  (210) 
1

>  <s_lp_Variant>  (210) 
61:0-1

>  <s_i_glide_gridfile>  (210) 
pfpi4k_grid

>  <i_i_glide_lignum>  (210) 
4

>  <i_i_glide_rotatable_bonds>  (210) 
2

>  <r_i_docking_score>  (210) 
-2.35822

>  <r_i_glide_ligand_efficiency>  (210) 
-0.0604671

>  <r_i_glide_ligand_efficiency_sa>  (210) 
-0.205057

>  <r_i_glide_ligand_efficiency_ln>  (210) 
-0.505669

>  <r_i_glide_gscore>  (210) 
-2.35822

>  <r_i_glide_lipo>  (210) 
-0.317354

>  <r_i_glide_hbond>  (210) 
-0.221489

>  <r_i_glide_metal>  (210) 
-0

>  <r_i_glide_rewards>  (210) 
-0.151746

>  <r_i_glide_evdw>  (210) 
-24.0989

>  <r_i_glide_ecoul>  (210) 
-3.0466

>  <r_i_glide_erotb>  (210) 
0

>  <r_i_glide_esite>  (210) 
-0.0056963

>  <r_i_glide_emodel>  (210) 
-30.9223

>  <r_i_glide_energy>  (210) 
-27.1455

>  <r_i_glide_einternal>  (210) 
0.514721

>  <r_i_glide_intrahb_reward>  (210) 
-0

>  <i_i_glide_confnum>  (210) 
1

>  <i_i_glide_posenum>  (210) 
23

>  <r_i_glide_eff_state_penalty>  (210) 
0

>  <ligand_id>  (210) 
61

>  <original_smiles>  (210) 
CC1(C)C(O)CCC2(C)C1CCC1(C)C2CC(O)C2=C3CCC4(C)C(C)(C)C(=O)C=CC4(C)C3CC(=O)C21C

>  <smiles>  (210) 
[H]OC1([H])C2=C3C([H])([H])C([H])([H])C4(C([H])([H])[H])C(C([H])([H])[H])(C([H])([H])[H])C(=O)C([H])=C([H])C4(C([H])([H])[H])C3([H])C([H])([H])C(=O)C2(C([H])([H])[H])C2(C([H])([H])[H])C([H])([H])C([H])([H])C3([H])C(C([H])([H])[H])(C([H])([H])[H])C([H])(O[H])C([H])([H])C([H])([H])C3(C([H])([H])[H])C2([H])C1([H])[H]

$$$$
61:0:1
     RDKit          3D

 91 96  0  0  1  0  0  0  0  0999 V2000
   -0.3985    2.3483    3.0488 C   0  0  0  0  0  0  0  0  0  0  0  0
   -0.4961    3.3175    4.2478 C   0  0  0  0  0  0  0  0  0  0  0  0
   -0.6662    4.7510    3.6835 C   0  0  0  0  0  0  0  0  0  0  0  0
   -1.7802    2.9959    5.0629 C   0  0  1  0  0  0  0  0  0  0  0  0
   -2.9464    2.9472    4.2550 O   0  0  0  0  0  0  0  0  0  0  0  0
   -1.6532    1.6938    5.8559 C   0  0  0  0  0  0  0  0  0  0  0  0
   -0.5338    1.8454    6.8817 C   0  0  0  0  0  0  0  0  0  0  0  0
    0.8748    2.1685    6.2967 C   0  0  2  0  0  0  0  0  0  0  0  0
    1.6412    2.7697    7.5173 C   0  0  0  0  0  0  0  0  0  0  0  0
    0.7660    3.3003    5.2109 C   0  0  1  0  0  0  0  0  0  0  0  0
    2.1511    3.5320    4.5469 C   0  0  0  0  0  0  0  0  0  0  0  0
    2.8681    2.2727    4.0083 C   0  0  0  0  0  0  0  0  0  0  0  0
    2.9596    1.0383    4.9761 C   0  0  1  0  0  0  0  0  0  0  0  0
    4.0622    1.4513    6.0263 C   0  0  0  0  0  0  0  0  0  0  0  0
    1.5760    0.8664    5.7104 C   0  0  1  0  0  0  0  0  0  0  0  0
    1.6200   -0.3221    6.7126 C   0  0  0  0  0  0  0  0  0  0  0  0
    2.7953   -1.3017    6.5337 C   0  0  1  0  0  0  0  0  0  0  0  0
    2.5449   -2.3823    7.3997 O   0  0  0  0  0  0  0  0  0  0  0  0
    3.0364   -1.6406    5.0515 C   0  0  0  0  0  0  0  0  0  0  0  0
    2.9449   -2.8974    4.4984 C   0  0  0  0  0  0  0  0  0  0  0  0
    2.6025   -4.1825    5.2578 C   0  0  0  0  0  0  0  0  0  0  0  0
    2.7634   -5.4734    4.4355 C   0  0  0  0  0  0  0  0  0  0  0  0
    4.0842   -5.5162    3.6035 C   0  0  1  0  0  0  0  0  0  0  0  0
    5.2478   -5.3020    4.6280 C   0  0  0  0  0  0  0  0  0  0  0  0
    4.2480   -6.9612    2.9301 C   0  0  0  0  0  0  0  0  0  0  0  0
    5.6264   -7.1871    2.2443 C   0  0  0  0  0  0  0  0  0  0  0  0
    4.0964   -8.1323    3.9526 C   0  0  0  0  0  0  0  0  0  0  0  0
    3.1989   -7.1245    1.8132 C   0  0  0  0  0  0  0  0  0  0  0  0
    2.5384   -8.1572    1.7053 O   0  0  0  0  0  0  0  0  0  0  0  0
    3.0747   -6.0231    0.8647 C   0  0  0  0  0  0  0  0  0  0  0  0
    3.4758   -4.7838    1.1833 C   0  0  0  0  0  0  0  0  0  0  0  0
    4.0056   -4.3076    2.5394 C   0  0  2  0  0  0  0  0  0  0  0  0
    5.4111   -3.7079    2.2725 C   0  0  0  0  0  0  0  0  0  0  0  0
    3.0034   -3.1610    2.9853 C   0  0  2  0  0  0  0  0  0  0  0  0
    2.9627   -1.8844    2.0976 C   0  0  0  0  0  0  0  0  0  0  0  0
    2.5488   -0.6428    2.8903 C   0  0  0  0  0  0  0  0  0  0  0  0
    1.5675   -0.0138    2.5189 O   0  0  0  0  0  0  0  0  0  0  0  0
    3.3449   -0.3568    4.2059 C   0  0  1  0  0  0  0  0  0  0  0  0
    4.8647   -0.3513    3.8512 C   0  0  0  0  0  0  0  0  0  0  0  0
   -1.2644    2.4385    2.3900 H   0  0  0  0  0  0  0  0  0  0  0  0
   -0.3516    1.3078    3.3555 H   0  0  0  0  0  0  0  0  0  0  0  0
    0.4599    2.5684    2.4190 H   0  0  0  0  0  0  0  0  0  0  0  0
   -0.7506    5.4817    4.4892 H   0  0  0  0  0  0  0  0  0  0  0  0
   -1.5628    4.8323    3.0659 H   0  0  0  0  0  0  0  0  0  0  0  0
    0.1671    5.0552    3.0503 H   0  0  0  0  0  0  0  0  0  0  0  0
   -1.9517    3.7972    5.7789 H   0  0  0  0  0  0  0  0  0  0  0  0
   -2.8566    2.2321    3.6429 H   0  0  0  0  0  0  0  0  0  0  0  0
   -2.5821    1.4993    6.3896 H   0  0  0  0  0  0  0  0  0  0  0  0
   -1.4850    0.8331    5.2135 H   0  0  0  0  0  0  0  0  0  0  0  0
   -0.8442    2.6513    7.5492 H   0  0  0  0  0  0  0  0  0  0  0  0
   -0.5063    0.9649    7.5184 H   0  0  0  0  0  0  0  0  0  0  0  0
    2.6071    3.1951    7.2669 H   0  0  0  0  0  0  0  0  0  0  0  0
    1.8011    2.0566    8.3225 H   0  0  0  0  0  0  0  0  0  0  0  0
    1.0892    3.5980    7.9610 H   0  0  0  0  0  0  0  0  0  0  0  0
    0.6073    4.2095    5.7954 H   0  0  0  0  0  0  0  0  0  0  0  0
    2.0702    4.2517    3.7383 H   0  0  0  0  0  0  0  0  0  0  0  0
    2.8055    4.0341    5.2592 H   0  0  0  0  0  0  0  0  0  0  0  0
    2.4223    2.0585    3.0508 H   0  0  0  0  0  0  0  0  0  0  0  0
    3.8711    2.5808    3.7284 H   0  0  0  0  0  0  0  0  0  0  0  0
    3.7730    1.2530    7.0542 H   0  0  0  0  0  0  0  0  0  0  0  0
    4.3031    2.5114    5.9974 H   0  0  0  0  0  0  0  0  0  0  0  0
    5.0250    0.9695    5.9211 H   0  0  0  0  0  0  0  0  0  0  0  0
    0.8994    0.5215    4.9341 H   0  0  0  0  0  0  0  0  0  0  0  0
    1.6253    0.0215    7.7446 H   0  0  0  0  0  0  0  0  0  0  0  0
    0.6871   -0.8769    6.6020 H   0  0  0  0  0  0  0  0  0  0  0  0
    3.7258   -0.8848    6.9079 H   0  0  0  0  0  0  0  0  0  0  0  0
    3.3400   -2.8936    7.4544 H   0  0  0  0  0  0  0  0  0  0  0  0
    3.2674   -4.2755    6.1153 H   0  0  0  0  0  0  0  0  0  0  0  0
    1.5798   -4.1151    5.6326 H   0  0  0  0  0  0  0  0  0  0  0  0
    2.7003   -6.2927    5.1476 H   0  0  0  0  0  0  0  0  0  0  0  0
    1.8994   -5.5944    3.7813 H   0  0  0  0  0  0  0  0  0  0  0  0
    6.2369   -5.4410    4.1955 H   0  0  0  0  0  0  0  0  0  0  0  0
    5.1677   -5.9838    5.4750 H   0  0  0  0  0  0  0  0  0  0  0  0
    5.2536   -4.2945    5.0448 H   0  0  0  0  0  0  0  0  0  0  0  0
    6.4632   -7.1615    2.9439 H   0  0  0  0  0  0  0  0  0  0  0  0
    5.8215   -6.4716    1.4468 H   0  0  0  0  0  0  0  0  0  0  0  0
    5.6661   -8.1721    1.7739 H   0  0  0  0  0  0  0  0  0  0  0  0
    4.7658   -8.0406    4.8089 H   0  0  0  0  0  0  0  0  0  0  0  0
    4.3226   -9.0947    3.4895 H   0  0  0  0  0  0  0  0  0  0  0  0
    3.0784   -8.2301    4.3322 H   0  0  0  0  0  0  0  0  0  0  0  0
    2.6997   -6.2515   -0.1215 H   0  0  0  0  0  0  0  0  0  0  0  0
    3.3980   -4.0211    0.4188 H   0  0  0  0  0  0  0  0  0  0  0  0
    5.7729   -3.1335    3.1219 H   0  0  0  0  0  0  0  0  0  0  0  0
    5.4239   -3.0488    1.4061 H   0  0  0  0  0  0  0  0  0  0  0  0
    6.1646   -4.4640    2.0668 H   0  0  0  0  0  0  0  0  0  0  0  0
    2.0050   -3.5653    2.8111 H   0  0  0  0  0  0  0  0  0  0  0  0
    3.9003   -1.6823    1.5870 H   0  0  0  0  0  0  0  0  0  0  0  0
    2.2359   -2.0305    1.2958 H   0  0  0  0  0  0  0  0  0  0  0  0
    5.1522   -1.0063    3.0392 H   0  0  0  0  0  0  0  0  0  0  0  0
    5.4773   -0.6854    4.6904 H   0  0  0  0  0  0  0  0  0  0  0  0
    5.2059    0.6399    3.5579 H   0  0  0  0  0  0  0  0  0  0  0  0
  1  2  1  0
  1 40  1  0
  1 41  1  0
  1 42  1  0
  2 10  1  0
  2  3  1  0
  2  4  1  0
  3 43  1  0
  3 44  1  0
  3 45  1  0
  4  5  1  0
  4  6  1  0
  4 46  1  1
  5 47  1  0
  6  7  1  0
  6 48  1  0
  6 49  1  0
  7  8  1  0
  7 50  1  0
  7 51  1  0
  8 15  1  0
  8  9  1  1
  8 10  1  0
  9 52  1  0
  9 53  1  0
  9 54  1  0
 10 11  1  0
 10 55  1  1
 11 12  1  0
 11 56  1  0
 11 57  1  0
 12 13  1  0
 12 58  1  0
 12 59  1  0
 13 38  1  0
 13 14  1  1
 13 15  1  0
 14 60  1  0
 14 61  1  0
 14 62  1  0
 15 16  1  0
 15 63  1  6
 16 17  1  0
 16 64  1  0
 16 65  1  0
 17 18  1  0
 17 19  1  0
 17 66  1  1
 18 67  1  0
 19 38  1  0
 19 20  2  0
 20 34  1  0
 20 21  1  0
 21 22  1  0
 21 68  1  0
 21 69  1  0
 22 23  1  0
 22 70  1  0
 22 71  1  0
 23 32  1  0
 23 24  1  1
 23 25  1  0
 24 72  1  0
 24 73  1  0
 24 74  1  0
 25 26  1  0
 25 27  1  0
 25 28  1  0
 26 75  1  0
 26 76  1  0
 26 77  1  0
 27 78  1  0
 27 79  1  0
 27 80  1  0
 28 29  2  0
 28 30  1  0
 30 31  2  0
 30 81  1  0
 31 32  1  0
 31 82  1  0
 32 33  1  6
 32 34  1  0
 33 83  1  0
 33 84  1  0
 33 85  1  0
 34 35  1  0
 34 86  1  6
 35 36  1  0
 35 87  1  0
 35 88  1  0
 36 37  2  0
 36 38  1  0
 38 39  1  6
 39 89  1  0
 39 90  1  0
 39 91  1  0
M  END
>  <i_m_ct_stereo_status>  (211) 
1

>  <s_m_source_file>  (211) 
/var/tmp/pbs.5076255.sched01/tmp2672eyar/80wl2hclo4.sdf

>  <i_m_source_file_index>  (211) 
4

>  <i_lp_mmshare_version>  (211) 
48012

>  <i_f3d_flags>  (211) 
0

>  <s_epik_input>  (211) 
W0NIMl0xW0NIMl1bQ0BIXShbT0hdKUMoW0NIM10pKFtDSDNdKVtDQEBIXShbQ0BAXTEyW0NIM10pW0NIMl1bQ0gyXVtDQEBdMyhbQ0gzXSlbQ0BIXTJbQ0gyXVtDQEBIXShbT0hdKUM0PUM1W0NAQEhdKFtDSDJdQyg9TylbQ0BAXTM0W0NIM10pW0NAQF02KFtDSDNdKVtDQEBdKFtDSDNdKShbQ0gyXVtDSDJdNSlDKFtDSDNdKShbQ0gzXSlDKD1PKVtDSF09W0NIXTY=

>  <s_epik_cmdline>  (211) 
J2VwaWtfcHl0aG9uJywgJy1waHQnLCAnMi4wJywgJy1waCcsICc3LjAnLCAnLXRuJywgJzgnLCAnLW1hJywgJzIwMCcsICctaW1hZScsICc8aW5maWxlLm1hZT4nLCAnLW9tYWUnLCAnPG91dGZpbGUubWFlPic=

>  <r_lp_tautomer_probability>  (211) 
1

>  <r_epik_Ionization_Penalty>  (211) 
2.80063e-06

>  <r_epik_Ionization_Penalty_Charging>  (211) 
0

>  <r_epik_Ionization_Penalty_Neutral>  (211) 
2.80063e-06

>  <r_epik_State_Penalty>  (211) 
-0

>  <r_epik_Charging_Adjusted_Penalty>  (211) 
0

>  <i_epik_Tot_Q>  (211) 
0

>  <i_epik_Tot_abs_Q>  (211) 
0

>  <s_lp_Force_Field>  (211) 
OPLS3e

>  <r_lp_Energy>  (211) 
134.193

>  <b_lp_Chiralities_Consistent>  (211) 
1

>  <s_lp_Variant>  (211) 
61:0-1

>  <s_i_glide_gridfile>  (211) 
pfpi4k_grid

>  <i_i_glide_lignum>  (211) 
4

>  <i_i_glide_rotatable_bonds>  (211) 
2

>  <r_i_docking_score>  (211) 
-1.92168

>  <r_i_glide_ligand_efficiency>  (211) 
-0.049274

>  <r_i_glide_ligand_efficiency_sa>  (211) 
-0.167098

>  <r_i_glide_ligand_efficiency_ln>  (211) 
-0.412064

>  <r_i_glide_gscore>  (211) 
-1.92168

>  <r_i_glide_lipo>  (211) 
-0.154835

>  <r_i_glide_hbond>  (211) 
0

>  <r_i_glide_metal>  (211) 
-0

>  <r_i_glide_rewards>  (211) 
-0.0540698

>  <r_i_glide_evdw>  (211) 
-29.9666

>  <r_i_glide_ecoul>  (211) 
-1.37356

>  <r_i_glide_erotb>  (211) 
0

>  <r_i_glide_esite>  (211) 
-0.00841318

>  <r_i_glide_emodel>  (211) 
-34.621

>  <r_i_glide_energy>  (211) 
-31.3402

>  <r_i_glide_einternal>  (211) 
0.34463

>  <r_i_glide_intrahb_reward>  (211) 
-0

>  <i_i_glide_confnum>  (211) 
1

>  <i_i_glide_posenum>  (211) 
37

>  <r_i_glide_eff_state_penalty>  (211) 
0

>  <ligand_id>  (211) 
61

>  <original_smiles>  (211) 
CC1(C)C(O)CCC2(C)C1CCC1(C)C2CC(O)C2=C3CCC4(C)C(C)(C)C(=O)C=CC4(C)C3CC(=O)C21C

>  <smiles>  (211) 
[H]OC1([H])C2=C3C([H])([H])C([H])([H])C4(C([H])([H])[H])C(C([H])([H])[H])(C([H])([H])[H])C(=O)C([H])=C([H])C4(C([H])([H])[H])C3([H])C([H])([H])C(=O)C2(C([H])([H])[H])C2(C([H])([H])[H])C([H])([H])C([H])([H])C3([H])C(C([H])([H])[H])(C([H])([H])[H])C([H])(O[H])C([H])([H])C([H])([H])C3(C([H])([H])[H])C2([H])C1([H])[H]

$$$$
61:0:2
     RDKit          3D

 91 96  0  0  1  0  0  0  0  0999 V2000
   -0.4027    2.3481    3.0671 C   0  0  0  0  0  0  0  0  0  0  0  0
   -0.4961    3.3169    4.2674 C   0  0  0  0  0  0  0  0  0  0  0  0
   -0.6678    4.7510    3.7042 C   0  0  0  0  0  0  0  0  0  0  0  0
   -1.7782    2.9955    5.0867 C   0  0  1  0  0  0  0  0  0  0  0  0
   -2.9486    2.9440    4.2860 O   0  0  0  0  0  0  0  0  0  0  0  0
   -1.6509    1.6927    5.8777 C   0  0  0  0  0  0  0  0  0  0  0  0
   -0.5274    1.8416    6.8994 C   0  0  0  0  0  0  0  0  0  0  0  0
    0.8802    2.1661    6.3107 C   0  0  2  0  0  0  0  0  0  0  0  0
    1.6518    2.7662    7.5282 C   0  0  0  0  0  0  0  0  0  0  0  0
    0.7689    3.2984    5.2249 C   0  0  1  0  0  0  0  0  0  0  0  0
    2.1525    3.5307    4.5565 C   0  0  0  0  0  0  0  0  0  0  0  0
    2.8681    2.2713    4.0149 C   0  0  0  0  0  0  0  0  0  0  0  0
    2.9619    1.0360    4.9827 C   0  0  1  0  0  0  0  0  0  0  0  0
    4.0685    1.4474    6.0287 C   0  0  0  0  0  0  0  0  0  0  0  0
    1.5797    0.8661    5.7204 C   0  0  1  0  0  0  0  0  0  0  0  0
    1.6257   -0.3206    6.7223 C   0  0  0  0  0  0  0  0  0  0  0  0
    2.7969   -1.3041    6.5398 C   0  0  1  0  0  0  0  0  0  0  0  0
    2.5334   -2.3823    7.4069 O   0  0  0  0  0  0  0  0  0  0  0  0
    3.0358   -1.6419    5.0577 C   0  0  0  0  0  0  0  0  0  0  0  0
    2.9433   -2.9001    4.5033 C   0  0  0  0  0  0  0  0  0  0  0  0
    2.6054   -4.1836    5.2656 C   0  0  0  0  0  0  0  0  0  0  0  0
    2.7634   -5.4746    4.4398 C   0  0  0  0  0  0  0  0  0  0  0  0
    4.0804   -5.5173    3.6010 C   0  0  1  0  0  0  0  0  0  0  0  0
    5.2483   -5.3046    4.6219 C   0  0  0  0  0  0  0  0  0  0  0  0
    4.2427   -6.9628    2.9268 C   0  0  0  0  0  0  0  0  0  0  0  0
    5.6183   -7.1878    2.2343 C   0  0  0  0  0  0  0  0  0  0  0  0
    4.0936   -8.1344    3.9480 C   0  0  0  0  0  0  0  0  0  0  0  0
    3.1891   -7.1260    1.8134 C   0  0  0  0  0  0  0  0  0  0  0  0
    2.5285   -8.1586    1.7056 O   0  0  0  0  0  0  0  0  0  0  0  0
    3.0625   -6.0259    0.8664 C   0  0  0  0  0  0  0  0  0  0  0  0
    3.4631   -4.7845    1.1830 C   0  0  0  0  0  0  0  0  0  0  0  0
    3.9980   -4.3094    2.5373 C   0  0  2  0  0  0  0  0  0  0  0  0
    5.4026   -3.7088    2.2657 C   0  0  0  0  0  0  0  0  0  0  0  0
    2.9982   -3.1617    2.9896 C   0  0  2  0  0  0  0  0  0  0  0  0
    2.9542   -1.8848    2.1026 C   0  0  0  0  0  0  0  0  0  0  0  0
    2.5441   -0.6444    2.8978 C   0  0  0  0  0  0  0  0  0  0  0  0
    1.5625   -0.0126    2.5275 O   0  0  0  0  0  0  0  0  0  0  0  0
    3.3427   -0.3597    4.2103 C   0  0  1  0  0  0  0  0  0  0  0  0
    4.8614   -0.3544    3.8498 C   0  0  0  0  0  0  0  0  0  0  0  0
   -1.2713    2.4378    2.4119 H   0  0  0  0  0  0  0  0  0  0  0  0
   -0.3544    1.3077    3.3731 H   0  0  0  0  0  0  0  0  0  0  0  0
    0.4528    2.5693    2.4343 H   0  0  0  0  0  0  0  0  0  0  0  0
   -0.7499    5.4812    4.5106 H   0  0  0  0  0  0  0  0  0  0  0  0
   -1.5660    4.8331    3.0898 H   0  0  0  0  0  0  0  0  0  0  0  0
    0.1633    5.0558    3.0685 H   0  0  0  0  0  0  0  0  0  0  0  0
   -1.9446    3.7969    5.8045 H   0  0  0  0  0  0  0  0  0  0  0  0
   -2.8604    2.2382    3.6638 H   0  0  0  0  0  0  0  0  0  0  0  0
   -2.5814    1.4986    6.4103 H   0  0  0  0  0  0  0  0  0  0  0  0
   -1.4855    0.8332    5.2342 H   0  0  0  0  0  0  0  0  0  0  0  0
   -0.8345    2.6477    7.5693 H   0  0  0  0  0  0  0  0  0  0  0  0
   -0.4976    0.9618    7.5361 H   0  0  0  0  0  0  0  0  0  0  0  0
    2.6173    3.1918    7.2747 H   0  0  0  0  0  0  0  0  0  0  0  0
    1.8154    2.0539    8.3330 H   0  0  0  0  0  0  0  0  0  0  0  0
    1.1020    3.5947    7.9750 H   0  0  0  0  0  0  0  0  0  0  0  0
    0.6127    4.2074    5.8117 H   0  0  0  0  0  0  0  0  0  0  0  0
    2.0690    4.2509    3.7491 H   0  0  0  0  0  0  0  0  0  0  0  0
    2.8094    4.0319    5.2673 H   0  0  0  0  0  0  0  0  0  0  0  0
    2.4179    2.0576    3.0594 H   0  0  0  0  0  0  0  0  0  0  0  0
    3.8699    2.5785    3.7303 H   0  0  0  0  0  0  0  0  0  0  0  0
    3.7831    1.2483    7.0577 H   0  0  0  0  0  0  0  0  0  0  0  0
    4.3100    2.5080    5.9998 H   0  0  0  0  0  0  0  0  0  0  0  0
    5.0307    0.9656    5.9194 H   0  0  0  0  0  0  0  0  0  0  0  0
    0.9021    0.5213    4.9452 H   0  0  0  0  0  0  0  0  0  0  0  0
    1.6326    0.0256    7.7548 H   0  0  0  0  0  0  0  0  0  0  0  0
    0.6912   -0.8737    6.6137 H   0  0  0  0  0  0  0  0  0  0  0  0
    3.7329   -0.8944    6.9095 H   0  0  0  0  0  0  0  0  0  0  0  0
    2.6515   -2.0820    8.2989 H   0  0  0  0  0  0  0  0  0  0  0  0
    3.2713   -4.2681    6.1235 H   0  0  0  0  0  0  0  0  0  0  0  0
    1.5843   -4.1168    5.6434 H   0  0  0  0  0  0  0  0  0  0  0  0
    2.7025   -6.2946    5.1501 H   0  0  0  0  0  0  0  0  0  0  0  0
    1.8978   -5.5946    3.7882 H   0  0  0  0  0  0  0  0  0  0  0  0
    6.2356   -5.4430    4.1856 H   0  0  0  0  0  0  0  0  0  0  0  0
    5.1707   -5.9865    5.4683 H   0  0  0  0  0  0  0  0  0  0  0  0
    5.2544   -4.2976    5.0395 H   0  0  0  0  0  0  0  0  0  0  0  0
    6.4575   -7.1625    2.9307 H   0  0  0  0  0  0  0  0  0  0  0  0
    5.8103   -6.4720    1.4372 H   0  0  0  0  0  0  0  0  0  0  0  0
    5.6569   -8.1725    1.7628 H   0  0  0  0  0  0  0  0  0  0  0  0
    4.7658   -8.0434    4.8022 H   0  0  0  0  0  0  0  0  0  0  0  0
    4.3177   -9.0971    3.4843 H   0  0  0  0  0  0  0  0  0  0  0  0
    3.0770   -8.2320    4.3317 H   0  0  0  0  0  0  0  0  0  0  0  0
    2.6841   -6.2550   -0.1197 H   0  0  0  0  0  0  0  0  0  0  0  0
    3.3832   -4.0229    0.4187 H   0  0  0  0  0  0  0  0  0  0  0  0
    5.7682   -3.1348    3.1146 H   0  0  0  0  0  0  0  0  0  0  0  0
    5.4129   -3.0491    1.3999 H   0  0  0  0  0  0  0  0  0  0  0  0
    6.1559   -4.4647    2.0571 H   0  0  0  0  0  0  0  0  0  0  0  0
    1.9996   -3.5655    2.8183 H   0  0  0  0  0  0  0  0  0  0  0  0
    3.8894   -1.6824    1.5886 H   0  0  0  0  0  0  0  0  0  0  0  0
    2.2255   -2.0306    1.3028 H   0  0  0  0  0  0  0  0  0  0  0  0
    5.1463   -1.0084    3.0364 H   0  0  0  0  0  0  0  0  0  0  0  0
    5.4779   -0.6886    4.6860 H   0  0  0  0  0  0  0  0  0  0  0  0
    5.2019    0.6369    3.5548 H   0  0  0  0  0  0  0  0  0  0  0  0
  1  2  1  0
  1 40  1  0
  1 41  1  0
  1 42  1  0
  2 10  1  0
  2  3  1  0
  2  4  1  0
  3 43  1  0
  3 44  1  0
  3 45  1  0
  4  5  1  0
  4  6  1  0
  4 46  1  1
  5 47  1  0
  6  7  1  0
  6 48  1  0
  6 49  1  0
  7  8  1  0
  7 50  1  0
  7 51  1  0
  8 15  1  0
  8  9  1  1
  8 10  1  0
  9 52  1  0
  9 53  1  0
  9 54  1  0
 10 11  1  0
 10 55  1  1
 11 12  1  0
 11 56  1  0
 11 57  1  0
 12 13  1  0
 12 58  1  0
 12 59  1  0
 13 38  1  0
 13 14  1  1
 13 15  1  0
 14 60  1  0
 14 61  1  0
 14 62  1  0
 15 16  1  0
 15 63  1  6
 16 17  1  0
 16 64  1  0
 16 65  1  0
 17 18  1  0
 17 19  1  0
 17 66  1  1
 18 67  1  0
 19 38  1  0
 19 20  2  0
 20 34  1  0
 20 21  1  0
 21 22  1  0
 21 68  1  0
 21 69  1  0
 22 23  1  0
 22 70  1  0
 22 71  1  0
 23 32  1  0
 23 24  1  1
 23 25  1  0
 24 72  1  0
 24 73  1  0
 24 74  1  0
 25 26  1  0
 25 27  1  0
 25 28  1  0
 26 75  1  0
 26 76  1  0
 26 77  1  0
 27 78  1  0
 27 79  1  0
 27 80  1  0
 28 29  2  0
 28 30  1  0
 30 31  2  0
 30 81  1  0
 31 32  1  0
 31 82  1  0
 32 33  1  6
 32 34  1  0
 33 83  1  0
 33 84  1  0
 33 85  1  0
 34 35  1  0
 34 86  1  6
 35 36  1  0
 35 87  1  0
 35 88  1  0
 36 37  2  0
 36 38  1  0
 38 39  1  6
 39 89  1  0
 39 90  1  0
 39 91  1  0
M  END
>  <i_m_ct_stereo_status>  (212) 
1

>  <s_m_source_file>  (212) 
/var/tmp/pbs.5076255.sched01/tmp2672eyar/80wl2hclo4.sdf

>  <i_m_source_file_index>  (212) 
4

>  <i_lp_mmshare_version>  (212) 
48012

>  <i_f3d_flags>  (212) 
0

>  <s_epik_input>  (212) 
W0NIMl0xW0NIMl1bQ0BIXShbT0hdKUMoW0NIM10pKFtDSDNdKVtDQEBIXShbQ0BAXTEyW0NIM10pW0NIMl1bQ0gyXVtDQEBdMyhbQ0gzXSlbQ0BIXTJbQ0gyXVtDQEBIXShbT0hdKUM0PUM1W0NAQEhdKFtDSDJdQyg9TylbQ0BAXTM0W0NIM10pW0NAQF02KFtDSDNdKVtDQEBdKFtDSDNdKShbQ0gyXVtDSDJdNSlDKFtDSDNdKShbQ0gzXSlDKD1PKVtDSF09W0NIXTY=

>  <s_epik_cmdline>  (212) 
J2VwaWtfcHl0aG9uJywgJy1waHQnLCAnMi4wJywgJy1waCcsICc3LjAnLCAnLXRuJywgJzgnLCAnLW1hJywgJzIwMCcsICctaW1hZScsICc8aW5maWxlLm1hZT4nLCAnLW9tYWUnLCAnPG91dGZpbGUubWFlPic=

>  <r_lp_tautomer_probability>  (212) 
1

>  <r_epik_Ionization_Penalty>  (212) 
2.80063e-06

>  <r_epik_Ionization_Penalty_Charging>  (212) 
0

>  <r_epik_Ionization_Penalty_Neutral>  (212) 
2.80063e-06

>  <r_epik_State_Penalty>  (212) 
-0

>  <r_epik_Charging_Adjusted_Penalty>  (212) 
0

>  <i_epik_Tot_Q>  (212) 
0

>  <i_epik_Tot_abs_Q>  (212) 
0

>  <s_lp_Force_Field>  (212) 
OPLS3e

>  <r_lp_Energy>  (212) 
134.193

>  <b_lp_Chiralities_Consistent>  (212) 
1

>  <s_lp_Variant>  (212) 
61:0-1

>  <s_i_glide_gridfile>  (212) 
pfpi4k_grid

>  <i_i_glide_lignum>  (212) 
4

>  <i_i_glide_rotatable_bonds>  (212) 
2

>  <r_i_docking_score>  (212) 
-1.8943

>  <r_i_glide_ligand_efficiency>  (212) 
-0.0485717

>  <r_i_glide_ligand_efficiency_sa>  (212) 
-0.164717

>  <r_i_glide_ligand_efficiency_ln>  (212) 
-0.406191

>  <r_i_glide_gscore>  (212) 
-1.8943

>  <r_i_glide_lipo>  (212) 
-0.155281

>  <r_i_glide_hbond>  (212) 
0

>  <r_i_glide_metal>  (212) 
-0

>  <r_i_glide_rewards>  (212) 
-0.0539837

>  <r_i_glide_evdw>  (212) 
-29.943

>  <r_i_glide_ecoul>  (212) 
-1.19698

>  <r_i_glide_erotb>  (212) 
0

>  <r_i_glide_esite>  (212) 
-0.00833596

>  <r_i_glide_emodel>  (212) 
-34.3085

>  <r_i_glide_energy>  (212) 
-31.14

>  <r_i_glide_einternal>  (212) 
0.472632

>  <r_i_glide_intrahb_reward>  (212) 
-0

>  <i_i_glide_confnum>  (212) 
1

>  <i_i_glide_posenum>  (212) 
17

>  <r_i_glide_eff_state_penalty>  (212) 
0

>  <ligand_id>  (212) 
61

>  <original_smiles>  (212) 
CC1(C)C(O)CCC2(C)C1CCC1(C)C2CC(O)C2=C3CCC4(C)C(C)(C)C(=O)C=CC4(C)C3CC(=O)C21C

>  <smiles>  (212) 
[H]OC1([H])C2=C3C([H])([H])C([H])([H])C4(C([H])([H])[H])C(C([H])([H])[H])(C([H])([H])[H])C(=O)C([H])=C([H])C4(C([H])([H])[H])C3([H])C([H])([H])C(=O)C2(C([H])([H])[H])C2(C([H])([H])[H])C([H])([H])C([H])([H])C3([H])C(C([H])([H])[H])(C([H])([H])[H])C([H])(O[H])C([H])([H])C([H])([H])C3(C([H])([H])[H])C2([H])C1([H])[H]

$$$$
62:0:0
     RDKit          3D

 43 46  0  0  1  0  0  0  0  0999 V2000
    2.5608   -3.4481    1.9459 C   0  0  0  0  0  0  0  0  0  0  0  0
    3.5618   -4.1603    1.0290 C   0  0  0  0  0  0  0  0  0  0  0  0
    3.7446   -5.6284    1.4453 C   0  0  0  0  0  0  0  0  0  0  0  0
    3.0903   -4.1275   -0.2801 O   0  0  0  0  0  0  0  0  0  0  0  0
    3.7338   -2.9906   -0.7777 C   0  0  2  0  0  0  0  0  0  0  0  0
    3.7363   -2.7671   -2.3032 C   0  0  1  0  0  0  0  0  0  0  0  0
    4.1873   -3.8542   -3.0692 O   0  0  0  0  0  0  0  0  0  0  0  0
    2.5125   -2.2979   -2.7680 O   0  0  0  0  0  0  0  0  0  0  0  0
    2.7206   -1.2510   -3.7364 C   0  0  0  0  0  0  0  0  0  0  0  0
    4.2151   -0.9887   -3.8272 C   0  0  0  0  0  0  0  0  0  0  0  0
    4.6610   -1.6526   -2.5738 C   0  0  0  0  0  0  0  0  0  0  0  0
    5.5732   -1.1927   -1.6973 C   0  0  0  0  0  0  0  0  0  0  0  0
    5.9555   -1.8122   -0.3525 C   0  0  2  0  0  0  0  0  0  0  0  0
    5.6475   -0.7923    0.7553 C   0  0  0  0  0  0  0  0  0  0  0  0
    7.4543   -2.2781   -0.3904 C   0  0  1  0  0  0  0  0  0  0  0  0
    8.3402   -1.5394    0.4351 O   0  0  0  0  0  0  0  0  0  0  0  0
    7.4690   -3.7857   -0.1347 C   0  0  1  0  0  0  0  0  0  0  0  0
    7.5654   -4.1411    1.2196 O   0  0  0  0  0  0  0  0  0  0  0  0
    6.0901   -4.1999   -0.6511 C   0  0  0  0  0  0  0  0  0  0  0  0
    5.1379   -3.1096   -0.1783 C   0  0  2  0  0  0  0  0  0  0  0  0
    4.7820   -3.4835    1.1360 O   0  0  0  0  0  0  0  0  0  0  0  0
    2.4289   -2.3996    1.6598 H   0  0  0  0  0  0  0  0  0  0  0  0
    2.9071   -3.5039    2.9749 H   0  0  0  0  0  0  0  0  0  0  0  0
    1.6098   -3.9624    1.8772 H   0  0  0  0  0  0  0  0  0  0  0  0
    4.3585   -6.1845    0.7369 H   0  0  0  0  0  0  0  0  0  0  0  0
    2.7738   -6.1161    1.5034 H   0  0  0  0  0  0  0  0  0  0  0  0
    4.2237   -5.6522    2.4220 H   0  0  0  0  0  0  0  0  0  0  0  0
    3.2503   -2.0993   -0.3527 H   0  0  0  0  0  0  0  0  0  0  0  0
    3.6628   -4.6107   -2.8205 H   0  0  0  0  0  0  0  0  0  0  0  0
    2.2888   -1.4853   -4.7058 H   0  0  0  0  0  0  0  0  0  0  0  0
    2.2431   -0.3342   -3.3871 H   0  0  0  0  0  0  0  0  0  0  0  0
    4.6230   -1.5182   -4.6869 H   0  0  0  0  0  0  0  0  0  0  0  0
    4.4546    0.0635   -3.8871 H   0  0  0  0  0  0  0  0  0  0  0  0
    6.0237   -0.2734   -1.9932 H   0  0  0  0  0  0  0  0  0  0  0  0
    5.9045   -1.1904    1.7364 H   0  0  0  0  0  0  0  0  0  0  0  0
    4.5877   -0.5241    0.7577 H   0  0  0  0  0  0  0  0  0  0  0  0
    6.2066    0.1364    0.6069 H   0  0  0  0  0  0  0  0  0  0  0  0
    7.8451   -2.1673   -1.4066 H   0  0  0  0  0  0  0  0  0  0  0  0
    9.2331   -1.7237    0.1709 H   0  0  0  0  0  0  0  0  0  0  0  0
    8.2947   -4.2688   -0.6521 H   0  0  0  0  0  0  0  0  0  0  0  0
    6.8228   -3.7514    1.6649 H   0  0  0  0  0  0  0  0  0  0  0  0
    6.1473   -4.1588   -1.7322 H   0  0  0  0  0  0  0  0  0  0  0  0
    5.8281   -5.2093   -0.3593 H   0  0  0  0  0  0  0  0  0  0  0  0
  1  2  1  0
  1 22  1  0
  1 23  1  0
  1 24  1  0
  2 21  1  0
  2  3  1  0
  2  4  1  0
  3 25  1  0
  3 26  1  0
  3 27  1  0
  4  5  1  0
  5 20  1  0
  5  6  1  0
  5 28  1  1
  6 11  1  0
  6  7  1  6
  6  8  1  0
  7 29  1  0
  8  9  1  0
  9 10  1  0
  9 30  1  0
  9 31  1  0
 10 11  1  0
 10 32  1  0
 10 33  1  0
 11 12  2  0
 12 13  1  0
 12 34  1  0
 13 20  1  0
 13 14  1  1
 13 15  1  0
 14 35  1  0
 14 36  1  0
 14 37  1  0
 15 16  1  0
 15 17  1  0
 15 38  1  6
 16 39  1  0
 17 18  1  0
 17 19  1  0
 17 40  1  6
 18 41  1  0
 19 20  1  0
 19 42  1  0
 19 43  1  0
 20 21  1  1
M  END
>  <i_m_ct_stereo_status>  (213) 
1

>  <s_m_source_file>  (213) 
/var/tmp/pbs.5076255.sched01/tmp2672eyar/80wl2hclo4.sdf

>  <i_m_source_file_index>  (213) 
5

>  <i_lp_mmshare_version>  (213) 
48012

>  <i_f3d_flags>  (213) 
0

>  <s_epik_input>  (213) 
W0NIM11DKE8xKShbQ0gzXSlPW0NAQEhdKFtDQF0xMjMpW0NAXTQoW09IXSlDKFtDSDJdW0NIMl1PNCk9W0NIXVtDQF0yKFtDSDNdKVtDQEBIXShbT0hdKVtDQEBIXShbT0hdKVtDSDJdMw==

>  <s_epik_cmdline>  (213) 
J2VwaWtfcHl0aG9uJywgJy1waHQnLCAnMi4wJywgJy1waCcsICc3LjAnLCAnLXRuJywgJzgnLCAnLW1hJywgJzIwMCcsICctaW1hZScsICc8aW5maWxlLm1hZT4nLCAnLW9tYWUnLCAnPG91dGZpbGUubWFlPic=

>  <r_lp_tautomer_probability>  (213) 
1

>  <r_epik_Ionization_Penalty>  (213) 
4.91437e-05

>  <r_epik_Ionization_Penalty_Charging>  (213) 
0

>  <r_epik_Ionization_Penalty_Neutral>  (213) 
4.91437e-05

>  <r_epik_State_Penalty>  (213) 
-0

>  <r_epik_Charging_Adjusted_Penalty>  (213) 
0

>  <i_epik_Tot_Q>  (213) 
0

>  <i_epik_Tot_abs_Q>  (213) 
0

>  <s_lp_Force_Field>  (213) 
OPLS3e

>  <r_lp_Energy>  (213) 
13.8743

>  <b_lp_Chiralities_Consistent>  (213) 
1

>  <s_lp_Variant>  (213) 
62:0-1

>  <s_i_glide_gridfile>  (213) 
pfpi4k_grid

>  <i_i_glide_lignum>  (213) 
5

>  <i_i_glide_rotatable_bonds>  (213) 
3

>  <r_i_docking_score>  (213) 
-3.84057

>  <r_i_glide_ligand_efficiency>  (213) 
-0.182884

>  <r_i_glide_ligand_efficiency_sa>  (213) 
-0.504564

>  <r_i_glide_ligand_efficiency_ln>  (213) 
-0.949573

>  <r_i_glide_gscore>  (213) 
-3.84057

>  <r_i_glide_lipo>  (213) 
-0.617793

>  <r_i_glide_hbond>  (213) 
0

>  <r_i_glide_metal>  (213) 
-0

>  <r_i_glide_rewards>  (213) 
-1.87644

>  <r_i_glide_evdw>  (213) 
-15.6723

>  <r_i_glide_ecoul>  (213) 
-3.64204

>  <r_i_glide_erotb>  (213) 
0

>  <r_i_glide_esite>  (213) 
-0.0164129

>  <r_i_glide_emodel>  (213) 
-29.4202

>  <r_i_glide_energy>  (213) 
-19.3143

>  <r_i_glide_einternal>  (213) 
0.644161

>  <r_i_glide_intrahb_reward>  (213) 
-0.5

>  <i_i_glide_confnum>  (213) 
1

>  <i_i_glide_posenum>  (213) 
9

>  <r_i_glide_eff_state_penalty>  (213) 
0

>  <ligand_id>  (213) 
62

>  <original_smiles>  (213) 
CC1(C)OC2C3(O)OCCC3=CC3(C)C(O)C(O)CC23O1

>  <smiles>  (213) 
[H]OC12OC([H])([H])C([H])([H])C1=C([H])C1(C([H])([H])[H])C([H])(O[H])C([H])(O[H])C([H])([H])C13OC(C([H])([H])[H])(C([H])([H])[H])OC23[H]

$$$$
62:0:1
     RDKit          3D

 43 46  0  0  1  0  0  0  0  0999 V2000
    2.5236   -3.4269    1.9392 C   0  0  0  0  0  0  0  0  0  0  0  0
    3.5236   -4.1469    1.0249 C   0  0  0  0  0  0  0  0  0  0  0  0
    3.6944   -5.6158    1.4444 C   0  0  0  0  0  0  0  0  0  0  0  0
    3.0537   -4.1198   -0.2856 O   0  0  0  0  0  0  0  0  0  0  0  0
    3.7112   -2.9813   -0.7782 C   0  0  2  0  0  0  0  0  0  0  0  0
    3.7217   -2.7686   -2.2998 C   0  0  1  0  0  0  0  0  0  0  0  0
    4.1784   -3.8523   -3.0634 O   0  0  0  0  0  0  0  0  0  0  0  0
    2.5097   -2.2926   -2.7460 O   0  0  0  0  0  0  0  0  0  0  0  0
    2.7251   -1.2303   -3.7050 C   0  0  0  0  0  0  0  0  0  0  0  0
    4.2115   -1.0001   -3.8287 C   0  0  0  0  0  0  0  0  0  0  0  0
    4.6621   -1.6700   -2.5744 C   0  0  0  0  0  0  0  0  0  0  0  0
    5.5598   -1.1960   -1.7044 C   0  0  0  0  0  0  0  0  0  0  0  0
    5.9262   -1.8108   -0.3535 C   0  0  2  0  0  0  0  0  0  0  0  0
    5.6293   -0.7913    0.7514 C   0  0  0  0  0  0  0  0  0  0  0  0
    7.4214   -2.2777   -0.3905 C   0  0  1  0  0  0  0  0  0  0  0  0
    8.2820   -1.5064    0.4193 O   0  0  0  0  0  0  0  0  0  0  0  0
    7.4406   -3.7832   -0.1047 C   0  0  1  0  0  0  0  0  0  0  0  0
    7.5256   -4.1053    1.2672 O   0  0  0  0  0  0  0  0  0  0  0  0
    6.0727   -4.1919   -0.6484 C   0  0  0  0  0  0  0  0  0  0  0  0
    5.1150   -3.1059   -0.1725 C   0  0  2  0  0  0  0  0  0  0  0  0
    4.7468   -3.4804    1.1458 O   0  0  0  0  0  0  0  0  0  0  0  0
    2.3936   -2.3797    1.6461 H   0  0  0  0  0  0  0  0  0  0  0  0
    2.8687   -3.4773    2.9693 H   0  0  0  0  0  0  0  0  0  0  0  0
    1.5712   -3.9416    1.8733 H   0  0  0  0  0  0  0  0  0  0  0  0
    4.3091   -6.1732    0.7373 H   0  0  0  0  0  0  0  0  0  0  0  0
    2.7187   -6.0954    1.4948 H   0  0  0  0  0  0  0  0  0  0  0  0
    4.1661   -5.6419    2.4237 H   0  0  0  0  0  0  0  0  0  0  0  0
    3.2325   -2.0916   -0.3642 H   0  0  0  0  0  0  0  0  0  0  0  0
    3.6466   -4.6161   -2.8225 H   0  0  0  0  0  0  0  0  0  0  0  0
    2.2477   -1.4906   -4.6459 H   0  0  0  0  0  0  0  0  0  0  0  0
    2.2757   -0.2985   -3.3515 H   0  0  0  0  0  0  0  0  0  0  0  0
    4.6107   -1.5323   -4.6872 H   0  0  0  0  0  0  0  0  0  0  0  0
    4.4688    0.0525   -3.8875 H   0  0  0  0  0  0  0  0  0  0  0  0
    6.0176   -0.2902   -2.0034 H   0  0  0  0  0  0  0  0  0  0  0  0
    5.8664   -1.1888    1.7367 H   0  0  0  0  0  0  0  0  0  0  0  0
    4.5744   -0.5031    0.7475 H   0  0  0  0  0  0  0  0  0  0  0  0
    6.2085    0.1240    0.6062 H   0  0  0  0  0  0  0  0  0  0  0  0
    7.8098   -2.1997   -1.4077 H   0  0  0  0  0  0  0  0  0  0  0  0
    8.0028   -1.6078    1.3203 H   0  0  0  0  0  0  0  0  0  0  0  0
    8.2588   -4.2742   -0.6258 H   0  0  0  0  0  0  0  0  0  0  0  0
    6.7280   -3.8011    1.6723 H   0  0  0  0  0  0  0  0  0  0  0  0
    6.1575   -4.1003   -1.7254 H   0  0  0  0  0  0  0  0  0  0  0  0
    5.8022   -5.2068   -0.3935 H   0  0  0  0  0  0  0  0  0  0  0  0
  1  2  1  0
  1 22  1  0
  1 23  1  0
  1 24  1  0
  2 21  1  0
  2  3  1  0
  2  4  1  0
  3 25  1  0
  3 26  1  0
  3 27  1  0
  4  5  1  0
  5 20  1  0
  5  6  1  0
  5 28  1  1
  6 11  1  0
  6  7  1  6
  6  8  1  0
  7 29  1  0
  8  9  1  0
  9 10  1  0
  9 30  1  0
  9 31  1  0
 10 11  1  0
 10 32  1  0
 10 33  1  0
 11 12  2  0
 12 13  1  0
 12 34  1  0
 13 20  1  0
 13 14  1  1
 13 15  1  0
 14 35  1  0
 14 36  1  0
 14 37  1  0
 15 16  1  0
 15 17  1  0
 15 38  1  6
 16 39  1  0
 17 18  1  0
 17 19  1  0
 17 40  1  6
 18 41  1  0
 19 20  1  0
 19 42  1  0
 19 43  1  0
 20 21  1  1
M  END
>  <i_m_ct_stereo_status>  (214) 
1

>  <s_m_source_file>  (214) 
/var/tmp/pbs.5076255.sched01/tmp2672eyar/80wl2hclo4.sdf

>  <i_m_source_file_index>  (214) 
5

>  <i_lp_mmshare_version>  (214) 
48012

>  <i_f3d_flags>  (214) 
0

>  <s_epik_input>  (214) 
W0NIM11DKE8xKShbQ0gzXSlPW0NAQEhdKFtDQF0xMjMpW0NAXTQoW09IXSlDKFtDSDJdW0NIMl1PNCk9W0NIXVtDQF0yKFtDSDNdKVtDQEBIXShbT0hdKVtDQEBIXShbT0hdKVtDSDJdMw==

>  <s_epik_cmdline>  (214) 
J2VwaWtfcHl0aG9uJywgJy1waHQnLCAnMi4wJywgJy1waCcsICc3LjAnLCAnLXRuJywgJzgnLCAnLW1hJywgJzIwMCcsICctaW1hZScsICc8aW5maWxlLm1hZT4nLCAnLW9tYWUnLCAnPG91dGZpbGUubWFlPic=

>  <r_lp_tautomer_probability>  (214) 
1

>  <r_epik_Ionization_Penalty>  (214) 
4.91437e-05

>  <r_epik_Ionization_Penalty_Charging>  (214) 
0

>  <r_epik_Ionization_Penalty_Neutral>  (214) 
4.91437e-05

>  <r_epik_State_Penalty>  (214) 
-0

>  <r_epik_Charging_Adjusted_Penalty>  (214) 
0

>  <i_epik_Tot_Q>  (214) 
0

>  <i_epik_Tot_abs_Q>  (214) 
0

>  <s_lp_Force_Field>  (214) 
OPLS3e

>  <r_lp_Energy>  (214) 
13.8743

>  <b_lp_Chiralities_Consistent>  (214) 
1

>  <s_lp_Variant>  (214) 
62:0-1

>  <s_i_glide_gridfile>  (214) 
pfpi4k_grid

>  <i_i_glide_lignum>  (214) 
5

>  <i_i_glide_rotatable_bonds>  (214) 
3

>  <r_i_docking_score>  (214) 
-3.83297

>  <r_i_glide_ligand_efficiency>  (214) 
-0.182522

>  <r_i_glide_ligand_efficiency_sa>  (214) 
-0.503565

>  <r_i_glide_ligand_efficiency_ln>  (214) 
-0.947693

>  <r_i_glide_gscore>  (214) 
-3.83297

>  <r_i_glide_lipo>  (214) 
-0.626403

>  <r_i_glide_hbond>  (214) 
0

>  <r_i_glide_metal>  (214) 
-0

>  <r_i_glide_rewards>  (214) 
-1.87501

>  <r_i_glide_evdw>  (214) 
-15.8485

>  <r_i_glide_ecoul>  (214) 
-3.48068

>  <r_i_glide_erotb>  (214) 
0

>  <r_i_glide_esite>  (214) 
-0.0170261

>  <r_i_glide_emodel>  (214) 
-29.701

>  <r_i_glide_energy>  (214) 
-19.3291

>  <r_i_glide_einternal>  (214) 
0.140959

>  <r_i_glide_intrahb_reward>  (214) 
-0.5

>  <i_i_glide_confnum>  (214) 
1

>  <i_i_glide_posenum>  (214) 
19

>  <r_i_glide_eff_state_penalty>  (214) 
0

>  <ligand_id>  (214) 
62

>  <original_smiles>  (214) 
CC1(C)OC2C3(O)OCCC3=CC3(C)C(O)C(O)CC23O1

>  <smiles>  (214) 
[H]OC12OC([H])([H])C([H])([H])C1=C([H])C1(C([H])([H])[H])C([H])(O[H])C([H])(O[H])C([H])([H])C13OC(C([H])([H])[H])(C([H])([H])[H])OC23[H]

$$$$
62:0:2
     RDKit          3D

 43 46  0  0  1  0  0  0  0  0999 V2000
    4.5006   -6.5166    0.7604 C   0  0  0  0  0  0  0  0  0  0  0  0
    5.4568   -5.3214    0.9494 C   0  0  0  0  0  0  0  0  0  0  0  0
    6.7292   -5.7575    1.6961 C   0  0  0  0  0  0  0  0  0  0  0  0
    5.8149   -4.8040   -0.2996 O   0  0  0  0  0  0  0  0  0  0  0  0
    4.8724   -3.7750   -0.4450 C   0  0  2  0  0  0  0  0  0  0  0  0
    5.1101   -2.7615   -1.5682 C   0  0  1  0  0  0  0  0  0  0  0  0
    6.4410   -2.2732   -1.5934 O   0  0  0  0  0  0  0  0  0  0  0  0
    4.7402   -3.2924   -2.8001 O   0  0  0  0  0  0  0  0  0  0  0  0
    4.0371   -2.3132   -3.5883 C   0  0  0  0  0  0  0  0  0  0  0  0
    3.8495   -1.0717   -2.7111 C   0  0  0  0  0  0  0  0  0  0  0  0
    4.1390   -1.6307   -1.3542 C   0  0  0  0  0  0  0  0  0  0  0  0
    3.4475   -1.3894   -0.2143 C   0  0  0  0  0  0  0  0  0  0  0  0
    3.6520   -2.1371    1.1077 C   0  0  2  0  0  0  0  0  0  0  0  0
    2.3658   -2.8858    1.4793 C   0  0  0  0  0  0  0  0  0  0  0  0
    4.1128   -1.1235    2.1944 C   0  0  1  0  0  0  0  0  0  0  0  0
    3.2047   -0.9104    3.2620 O   0  0  0  0  0  0  0  0  0  0  0  0
    5.4808   -1.5959    2.6968 C   0  0  1  0  0  0  0  0  0  0  0  0
    5.3738   -2.4760    3.8024 O   0  0  0  0  0  0  0  0  0  0  0  0
    6.0448   -2.3337    1.4829 C   0  0  0  0  0  0  0  0  0  0  0  0
    4.8360   -3.1286    0.9457 C   0  0  2  0  0  0  0  0  0  0  0  0
    4.7796   -4.3410    1.6948 O   0  0  0  0  0  0  0  0  0  0  0  0
    3.5702   -6.2137    0.2792 H   0  0  0  0  0  0  0  0  0  0  0  0
    4.2620   -6.9484    1.7353 H   0  0  0  0  0  0  0  0  0  0  0  0
    4.9808   -7.2795    0.1433 H   0  0  0  0  0  0  0  0  0  0  0  0
    7.4738   -4.9651    1.7261 H   0  0  0  0  0  0  0  0  0  0  0  0
    7.1755   -6.6200    1.1957 H   0  0  0  0  0  0  0  0  0  0  0  0
    6.4715   -6.0349    2.7183 H   0  0  0  0  0  0  0  0  0  0  0  0
    3.8928   -4.2201   -0.6512 H   0  0  0  0  0  0  0  0  0  0  0  0
    6.9959   -3.0344   -1.6945 H   0  0  0  0  0  0  0  0  0  0  0  0
    4.5885   -2.0788   -4.4973 H   0  0  0  0  0  0  0  0  0  0  0  0
    3.0777   -2.7365   -3.8981 H   0  0  0  0  0  0  0  0  0  0  0  0
    4.6103   -0.3241   -2.9521 H   0  0  0  0  0  0  0  0  0  0  0  0
    2.8591   -0.6193   -2.7968 H   0  0  0  0  0  0  0  0  0  0  0  0
    2.6752   -0.6377   -0.1983 H   0  0  0  0  0  0  0  0  0  0  0  0
    2.4644   -3.4245    2.4231 H   0  0  0  0  0  0  0  0  0  0  0  0
    2.1156   -3.6164    0.7104 H   0  0  0  0  0  0  0  0  0  0  0  0
    1.5217   -2.2013    1.5713 H   0  0  0  0  0  0  0  0  0  0  0  0
    4.2673   -0.1506    1.7255 H   0  0  0  0  0  0  0  0  0  0  0  0
    2.4499   -0.4671    2.9137 H   0  0  0  0  0  0  0  0  0  0  0  0
    6.1073   -0.7543    2.9943 H   0  0  0  0  0  0  0  0  0  0  0  0
    4.9342   -2.0081    4.4910 H   0  0  0  0  0  0  0  0  0  0  0  0
    6.3483   -1.5692    0.7771 H   0  0  0  0  0  0  0  0  0  0  0  0
    6.9160   -2.9311    1.7139 H   0  0  0  0  0  0  0  0  0  0  0  0
  1  2  1  0
  1 22  1  0
  1 23  1  0
  1 24  1  0
  2 21  1  0
  2  3  1  0
  2  4  1  0
  3 25  1  0
  3 26  1  0
  3 27  1  0
  4  5  1  0
  5 20  1  0
  5  6  1  0
  5 28  1  6
  6 11  1  0
  6  7  1  6
  6  8  1  0
  7 29  1  0
  8  9  1  0
  9 10  1  0
  9 30  1  0
  9 31  1  0
 10 11  1  0
 10 32  1  0
 10 33  1  0
 11 12  2  0
 12 13  1  0
 12 34  1  0
 13 20  1  0
 13 14  1  1
 13 15  1  0
 14 35  1  0
 14 36  1  0
 14 37  1  0
 15 16  1  0
 15 17  1  0
 15 38  1  6
 16 39  1  0
 17 18  1  0
 17 19  1  0
 17 40  1  1
 18 41  1  0
 19 20  1  0
 19 42  1  0
 19 43  1  0
 20 21  1  1
M  END
>  <i_m_ct_stereo_status>  (215) 
1

>  <s_m_source_file>  (215) 
/var/tmp/pbs.5076255.sched01/tmp2672eyar/80wl2hclo4.sdf

>  <i_m_source_file_index>  (215) 
5

>  <i_lp_mmshare_version>  (215) 
48012

>  <i_f3d_flags>  (215) 
0

>  <s_epik_input>  (215) 
W0NIM11DKE8xKShbQ0gzXSlPW0NAQEhdKFtDQF0xMjMpW0NAXTQoW09IXSlDKFtDSDJdW0NIMl1PNCk9W0NIXVtDQF0yKFtDSDNdKVtDQEBIXShbT0hdKVtDQEBIXShbT0hdKVtDSDJdMw==

>  <s_epik_cmdline>  (215) 
J2VwaWtfcHl0aG9uJywgJy1waHQnLCAnMi4wJywgJy1waCcsICc3LjAnLCAnLXRuJywgJzgnLCAnLW1hJywgJzIwMCcsICctaW1hZScsICc8aW5maWxlLm1hZT4nLCAnLW9tYWUnLCAnPG91dGZpbGUubWFlPic=

>  <r_lp_tautomer_probability>  (215) 
1

>  <r_epik_Ionization_Penalty>  (215) 
4.91437e-05

>  <r_epik_Ionization_Penalty_Charging>  (215) 
0

>  <r_epik_Ionization_Penalty_Neutral>  (215) 
4.91437e-05

>  <r_epik_State_Penalty>  (215) 
-0

>  <r_epik_Charging_Adjusted_Penalty>  (215) 
0

>  <i_epik_Tot_Q>  (215) 
0

>  <i_epik_Tot_abs_Q>  (215) 
0

>  <s_lp_Force_Field>  (215) 
OPLS3e

>  <r_lp_Energy>  (215) 
13.8743

>  <b_lp_Chiralities_Consistent>  (215) 
1

>  <s_lp_Variant>  (215) 
62:0-1

>  <s_i_glide_gridfile>  (215) 
pfpi4k_grid

>  <i_i_glide_lignum>  (215) 
5

>  <i_i_glide_rotatable_bonds>  (215) 
3

>  <r_i_docking_score>  (215) 
-3.63987

>  <r_i_glide_ligand_efficiency>  (215) 
-0.173327

>  <r_i_glide_ligand_efficiency_sa>  (215) 
-0.478196

>  <r_i_glide_ligand_efficiency_ln>  (215) 
-0.899949

>  <r_i_glide_gscore>  (215) 
-3.63987

>  <r_i_glide_lipo>  (215) 
-0.685877

>  <r_i_glide_hbond>  (215) 
0

>  <r_i_glide_metal>  (215) 
-0

>  <r_i_glide_rewards>  (215) 
-1.48545

>  <r_i_glide_evdw>  (215) 
-22.3734

>  <r_i_glide_ecoul>  (215) 
-2.32064

>  <r_i_glide_erotb>  (215) 
0

>  <r_i_glide_esite>  (215) 
-0.00177819

>  <r_i_glide_emodel>  (215) 
-29.8441

>  <r_i_glide_energy>  (215) 
-24.694

>  <r_i_glide_einternal>  (215) 
0.698808

>  <r_i_glide_intrahb_reward>  (215) 
-0

>  <i_i_glide_confnum>  (215) 
1

>  <i_i_glide_posenum>  (215) 
24

>  <r_i_glide_eff_state_penalty>  (215) 
0

>  <ligand_id>  (215) 
62

>  <original_smiles>  (215) 
CC1(C)OC2C3(O)OCCC3=CC3(C)C(O)C(O)CC23O1

>  <smiles>  (215) 
[H]OC12OC([H])([H])C([H])([H])C1=C([H])C1(C([H])([H])[H])C([H])(O[H])C([H])(O[H])C([H])([H])C13OC(C([H])([H])[H])(C([H])([H])[H])OC23[H]

$$$$
63:0:0
     RDKit          3D

 23 24  0  0  1  0  0  0  0  0999 V2000
    3.8179   -0.7805   -4.7030 C   0  0  0  0  0  0  0  0  0  0  0  0
    3.9082   -1.4536   -3.4174 N   0  0  0  0  0  0  0  0  0  0  0  0
    3.4375   -0.7836   -2.2044 C   0  0  0  0  0  0  0  0  0  0  0  0
    3.3390   -1.9843   -1.2580 C   0  0  2  0  0  0  0  0  0  0  0  0
    3.4013   -2.0099    0.2616 C   0  0  0  0  0  0  0  0  0  0  0  0
    3.9213   -3.3831    0.5236 N   0  0  0  0  0  0  0  0  0  0  0  0
    4.4125   -3.9694   -0.7521 C   0  0  0  0  0  0  0  0  0  0  0  0
    4.5861   -2.7328   -1.6154 C   0  0  1  0  0  0  0  0  0  0  0  0
    4.4750   -2.6407   -3.1249 C   0  0  0  0  0  0  0  0  0  0  0  0
    4.8912   -3.4927   -3.9074 O   0  0  0  0  0  0  0  0  0  0  0  0
    4.2177   -1.4072   -5.4848 H   0  0  0  0  0  0  0  0  0  0  0  0
    4.4069    0.1291   -4.7002 H   0  0  0  0  0  0  0  0  0  0  0  0
    2.7974   -0.5277   -4.9674 H   0  0  0  0  0  0  0  0  0  0  0  0
    4.2026   -0.0631   -1.8975 H   0  0  0  0  0  0  0  0  0  0  0  0
    2.4727   -0.2993   -2.3781 H   0  0  0  0  0  0  0  0  0  0  0  0
    2.4482   -2.5608   -1.5453 H   0  0  0  0  0  0  0  0  0  0  0  0
    4.1079   -1.2607    0.6284 H   0  0  0  0  0  0  0  0  0  0  0  0
    2.4258   -1.8469    0.7266 H   0  0  0  0  0  0  0  0  0  0  0  0
    4.6928   -3.3067    1.1702 H   0  0  0  0  0  0  0  0  0  0  0  0
    5.3441   -4.5172   -0.6258 H   0  0  0  0  0  0  0  0  0  0  0  0
    3.6516   -4.6516   -1.1283 H   0  0  0  0  0  0  0  0  0  0  0  0
    5.4692   -2.1721   -1.2957 H   0  0  0  0  0  0  0  0  0  0  0  0
    3.1942   -3.9710    0.9081 H   0  0  0  0  0  0  0  0  0  0  0  0
  1  2  1  0
  1 11  1  0
  1 12  1  0
  1 13  1  0
  2  9  1  0
  2  3  1  0
  3  4  1  0
  3 14  1  0
  3 15  1  0
  4  8  1  0
  4  5  1  0
  4 16  1  1
  5  6  1  0
  5 17  1  0
  5 18  1  0
  6  7  1  0
  6 19  1  0
  6 23  1  0
  7  8  1  0
  7 20  1  0
  7 21  1  0
  8  9  1  0
  8 22  1  1
  9 10  2  0
M  CHG  1   6   1
M  END
>  <i_m_ct_stereo_status>  (216) 
1

>  <s_m_source_file>  (216) 
/var/tmp/pbs.5076255.sched01/tmp2672eyar/80wl2hclo4.sdf

>  <i_m_source_file_index>  (216) 
6

>  <i_lp_mmshare_version>  (216) 
48012

>  <i_f3d_flags>  (216) 
0

>  <s_epik_input>  (216) 
W0NIM11OKFtDSDJdMSlDKD1PKVtDQEBIXShbQ0BIXTEyKVtDSDJdW05IXVtDSDJdMg==

>  <s_epik_cmdline>  (216) 
J2VwaWtfcHl0aG9uJywgJy1waHQnLCAnMi4wJywgJy1waCcsICc3LjAnLCAnLXRuJywgJzgnLCAnLW1hJywgJzIwMCcsICctaW1hZScsICc8aW5maWxlLm1hZT4nLCAnLW9tYWUnLCAnPG91dGZpbGUubWFlPic=

>  <r_epik_Ionization_Penalty>  (216) 
0.00110739

>  <r_epik_Ionization_Penalty_Charging>  (216) 
0.00110739

>  <r_epik_Ionization_Penalty_Neutral>  (216) 
6.41914e-10

>  <r_epik_State_Penalty>  (216) 
0.000726856

>  <r_epik_Charging_Adjusted_Penalty>  (216) 
0.00183425

>  <i_epik_Tot_Q>  (216) 
1

>  <i_epik_Tot_abs_Q>  (216) 
1

>  <s_lp_Force_Field>  (216) 
OPLS3e

>  <r_lp_Energy>  (216) 
22.5384

>  <b_lp_Chiralities_Consistent>  (216) 
1

>  <s_lp_Variant>  (216) 
63:0-1

>  <s_i_glide_gridfile>  (216) 
pfpi4k_grid

>  <i_i_glide_lignum>  (216) 
6

>  <i_i_glide_rotatable_bonds>  (216) 
0

>  <r_i_docking_score>  (216) 
-3.97139

>  <r_i_glide_ligand_efficiency>  (216) 
-0.397139

>  <r_i_glide_ligand_efficiency_sa>  (216) 
-0.855611

>  <r_i_glide_ligand_efficiency_ln>  (216) 
-1.20251

>  <r_i_glide_gscore>  (216) 
-3.97139

>  <r_i_glide_lipo>  (216) 
-0.0810131

>  <r_i_glide_hbond>  (216) 
0

>  <r_i_glide_metal>  (216) 
-0

>  <r_i_glide_rewards>  (216) 
-2.63208

>  <r_i_glide_evdw>  (216) 
-13.7793

>  <r_i_glide_ecoul>  (216) 
-3.79559

>  <r_i_glide_erotb>  (216) 
0

>  <r_i_glide_esite>  (216) 
0

>  <r_i_glide_emodel>  (216) 
-23.4225

>  <r_i_glide_energy>  (216) 
-17.5749

>  <r_i_glide_einternal>  (216) 
0

>  <r_i_glide_intrahb_reward>  (216) 
-0

>  <i_i_glide_confnum>  (216) 
1

>  <i_i_glide_posenum>  (216) 
15

>  <r_i_glide_eff_state_penalty>  (216) 
0

>  <ligand_id>  (216) 
63

>  <original_smiles>  (216) 
CN1CC2CNCC2C1=O

>  <smiles>  (216) 
[H]C([H])([H])N1C(=O)C2([H])C([H])(C1([H])[H])C([H])([H])[N+]([H])([H])C2([H])[H]

$$$$
63:0:1
     RDKit          3D

 23 24  0  0  1  0  0  0  0  0999 V2000
   -3.2988    2.9424    2.9297 C   0  0  0  0  0  0  0  0  0  0  0  0
   -1.8803    2.6083    2.8955 N   0  0  0  0  0  0  0  0  0  0  0  0
   -1.3895    1.2904    2.4701 C   0  0  0  0  0  0  0  0  0  0  0  0
    0.0750    1.6290    2.1972 C   0  0  2  0  0  0  0  0  0  0  0  0
    1.2925    0.7246    2.2226 C   0  0  0  0  0  0  0  0  0  0  0  0
    2.3926    1.6866    2.5267 N   0  0  0  0  0  0  0  0  0  0  0  0
    1.7945    2.9889    2.9458 C   0  0  0  0  0  0  0  0  0  0  0  0
    0.3831    2.5647    3.3307 C   0  0  1  0  0  0  0  0  0  0  0  0
   -0.8857    3.4027    3.3190 C   0  0  0  0  0  0  0  0  0  0  0  0
   -0.9608    4.5711    3.6978 O   0  0  0  0  0  0  0  0  0  0  0  0
   -3.4491    3.9780    3.2201 H   0  0  0  0  0  0  0  0  0  0  0  0
   -3.7937    2.3250    3.6760 H   0  0  0  0  0  0  0  0  0  0  0  0
   -3.7703    2.7867    1.9595 H   0  0  0  0  0  0  0  0  0  0  0  0
   -1.4996    0.5614    3.2784 H   0  0  0  0  0  0  0  0  0  0  0  0
   -1.9055    0.9514    1.5747 H   0  0  0  0  0  0  0  0  0  0  0  0
    0.1127    2.1396    1.2336 H   0  0  0  0  0  0  0  0  0  0  0  0
    1.1981   -0.0087    3.0241 H   0  0  0  0  0  0  0  0  0  0  0  0
    1.4477    0.2022    1.2762 H   0  0  0  0  0  0  0  0  0  0  0  0
    2.9268    1.3068    3.2941 H   0  0  0  0  0  0  0  0  0  0  0  0
    2.3409    3.4173    3.7889 H   0  0  0  0  0  0  0  0  0  0  0  0
    1.8190    3.6947    2.1097 H   0  0  0  0  0  0  0  0  0  0  0  0
    0.4039    2.0256    4.2822 H   0  0  0  0  0  0  0  0  0  0  0  0
    2.9809    1.8258    1.7188 H   0  0  0  0  0  0  0  0  0  0  0  0
  1  2  1  0
  1 11  1  0
  1 12  1  0
  1 13  1  0
  2  9  1  0
  2  3  1  0
  3  4  1  0
  3 14  1  0
  3 15  1  0
  4  8  1  0
  4  5  1  0
  4 16  1  6
  5  6  1  0
  5 17  1  0
  5 18  1  0
  6  7  1  0
  6 19  1  0
  6 23  1  0
  7  8  1  0
  7 20  1  0
  7 21  1  0
  8  9  1  0
  8 22  1  1
  9 10  2  0
M  CHG  1   6   1
M  END
>  <i_m_ct_stereo_status>  (217) 
1

>  <s_m_source_file>  (217) 
/var/tmp/pbs.5076255.sched01/tmp2672eyar/80wl2hclo4.sdf

>  <i_m_source_file_index>  (217) 
6

>  <i_lp_mmshare_version>  (217) 
48012

>  <i_f3d_flags>  (217) 
0

>  <s_epik_input>  (217) 
W0NIM11OKFtDSDJdMSlDKD1PKVtDQEBIXShbQ0BIXTEyKVtDSDJdW05IXVtDSDJdMg==

>  <s_epik_cmdline>  (217) 
J2VwaWtfcHl0aG9uJywgJy1waHQnLCAnMi4wJywgJy1waCcsICc3LjAnLCAnLXRuJywgJzgnLCAnLW1hJywgJzIwMCcsICctaW1hZScsICc8aW5maWxlLm1hZT4nLCAnLW9tYWUnLCAnPG91dGZpbGUubWFlPic=

>  <r_epik_Ionization_Penalty>  (217) 
0.00110739

>  <r_epik_Ionization_Penalty_Charging>  (217) 
0.00110739

>  <r_epik_Ionization_Penalty_Neutral>  (217) 
6.41914e-10

>  <r_epik_State_Penalty>  (217) 
0.000726856

>  <r_epik_Charging_Adjusted_Penalty>  (217) 
0.00183425

>  <i_epik_Tot_Q>  (217) 
1

>  <i_epik_Tot_abs_Q>  (217) 
1

>  <s_lp_Force_Field>  (217) 
OPLS3e

>  <r_lp_Energy>  (217) 
22.5384

>  <b_lp_Chiralities_Consistent>  (217) 
1

>  <s_lp_Variant>  (217) 
63:0-1

>  <s_i_glide_gridfile>  (217) 
pfpi4k_grid

>  <i_i_glide_lignum>  (217) 
6

>  <i_i_glide_rotatable_bonds>  (217) 
0

>  <r_i_docking_score>  (217) 
-3.9073

>  <r_i_glide_ligand_efficiency>  (217) 
-0.39073

>  <r_i_glide_ligand_efficiency_sa>  (217) 
-0.841803

>  <r_i_glide_ligand_efficiency_ln>  (217) 
-1.1831

>  <r_i_glide_gscore>  (217) 
-3.9073

>  <r_i_glide_lipo>  (217) 
0

>  <r_i_glide_hbond>  (217) 
-0.0470469

>  <r_i_glide_metal>  (217) 
-0

>  <r_i_glide_rewards>  (217) 
-2.25

>  <r_i_glide_evdw>  (217) 
-12.1175

>  <r_i_glide_ecoul>  (217) 
-5.77661

>  <r_i_glide_erotb>  (217) 
0

>  <r_i_glide_esite>  (217) 
-0.13789

>  <r_i_glide_emodel>  (217) 
-23.6888

>  <r_i_glide_energy>  (217) 
-17.8941

>  <r_i_glide_einternal>  (217) 
0

>  <r_i_glide_intrahb_reward>  (217) 
-0

>  <i_i_glide_confnum>  (217) 
1

>  <i_i_glide_posenum>  (217) 
23

>  <r_i_glide_eff_state_penalty>  (217) 
0

>  <ligand_id>  (217) 
63

>  <original_smiles>  (217) 
CN1CC2CNCC2C1=O

>  <smiles>  (217) 
[H]C([H])([H])N1C(=O)C2([H])C([H])(C1([H])[H])C([H])([H])[N+]([H])([H])C2([H])[H]

$$$$
63:0:2
     RDKit          3D

 23 24  0  0  1  0  0  0  0  0999 V2000
   -2.5238    2.8132    5.9006 C   0  0  0  0  0  0  0  0  0  0  0  0
   -1.6426    2.2946    4.8579 N   0  0  0  0  0  0  0  0  0  0  0  0
   -0.4478    1.4937    5.1757 C   0  0  0  0  0  0  0  0  0  0  0  0
   -0.1653    0.8819    3.7976 C   0  0  2  0  0  0  0  0  0  0  0  0
    1.1475    0.3816    3.2040 C   0  0  0  0  0  0  0  0  0  0  0  0
    0.9276    0.5549    1.7342 N   0  0  0  0  0  0  0  0  0  0  0  0
   -0.2970    1.3824    1.5460 C   0  0  0  0  0  0  0  0  0  0  0  0
   -0.4504    2.0515    2.8985 C   0  0  1  0  0  0  0  0  0  0  0  0
   -1.7316    2.5497    3.5384 C   0  0  0  0  0  0  0  0  0  0  0  0
   -2.6306    3.1363    2.9422 O   0  0  0  0  0  0  0  0  0  0  0  0
   -3.3756    3.3467    5.4814 H   0  0  0  0  0  0  0  0  0  0  0  0
   -1.9695    3.5100    6.5265 H   0  0  0  0  0  0  0  0  0  0  0  0
   -2.9127    2.0169    6.5307 H   0  0  0  0  0  0  0  0  0  0  0  0
    0.3618    2.1481    5.5087 H   0  0  0  0  0  0  0  0  0  0  0  0
   -0.6493    0.7430    5.9402 H   0  0  0  0  0  0  0  0  0  0  0  0
   -0.9012    0.0866    3.6395 H   0  0  0  0  0  0  0  0  0  0  0  0
    1.9719    1.0164    3.5383 H   0  0  0  0  0  0  0  0  0  0  0  0
    1.3647   -0.6512    3.4795 H   0  0  0  0  0  0  0  0  0  0  0  0
    1.7159    1.0649    1.3656 H   0  0  0  0  0  0  0  0  0  0  0  0
   -0.1547    2.1033    0.7468 H   0  0  0  0  0  0  0  0  0  0  0  0
   -1.1570    0.7554    1.3079 H   0  0  0  0  0  0  0  0  0  0  0  0
    0.3004    2.8375    3.0090 H   0  0  0  0  0  0  0  0  0  0  0  0
    0.8319   -0.3091    1.2081 H   0  0  0  0  0  0  0  0  0  0  0  0
  1  2  1  0
  1 11  1  0
  1 12  1  0
  1 13  1  0
  2  9  1  0
  2  3  1  0
  3  4  1  0
  3 14  1  0
  3 15  1  0
  4  8  1  0
  4  5  1  0
  4 16  1  6
  5  6  1  0
  5 17  1  0
  5 18  1  0
  6  7  1  0
  6 19  1  0
  6 23  1  0
  7  8  1  0
  7 20  1  0
  7 21  1  0
  8  9  1  0
  8 22  1  6
  9 10  2  0
M  CHG  1   6   1
M  END
>  <i_m_ct_stereo_status>  (218) 
1

>  <s_m_source_file>  (218) 
/var/tmp/pbs.5076255.sched01/tmp2672eyar/80wl2hclo4.sdf

>  <i_m_source_file_index>  (218) 
6

>  <i_lp_mmshare_version>  (218) 
48012

>  <i_f3d_flags>  (218) 
0

>  <s_epik_input>  (218) 
W0NIM11OKFtDSDJdMSlDKD1PKVtDQEBIXShbQ0BIXTEyKVtDSDJdW05IXVtDSDJdMg==

>  <s_epik_cmdline>  (218) 
J2VwaWtfcHl0aG9uJywgJy1waHQnLCAnMi4wJywgJy1waCcsICc3LjAnLCAnLXRuJywgJzgnLCAnLW1hJywgJzIwMCcsICctaW1hZScsICc8aW5maWxlLm1hZT4nLCAnLW9tYWUnLCAnPG91dGZpbGUubWFlPic=

>  <r_epik_Ionization_Penalty>  (218) 
0.00110739

>  <r_epik_Ionization_Penalty_Charging>  (218) 
0.00110739

>  <r_epik_Ionization_Penalty_Neutral>  (218) 
6.41914e-10

>  <r_epik_State_Penalty>  (218) 
0.000726856

>  <r_epik_Charging_Adjusted_Penalty>  (218) 
0.00183425

>  <i_epik_Tot_Q>  (218) 
1

>  <i_epik_Tot_abs_Q>  (218) 
1

>  <s_lp_Force_Field>  (218) 
OPLS3e

>  <r_lp_Energy>  (218) 
22.5384

>  <b_lp_Chiralities_Consistent>  (218) 
1

>  <s_lp_Variant>  (218) 
63:0-1

>  <s_i_glide_gridfile>  (218) 
pfpi4k_grid

>  <i_i_glide_lignum>  (218) 
6

>  <i_i_glide_rotatable_bonds>  (218) 
0

>  <r_i_docking_score>  (218) 
-3.8365

>  <r_i_glide_ligand_efficiency>  (218) 
-0.38365

>  <r_i_glide_ligand_efficiency_sa>  (218) 
-0.826548

>  <r_i_glide_ligand_efficiency_ln>  (218) 
-1.16167

>  <r_i_glide_gscore>  (218) 
-3.8365

>  <r_i_glide_lipo>  (218) 
-0.0772756

>  <r_i_glide_hbond>  (218) 
-0.140263

>  <r_i_glide_metal>  (218) 
-0

>  <r_i_glide_rewards>  (218) 
-2.25

>  <r_i_glide_evdw>  (218) 
-11.3456

>  <r_i_glide_ecoul>  (218) 
-4.48925

>  <r_i_glide_erotb>  (218) 
0

>  <r_i_glide_esite>  (218) 
-0.128292

>  <r_i_glide_emodel>  (218) 
-21.4909

>  <r_i_glide_energy>  (218) 
-15.8349

>  <r_i_glide_einternal>  (218) 
0

>  <r_i_glide_intrahb_reward>  (218) 
-0

>  <i_i_glide_confnum>  (218) 
1

>  <i_i_glide_posenum>  (218) 
25

>  <r_i_glide_eff_state_penalty>  (218) 
0

>  <ligand_id>  (218) 
63

>  <original_smiles>  (218) 
CN1CC2CNCC2C1=O

>  <smiles>  (218) 
[H]C([H])([H])N1C(=O)C2([H])C([H])(C1([H])[H])C([H])([H])[N+]([H])([H])C2([H])[H]

$$$$
64:0:0
     RDKit          3D

 76 81  0  0  1  0  0  0  0  0999 V2000
    5.6682   -3.4927   -0.8849 C   0  0  0  0  0  0  0  0  0  0  0  0
    6.1182   -3.5366    0.6046 C   0  0  0  0  0  0  0  0  0  0  0  0
    7.6264   -3.9230    0.6266 C   0  0  0  0  0  0  0  0  0  0  0  0
    6.0359   -2.1229    1.2501 C   0  0  1  0  0  0  0  0  0  0  0  0
    6.6587   -1.1239    0.4524 O   0  0  0  0  0  0  0  0  0  0  0  0
    4.6123   -1.6653    1.5708 C   0  0  0  0  0  0  0  0  0  0  0  0
    3.8749   -2.7144    2.4232 C   0  0  0  0  0  0  0  0  0  0  0  0
    3.8078   -4.1587    1.8295 C   0  0  2  0  0  0  0  0  0  0  0  0
    2.9044   -4.0654    0.5527 C   0  0  0  0  0  0  0  0  0  0  0  0
    3.0851   -5.0887    2.9294 C   0  0  2  0  0  0  0  0  0  0  0  0
    3.7471   -5.1200    4.3455 C   0  0  0  0  0  0  0  0  0  0  0  0
    5.1569   -5.6621    4.5461 C   0  0  0  0  0  0  0  0  0  0  0  0
    6.0564   -4.8753    4.8307 O   0  0  0  0  0  0  0  0  0  0  0  0
    5.4607   -7.1649    4.5369 C   0  0  1  0  0  0  0  0  0  0  0  0
    4.8122   -7.9199    5.7112 C   0  0  0  0  0  0  0  0  0  0  0  0
    3.3137   -8.1426    5.5430 C   0  0  0  0  0  0  0  0  0  0  0  0
    2.8399   -8.3028    4.0710 C   0  0  1  0  0  0  0  0  0  0  0  0
    1.7079   -7.2539    3.6452 C   0  0  0  0  0  0  0  0  0  0  0  0
    0.6289   -8.0291    3.1632 O   0  0  0  0  0  0  0  0  0  0  0  0
   -0.5491   -7.5121    3.7187 C   0  0  0  0  0  0  0  0  0  0  0  0
   -0.0433   -7.0407    5.0630 C   0  0  0  0  0  0  0  0  0  0  0  0
    1.1961   -6.5197    4.6992 O   0  0  0  0  0  0  0  0  0  0  0  0
    2.1395   -6.3103    2.4988 C   0  0  2  0  0  0  0  0  0  0  0  0
    2.4329   -7.1993    1.3019 C   0  0  0  0  0  0  0  0  0  0  0  0
    3.3402   -8.4203    1.5234 C   0  0  0  0  0  0  0  0  0  0  0  0
    3.9184   -8.6286    2.9467 C   0  0  2  0  0  0  0  0  0  0  0  0
    4.0439  -10.1932    3.0046 C   0  0  0  0  0  0  0  0  0  0  0  0
    5.3815   -7.9427    3.1844 C   0  0  2  0  0  0  0  0  0  0  0  0
    6.4924   -9.0418    3.3896 C   0  0  0  0  0  0  0  0  0  0  0  0
    6.0755   -7.1327    1.9913 C   0  0  0  0  0  0  0  0  0  0  0  0
    5.4639   -6.0585    1.0344 C   0  0  0  0  0  0  0  0  0  0  0  0
    5.2959   -4.5733    1.4829 C   0  0  1  0  0  0  0  0  0  0  0  0
    6.4290   -3.0431   -1.5164 H   0  0  0  0  0  0  0  0  0  0  0  0
    4.7680   -2.8896   -1.0229 H   0  0  0  0  0  0  0  0  0  0  0  0
    5.4576   -4.4828   -1.2831 H   0  0  0  0  0  0  0  0  0  0  0  0
    7.9708   -4.0833    1.6517 H   0  0  0  0  0  0  0  0  0  0  0  0
    8.2534   -3.1391    0.1997 H   0  0  0  0  0  0  0  0  0  0  0  0
    7.8536   -4.8264    0.0680 H   0  0  0  0  0  0  0  0  0  0  0  0
    6.5843   -2.1521    2.1889 H   0  0  0  0  0  0  0  0  0  0  0  0
    6.8675   -0.3873    1.0013 H   0  0  0  0  0  0  0  0  0  0  0  0
    4.6563   -0.7319    2.1314 H   0  0  0  0  0  0  0  0  0  0  0  0
    4.0672   -1.4186    0.6607 H   0  0  0  0  0  0  0  0  0  0  0  0
    4.4140   -2.7305    3.3676 H   0  0  0  0  0  0  0  0  0  0  0  0
    2.8769   -2.3392    2.6498 H   0  0  0  0  0  0  0  0  0  0  0  0
    3.2387   -4.7118   -0.2534 H   0  0  0  0  0  0  0  0  0  0  0  0
    2.8690   -3.0666    0.1219 H   0  0  0  0  0  0  0  0  0  0  0  0
    1.8628   -4.2952    0.7593 H   0  0  0  0  0  0  0  0  0  0  0  0
    2.2682   -4.4186    3.1945 H   0  0  0  0  0  0  0  0  0  0  0  0
    3.7682   -4.0979    4.7199 H   0  0  0  0  0  0  0  0  0  0  0  0
    3.1337   -5.5908    5.0919 H   0  0  0  0  0  0  0  0  0  0  0  0
    6.5175   -7.1406    4.8000 H   0  0  0  0  0  0  0  0  0  0  0  0
    5.2947   -8.8822    5.8735 H   0  0  0  0  0  0  0  0  0  0  0  0
    4.9785   -7.3768    6.6407 H   0  0  0  0  0  0  0  0  0  0  0  0
    3.0655   -9.0578    6.0918 H   0  0  0  0  0  0  0  0  0  0  0  0
    2.7922   -7.3736    6.1036 H   0  0  0  0  0  0  0  0  0  0  0  0
    2.2426   -9.2043    4.1688 H   0  0  0  0  0  0  0  0  0  0  0  0
   -0.8906   -6.6763    3.1168 H   0  0  0  0  0  0  0  0  0  0  0  0
   -1.3450   -8.2567    3.7756 H   0  0  0  0  0  0  0  0  0  0  0  0
   -0.6863   -6.2967    5.5345 H   0  0  0  0  0  0  0  0  0  0  0  0
    0.0899   -7.8786    5.7489 H   0  0  0  0  0  0  0  0  0  0  0  0
    1.2128   -5.8204    2.2145 H   0  0  0  0  0  0  0  0  0  0  0  0
    1.4722   -7.6137    0.9687 H   0  0  0  0  0  0  0  0  0  0  0  0
    2.6739   -6.6422    0.4106 H   0  0  0  0  0  0  0  0  0  0  0  0
    2.7273   -9.2704    1.2406 H   0  0  0  0  0  0  0  0  0  0  0  0
    4.1297   -8.4674    0.7729 H   0  0  0  0  0  0  0  0  0  0  0  0
    4.7065  -10.5985    2.2395 H   0  0  0  0  0  0  0  0  0  0  0  0
    3.0870  -10.6867    2.8124 H   0  0  0  0  0  0  0  0  0  0  0  0
    4.3528  -10.5661    3.9778 H   0  0  0  0  0  0  0  0  0  0  0  0
    6.6455   -9.6731    2.5136 H   0  0  0  0  0  0  0  0  0  0  0  0
    6.3126   -9.7168    4.2227 H   0  0  0  0  0  0  0  0  0  0  0  0
    7.4684   -8.5990    3.5982 H   0  0  0  0  0  0  0  0  0  0  0  0
    6.9945   -6.6973    2.3848 H   0  0  0  0  0  0  0  0  0  0  0  0
    6.4293   -7.8849    1.2891 H   0  0  0  0  0  0  0  0  0  0  0  0
    6.1834   -6.0512    0.2209 H   0  0  0  0  0  0  0  0  0  0  0  0
    4.6362   -6.3974    0.4558 H   0  0  0  0  0  0  0  0  0  0  0  0
    5.8517   -4.5015    2.4051 H   0  0  0  0  0  0  0  0  0  0  0  0
  1  2  1  0
  1 33  1  0
  1 34  1  0
  1 35  1  0
  2 32  1  0
  2  3  1  0
  2  4  1  0
  3 36  1  0
  3 37  1  0
  3 38  1  0
  4  5  1  0
  4  6  1  0
  4 39  1  1
  5 40  1  0
  6  7  1  0
  6 41  1  0
  6 42  1  0
  7  8  1  0
  7 43  1  0
  7 44  1  0
  8 32  1  0
  8  9  1  6
  8 10  1  0
  9 45  1  0
  9 46  1  0
  9 47  1  0
 10 23  1  0
 10 11  1  0
 10 48  1  1
 11 12  1  0
 11 49  1  0
 11 50  1  0
 12 13  2  0
 12 14  1  0
 14 28  1  0
 14 15  1  0
 14 51  1  1
 15 16  1  0
 15 52  1  0
 15 53  1  0
 16 17  1  0
 16 54  1  0
 16 55  1  0
 17 26  1  0
 17 18  1  0
 17 56  1  1
 18 22  1  0
 18 19  1  0
 18 23  1  0
 19 20  1  0
 20 21  1  0
 20 57  1  0
 20 58  1  0
 21 22  1  0
 21 59  1  0
 21 60  1  0
 23 24  1  0
 23 61  1  6
 24 25  1  0
 24 62  1  0
 24 63  1  0
 25 26  1  0
 25 64  1  0
 25 65  1  0
 26 27  1  6
 26 28  1  0
 27 66  1  0
 27 67  1  0
 27 68  1  0
 28 29  1  1
 28 30  1  0
 29 69  1  0
 29 70  1  0
 29 71  1  0
 30 31  1  0
 30 72  1  0
 30 73  1  0
 31 32  1  0
 31 74  1  0
 31 75  1  0
 32 76  1  1
M  END
>  <i_m_ct_stereo_status>  (219) 
1

>  <s_m_source_file>  (219) 
/var/tmp/pbs.5076255.sched01/tmp2672eyar/80wl2hclo4.sdf

>  <i_m_source_file_index>  (219) 
7

>  <i_lp_mmshare_version>  (219) 
48012

>  <i_f3d_flags>  (219) 
0

>  <s_epik_input>  (219) 
W0NIMl0xW0NIMl1bQ0BIXShbT0hdKUMoW0NIM10pKFtDSDNdKVtDQEhdKFtDSDJdW0NIMl0yKVtDQEBdMShbQ0gzXSlbQ0BASF0oW0NASF0zW0NIMl1bQ0gyXTQpW0NIMl1DKD1PKVtDQEBIXShbQ0gyXVtDSDJdNSlbQ0BAXTIoW0NIM10pW0NAQF00KFtDSDNdKVtDQEBIXTVDMzZPW0NIMl1bQ0gyXU82

>  <s_epik_cmdline>  (219) 
J2VwaWtfcHl0aG9uJywgJy1waHQnLCAnMi4wJywgJy1waCcsICc3LjAnLCAnLXRuJywgJzgnLCAnLW1hJywgJzIwMCcsICctaW1hZScsICc8aW5maWxlLm1hZT4nLCAnLW9tYWUnLCAnPG91dGZpbGUubWFlPic=

>  <r_lp_tautomer_probability>  (219) 
1

>  <r_epik_Ionization_Penalty>  (219) 
2.62967e-06

>  <r_epik_Ionization_Penalty_Charging>  (219) 
0

>  <r_epik_Ionization_Penalty_Neutral>  (219) 
2.62967e-06

>  <r_epik_State_Penalty>  (219) 
-0

>  <r_epik_Charging_Adjusted_Penalty>  (219) 
0

>  <i_epik_Tot_Q>  (219) 
0

>  <i_epik_Tot_abs_Q>  (219) 
0

>  <s_lp_Force_Field>  (219) 
OPLS3e

>  <r_lp_Energy>  (219) 
143.884

>  <b_lp_Chiralities_Consistent>  (219) 
1

>  <s_lp_Variant>  (219) 
64:0-1

>  <s_i_glide_gridfile>  (219) 
pfpi4k_grid

>  <i_i_glide_lignum>  (219) 
7

>  <i_i_glide_rotatable_bonds>  (219) 
1

>  <r_i_docking_score>  (219) 
-3.03054

>  <r_i_glide_ligand_efficiency>  (219) 
-0.0947043

>  <r_i_glide_ligand_efficiency_sa>  (219) 
-0.300668

>  <r_i_glide_ligand_efficiency_ln>  (219) 
-0.67862

>  <r_i_glide_gscore>  (219) 
-3.03054

>  <r_i_glide_lipo>  (219) 
-0.686702

>  <r_i_glide_hbond>  (219) 
-0.248144

>  <r_i_glide_metal>  (219) 
-0

>  <r_i_glide_rewards>  (219) 
-0.37741

>  <r_i_glide_evdw>  (219) 
-27.9168

>  <r_i_glide_ecoul>  (219) 
-2.09704

>  <r_i_glide_erotb>  (219) 
0

>  <r_i_glide_esite>  (219) 
-0.00788892

>  <r_i_glide_emodel>  (219) 
-35.4055

>  <r_i_glide_energy>  (219) 
-30.0138

>  <r_i_glide_einternal>  (219) 
0.5483

>  <r_i_glide_intrahb_reward>  (219) 
-0

>  <i_i_glide_confnum>  (219) 
4

>  <i_i_glide_posenum>  (219) 
40

>  <r_i_glide_eff_state_penalty>  (219) 
0

>  <ligand_id>  (219) 
64

>  <original_smiles>  (219) 
CC1(C)C(O)CCC2(C)C3CC(=O)C4CCC5C6(OCCO6)C3CCC5(C)C4(C)CCC12

>  <smiles>  (219) 
[H]OC1([H])C([H])([H])C([H])([H])C2(C([H])([H])[H])C3([H])C([H])([H])C(=O)C4([H])C([H])([H])C([H])([H])C5([H])C6(OC([H])([H])C([H])([H])O6)C3([H])C([H])([H])C([H])([H])C5(C([H])([H])[H])C4(C([H])([H])[H])C([H])([H])C([H])([H])C2([H])C1(C([H])([H])[H])C([H])([H])[H]

$$$$
64:0:1
     RDKit          3D

 76 81  0  0  1  0  0  0  0  0999 V2000
    5.3818   -3.4823   -1.4771 C   0  0  0  0  0  0  0  0  0  0  0  0
    5.6249   -3.0027   -0.0165 C   0  0  0  0  0  0  0  0  0  0  0  0
    7.1624   -2.9952    0.2183 C   0  0  0  0  0  0  0  0  0  0  0  0
    5.1565   -1.5272    0.1820 C   0  0  1  0  0  0  0  0  0  0  0  0
    5.6337   -0.6653   -0.8350 O   0  0  0  0  0  0  0  0  0  0  0  0
    3.6412   -1.3750    0.2503 C   0  0  0  0  0  0  0  0  0  0  0  0
    3.0330   -2.2949    1.3208 C   0  0  0  0  0  0  0  0  0  0  0  0
    3.3591   -3.8158    1.1810 C   0  0  2  0  0  0  0  0  0  0  0  0
    2.6389   -4.2940   -0.1244 C   0  0  0  0  0  0  0  0  0  0  0  0
    2.7102   -4.5640    2.4502 C   0  0  2  0  0  0  0  0  0  0  0  0
    3.1668   -4.0377    3.8543 C   0  0  0  0  0  0  0  0  0  0  0  0
    4.6183   -4.1432    4.2952 C   0  0  0  0  0  0  0  0  0  0  0  0
    5.2863   -3.1089    4.3742 O   0  0  0  0  0  0  0  0  0  0  0  0
    5.2363   -5.4644    4.7616 C   0  0  1  0  0  0  0  0  0  0  0  0
    4.6110   -6.0045    6.0597 C   0  0  0  0  0  0  0  0  0  0  0  0
    3.2344   -6.6251    5.8648 C   0  0  0  0  0  0  0  0  0  0  0  0
    3.0090   -7.2943    4.4790 C   0  0  1  0  0  0  0  0  0  0  0  0
    1.7467   -6.7157    3.6795 C   0  0  0  0  0  0  0  0  0  0  0  0
    0.9351   -7.8280    3.3885 O   0  0  0  0  0  0  0  0  0  0  0  0
   -0.3935   -7.4874    3.6800 C   0  0  0  0  0  0  0  0  0  0  0  0
   -0.1895   -6.5621    4.8555 C   0  0  0  0  0  0  0  0  0  0  0  0
    0.9404   -5.8660    4.4301 O   0  0  0  0  0  0  0  0  0  0  0  0
    2.1200   -6.0480    2.3338 C   0  0  2  0  0  0  0  0  0  0  0  0
    2.7590   -7.1386    1.4699 C   0  0  0  0  0  0  0  0  0  0  0  0
    3.8602   -7.9868    2.1185 C   0  0  0  0  0  0  0  0  0  0  0  0
    4.2735   -7.6427    3.5769 C   0  0  2  0  0  0  0  0  0  0  0  0
    4.7209   -9.0490    4.1098 C   0  0  0  0  0  0  0  0  0  0  0  0
    5.5060   -6.5803    3.7002 C   0  0  2  0  0  0  0  0  0  0  0  0
    6.7883   -7.2746    4.3000 C   0  0  0  0  0  0  0  0  0  0  0  0
    6.1683   -5.9864    2.3709 C   0  0  0  0  0  0  0  0  0  0  0  0
    5.4780   -5.3982    1.0952 C   0  0  0  0  0  0  0  0  0  0  0  0
    4.9349   -3.9330    1.0688 C   0  0  1  0  0  0  0  0  0  0  0  0
    6.1074   -3.0574   -2.1652 H   0  0  0  0  0  0  0  0  0  0  0  0
    4.4018   -3.1817   -1.8517 H   0  0  0  0  0  0  0  0  0  0  0  0
    5.4331   -4.5659   -1.5759 H   0  0  0  0  0  0  0  0  0  0  0  0
    7.3928   -2.7789    1.2628 H   0  0  0  0  0  0  0  0  0  0  0  0
    7.6609   -2.2344   -0.3822 H   0  0  0  0  0  0  0  0  0  0  0  0
    7.6516   -3.9346   -0.0333 H   0  0  0  0  0  0  0  0  0  0  0  0
    5.5644   -1.1690    1.1255 H   0  0  0  0  0  0  0  0  0  0  0  0
    5.3704    0.2381   -0.6612 H   0  0  0  0  0  0  0  0  0  0  0  0
    3.3969   -0.3441    0.5049 H   0  0  0  0  0  0  0  0  0  0  0  0
    3.1855   -1.5313   -0.7261 H   0  0  0  0  0  0  0  0  0  0  0  0
    3.4266   -1.9212    2.2606 H   0  0  0  0  0  0  0  0  0  0  0  0
    1.9558   -2.1264    1.3517 H   0  0  0  0  0  0  0  0  0  0  0  0
    3.2231   -5.0254   -0.6745 H   0  0  0  0  0  0  0  0  0  0  0  0
    2.4457   -3.4940   -0.8366 H   0  0  0  0  0  0  0  0  0  0  0  0
    1.6597   -4.7310    0.0524 H   0  0  0  0  0  0  0  0  0  0  0  0
    1.7399   -4.0669    2.4530 H   0  0  0  0  0  0  0  0  0  0  0  0
    2.9138   -2.9804    3.9059 H   0  0  0  0  0  0  0  0  0  0  0  0
    2.5757   -4.4194    4.6647 H   0  0  0  0  0  0  0  0  0  0  0  0
    6.2168   -5.1120    5.0760 H   0  0  0  0  0  0  0  0  0  0  0  0
    5.2606   -6.7386    6.5337 H   0  0  0  0  0  0  0  0  0  0  0  0
    4.5276   -5.2048    6.7952 H   0  0  0  0  0  0  0  0  0  0  0  0
    3.1127   -7.3854    6.6439 H   0  0  0  0  0  0  0  0  0  0  0  0
    2.4864   -5.8840    6.1362 H   0  0  0  0  0  0  0  0  0  0  0  0
    2.6098   -8.2527    4.8022 H   0  0  0  0  0  0  0  0  0  0  0  0
   -0.8188   -6.9582    2.8339 H   0  0  0  0  0  0  0  0  0  0  0  0
   -1.0134   -8.3567    3.9008 H   0  0  0  0  0  0  0  0  0  0  0  0
   -1.0311   -5.8975    5.0444 H   0  0  0  0  0  0  0  0  0  0  0  0
    0.0352   -7.1170    5.7652 H   0  0  0  0  0  0  0  0  0  0  0  0
    1.1564   -5.9001    1.8583 H   0  0  0  0  0  0  0  0  0  0  0  0
    1.9598   -7.8444    1.2217 H   0  0  0  0  0  0  0  0  0  0  0  0
    2.9976   -6.7962    0.4797 H   0  0  0  0  0  0  0  0  0  0  0  0
    3.4896   -9.0055    2.0636 H   0  0  0  0  0  0  0  0  0  0  0  0
    4.7363   -8.0403    1.4721 H   0  0  0  0  0  0  0  0  0  0  0  0
    5.5532   -9.4736    3.5494 H   0  0  0  0  0  0  0  0  0  0  0  0
    3.9255   -9.7930    4.0129 H   0  0  0  0  0  0  0  0  0  0  0  0
    4.9664   -9.0523    5.1692 H   0  0  0  0  0  0  0  0  0  0  0  0
    7.1933   -8.0647    3.6655 H   0  0  0  0  0  0  0  0  0  0  0  0
    6.6481   -7.7182    5.2818 H   0  0  0  0  0  0  0  0  0  0  0  0
    7.6100   -6.5676    4.4336 H   0  0  0  0  0  0  0  0  0  0  0  0
    6.9120   -5.2491    2.6764 H   0  0  0  0  0  0  0  0  0  0  0  0
    6.7680   -6.7939    1.9516 H   0  0  0  0  0  0  0  0  0  0  0  0
    6.2831   -5.4427    0.3675 H   0  0  0  0  0  0  0  0  0  0  0  0
    4.8294   -6.0762    0.5924 H   0  0  0  0  0  0  0  0  0  0  0  0
    5.3330   -3.4836    1.9615 H   0  0  0  0  0  0  0  0  0  0  0  0
  1  2  1  0
  1 33  1  0
  1 34  1  0
  1 35  1  0
  2 32  1  0
  2  3  1  0
  2  4  1  0
  3 36  1  0
  3 37  1  0
  3 38  1  0
  4  5  1  0
  4  6  1  0
  4 39  1  1
  5 40  1  0
  6  7  1  0
  6 41  1  0
  6 42  1  0
  7  8  1  0
  7 43  1  0
  7 44  1  0
  8 32  1  0
  8  9  1  6
  8 10  1  0
  9 45  1  0
  9 46  1  0
  9 47  1  0
 10 23  1  0
 10 11  1  0
 10 48  1  1
 11 12  1  0
 11 49  1  0
 11 50  1  0
 12 13  2  0
 12 14  1  0
 14 28  1  0
 14 15  1  0
 14 51  1  1
 15 16  1  0
 15 52  1  0
 15 53  1  0
 16 17  1  0
 16 54  1  0
 16 55  1  0
 17 26  1  0
 17 18  1  0
 17 56  1  1
 18 22  1  0
 18 19  1  0
 18 23  1  0
 19 20  1  0
 20 21  1  0
 20 57  1  0
 20 58  1  0
 21 22  1  0
 21 59  1  0
 21 60  1  0
 23 24  1  0
 23 61  1  6
 24 25  1  0
 24 62  1  0
 24 63  1  0
 25 26  1  0
 25 64  1  0
 25 65  1  0
 26 27  1  1
 26 28  1  0
 27 66  1  0
 27 67  1  0
 27 68  1  0
 28 29  1  1
 28 30  1  0
 29 69  1  0
 29 70  1  0
 29 71  1  0
 30 31  1  0
 30 72  1  0
 30 73  1  0
 31 32  1  0
 31 74  1  0
 31 75  1  0
 32 76  1  1
M  END
>  <i_m_ct_stereo_status>  (220) 
1

>  <s_m_source_file>  (220) 
/var/tmp/pbs.5076255.sched01/tmp2672eyar/80wl2hclo4.sdf

>  <i_m_source_file_index>  (220) 
7

>  <i_lp_mmshare_version>  (220) 
48012

>  <i_f3d_flags>  (220) 
0

>  <s_epik_input>  (220) 
W0NIMl0xW0NIMl1bQ0BIXShbT0hdKUMoW0NIM10pKFtDSDNdKVtDQEhdKFtDSDJdW0NIMl0yKVtDQEBdMShbQ0gzXSlbQ0BASF0oW0NASF0zW0NIMl1bQ0gyXTQpW0NIMl1DKD1PKVtDQEBIXShbQ0gyXVtDSDJdNSlbQ0BAXTIoW0NIM10pW0NAQF00KFtDSDNdKVtDQEBIXTVDMzZPW0NIMl1bQ0gyXU82

>  <s_epik_cmdline>  (220) 
J2VwaWtfcHl0aG9uJywgJy1waHQnLCAnMi4wJywgJy1waCcsICc3LjAnLCAnLXRuJywgJzgnLCAnLW1hJywgJzIwMCcsICctaW1hZScsICc8aW5maWxlLm1hZT4nLCAnLW9tYWUnLCAnPG91dGZpbGUubWFlPic=

>  <r_lp_tautomer_probability>  (220) 
1

>  <r_epik_Ionization_Penalty>  (220) 
2.62967e-06

>  <r_epik_Ionization_Penalty_Charging>  (220) 
0

>  <r_epik_Ionization_Penalty_Neutral>  (220) 
2.62967e-06

>  <r_epik_State_Penalty>  (220) 
-0

>  <r_epik_Charging_Adjusted_Penalty>  (220) 
0

>  <i_epik_Tot_Q>  (220) 
0

>  <i_epik_Tot_abs_Q>  (220) 
0

>  <s_lp_Force_Field>  (220) 
OPLS3e

>  <r_lp_Energy>  (220) 
143.884

>  <b_lp_Chiralities_Consistent>  (220) 
1

>  <s_lp_Variant>  (220) 
64:0-1

>  <s_i_glide_gridfile>  (220) 
pfpi4k_grid

>  <i_i_glide_lignum>  (220) 
7

>  <i_i_glide_rotatable_bonds>  (220) 
1

>  <r_i_docking_score>  (220) 
-2.99492

>  <r_i_glide_ligand_efficiency>  (220) 
-0.0935912

>  <r_i_glide_ligand_efficiency_sa>  (220) 
-0.297133

>  <r_i_glide_ligand_efficiency_ln>  (220) 
-0.670644

>  <r_i_glide_gscore>  (220) 
-2.99492

>  <r_i_glide_lipo>  (220) 
-0.430221

>  <r_i_glide_hbond>  (220) 
-0.315979

>  <r_i_glide_metal>  (220) 
-0

>  <r_i_glide_rewards>  (220) 
-0.384207

>  <r_i_glide_evdw>  (220) 
-25.5637

>  <r_i_glide_ecoul>  (220) 
-3.86133

>  <r_i_glide_erotb>  (220) 
0

>  <r_i_glide_esite>  (220) 
-0.00712414

>  <r_i_glide_emodel>  (220) 
-34.9526

>  <r_i_glide_energy>  (220) 
-29.4251

>  <r_i_glide_einternal>  (220) 
0.330035

>  <r_i_glide_intrahb_reward>  (220) 
-0

>  <i_i_glide_confnum>  (220) 
4

>  <i_i_glide_posenum>  (220) 
10

>  <r_i_glide_eff_state_penalty>  (220) 
0

>  <ligand_id>  (220) 
64

>  <original_smiles>  (220) 
CC1(C)C(O)CCC2(C)C3CC(=O)C4CCC5C6(OCCO6)C3CCC5(C)C4(C)CCC12

>  <smiles>  (220) 
[H]OC1([H])C([H])([H])C([H])([H])C2(C([H])([H])[H])C3([H])C([H])([H])C(=O)C4([H])C([H])([H])C([H])([H])C5([H])C6(OC([H])([H])C([H])([H])O6)C3([H])C([H])([H])C([H])([H])C5(C([H])([H])[H])C4(C([H])([H])[H])C([H])([H])C([H])([H])C2([H])C1(C([H])([H])[H])C([H])([H])[H]

$$$$
64:0:2
     RDKit          3D

 76 81  0  0  1  0  0  0  0  0999 V2000
    3.7991   -2.1473   -0.5607 C   0  0  0  0  0  0  0  0  0  0  0  0
    4.9899   -2.8343    0.1579 C   0  0  0  0  0  0  0  0  0  0  0  0
    5.9150   -3.4501   -0.9297 C   0  0  0  0  0  0  0  0  0  0  0  0
    5.8671   -1.7827    0.9063 C   0  0  1  0  0  0  0  0  0  0  0  0
    6.1928   -0.6764    0.0814 O   0  0  0  0  0  0  0  0  0  0  0  0
    5.2371   -1.2535    2.1969 C   0  0  0  0  0  0  0  0  0  0  0  0
    4.8335   -2.4051    3.1302 C   0  0  0  0  0  0  0  0  0  0  0  0
    3.8647   -3.4754    2.5232 C   0  0  2  0  0  0  0  0  0  0  0  0
    2.5099   -2.7433    2.2763 C   0  0  0  0  0  0  0  0  0  0  0  0
    3.6681   -4.6230    3.6275 C   0  0  2  0  0  0  0  0  0  0  0  0
    4.9733   -5.3068    4.1607 C   0  0  0  0  0  0  0  0  0  0  0  0
    5.8686   -6.1139    3.2254 C   0  0  0  0  0  0  0  0  0  0  0  0
    6.9602   -5.6492    2.8946 O   0  0  0  0  0  0  0  0  0  0  0  0
    5.5009   -7.5287    2.7678 C   0  0  1  0  0  0  0  0  0  0  0  0
    5.4628   -8.5519    3.9154 C   0  0  0  0  0  0  0  0  0  0  0  0
    4.2273   -8.4377    4.7958 C   0  0  0  0  0  0  0  0  0  0  0  0
    2.9437   -7.9296    4.0706 C   0  0  1  0  0  0  0  0  0  0  0  0
    2.2911   -6.6452    4.7214 C   0  0  0  0  0  0  0  0  0  0  0  0
    0.9576   -6.9679    5.0059 O   0  0  0  0  0  0  0  0  0  0  0  0
    0.6727   -6.5015    6.3003 C   0  0  0  0  0  0  0  0  0  0  0  0
    2.0173   -6.6802    6.9701 C   0  0  0  0  0  0  0  0  0  0  0  0
    2.8768   -6.2825    5.9323 O   0  0  0  0  0  0  0  0  0  0  0  0
    2.2810   -5.4108    3.7789 C   0  0  2  0  0  0  0  0  0  0  0  0
    1.4047   -5.8056    2.5801 C   0  0  0  0  0  0  0  0  0  0  0  0
    1.7144   -7.1493    1.9058 C   0  0  0  0  0  0  0  0  0  0  0  0
    2.9008   -7.9874    2.4725 C   0  0  2  0  0  0  0  0  0  0  0  0
    2.4195   -9.4492    2.1690 C   0  0  0  0  0  0  0  0  0  0  0  0
    4.3324   -7.6990    1.7409 C   0  0  2  0  0  0  0  0  0  0  0  0
    4.8097   -8.9669    0.9376 C   0  0  0  0  0  0  0  0  0  0  0  0
    4.4231   -6.6163    0.5697 C   0  0  0  0  0  0  0  0  0  0  0  0
    3.8270   -5.1755    0.4957 C   0  0  0  0  0  0  0  0  0  0  0  0
    4.5434   -3.9698    1.1740 C   0  0  1  0  0  0  0  0  0  0  0  0
    4.1226   -1.6252   -1.4619 H   0  0  0  0  0  0  0  0  0  0  0  0
    3.3095   -1.4011    0.0612 H   0  0  0  0  0  0  0  0  0  0  0  0
    3.0363   -2.8613   -0.8689 H   0  0  0  0  0  0  0  0  0  0  0  0
    6.7120   -4.0394   -0.4745 H   0  0  0  0  0  0  0  0  0  0  0  0
    6.3935   -2.6802   -1.5361 H   0  0  0  0  0  0  0  0  0  0  0  0
    5.3891   -4.0928   -1.6341 H   0  0  0  0  0  0  0  0  0  0  0  0
    6.8087   -2.2618    1.1815 H   0  0  0  0  0  0  0  0  0  0  0  0
    5.4058   -0.1602   -0.0474 H   0  0  0  0  0  0  0  0  0  0  0  0
    5.9712   -0.6317    2.7115 H   0  0  0  0  0  0  0  0  0  0  0  0
    4.4049   -0.5872    1.9818 H   0  0  0  0  0  0  0  0  0  0  0  0
    5.7706   -2.8758    3.4127 H   0  0  0  0  0  0  0  0  0  0  0  0
    4.4160   -1.9852    4.0471 H   0  0  0  0  0  0  0  0  0  0  0  0
    2.0149   -3.0799    1.3681 H   0  0  0  0  0  0  0  0  0  0  0  0
    2.6084   -1.6679    2.1584 H   0  0  0  0  0  0  0  0  0  0  0  0
    1.8081   -2.8508    3.1041 H   0  0  0  0  0  0  0  0  0  0  0  0
    3.5120   -3.9833    4.4989 H   0  0  0  0  0  0  0  0  0  0  0  0
    5.6076   -4.5283    4.5793 H   0  0  0  0  0  0  0  0  0  0  0  0
    4.8068   -5.9171    5.0317 H   0  0  0  0  0  0  0  0  0  0  0  0
    6.4082   -7.7881    2.2257 H   0  0  0  0  0  0  0  0  0  0  0  0
    5.5298   -9.5697    3.5326 H   0  0  0  0  0  0  0  0  0  0  0  0
    6.3492   -8.4443    4.5408 H   0  0  0  0  0  0  0  0  0  0  0  0
    4.0321   -9.4327    5.2029 H   0  0  0  0  0  0  0  0  0  0  0  0
    4.4938   -7.8612    5.6789 H   0  0  0  0  0  0  0  0  0  0  0  0
    2.2434   -8.6960    4.3999 H   0  0  0  0  0  0  0  0  0  0  0  0
    0.3953   -5.4521    6.2520 H   0  0  0  0  0  0  0  0  0  0  0  0
   -0.1343   -7.0598    6.7731 H   0  0  0  0  0  0  0  0  0  0  0  0
    2.1432   -6.0708    7.8658 H   0  0  0  0  0  0  0  0  0  0  0  0
    2.1976   -7.7231    7.2225 H   0  0  0  0  0  0  0  0  0  0  0  0
    1.6426   -4.6966    4.3019 H   0  0  0  0  0  0  0  0  0  0  0  0
    0.3830   -5.8873    2.9502 H   0  0  0  0  0  0  0  0  0  0  0  0
    1.2686   -5.0014    1.8799 H   0  0  0  0  0  0  0  0  0  0  0  0
    0.7882   -7.7148    1.9971 H   0  0  0  0  0  0  0  0  0  0  0  0
    1.8029   -7.0392    0.8314 H   0  0  0  0  0  0  0  0  0  0  0  0
    2.2729   -9.6385    1.1053 H   0  0  0  0  0  0  0  0  0  0  0  0
    1.4493   -9.6629    2.6185 H   0  0  0  0  0  0  0  0  0  0  0  0
    3.0841  -10.2119    2.5734 H   0  0  0  0  0  0  0  0  0  0  0  0
    4.1485   -9.2288    0.1120 H   0  0  0  0  0  0  0  0  0  0  0  0
    4.9214   -9.8693    1.5339 H   0  0  0  0  0  0  0  0  0  0  0  0
    5.7901   -8.8178    0.4854 H   0  0  0  0  0  0  0  0  0  0  0  0
    5.4730   -6.5253    0.2876 H   0  0  0  0  0  0  0  0  0  0  0  0
    3.9733   -7.0772   -0.3059 H   0  0  0  0  0  0  0  0  0  0  0  0
    3.8430   -4.9837   -0.5713 H   0  0  0  0  0  0  0  0  0  0  0  0
    2.7675   -5.1279    0.6073 H   0  0  0  0  0  0  0  0  0  0  0  0
    5.5142   -4.3505    1.4479 H   0  0  0  0  0  0  0  0  0  0  0  0
  1  2  1  0
  1 33  1  0
  1 34  1  0
  1 35  1  0
  2 32  1  0
  2  3  1  0
  2  4  1  0
  3 36  1  0
  3 37  1  0
  3 38  1  0
  4  5  1  0
  4  6  1  0
  4 39  1  1
  5 40  1  0
  6  7  1  0
  6 41  1  0
  6 42  1  0
  7  8  1  0
  7 43  1  0
  7 44  1  0
  8 32  1  0
  8  9  1  6
  8 10  1  0
  9 45  1  0
  9 46  1  0
  9 47  1  0
 10 23  1  0
 10 11  1  0
 10 48  1  1
 11 12  1  0
 11 49  1  0
 11 50  1  0
 12 13  2  0
 12 14  1  0
 14 28  1  0
 14 15  1  0
 14 51  1  6
 15 16  1  0
 15 52  1  0
 15 53  1  0
 16 17  1  0
 16 54  1  0
 16 55  1  0
 17 26  1  0
 17 18  1  0
 17 56  1  1
 18 22  1  0
 18 19  1  0
 18 23  1  0
 19 20  1  0
 20 21  1  0
 20 57  1  0
 20 58  1  0
 21 22  1  0
 21 59  1  0
 21 60  1  0
 23 24  1  0
 23 61  1  1
 24 25  1  0
 24 62  1  0
 24 63  1  0
 25 26  1  0
 25 64  1  0
 25 65  1  0
 26 27  1  1
 26 28  1  0
 27 66  1  0
 27 67  1  0
 27 68  1  0
 28 29  1  6
 28 30  1  0
 29 69  1  0
 29 70  1  0
 29 71  1  0
 30 31  1  0
 30 72  1  0
 30 73  1  0
 31 32  1  0
 31 74  1  0
 31 75  1  0
 32 76  1  1
M  END
>  <i_m_ct_stereo_status>  (221) 
1

>  <s_m_source_file>  (221) 
/var/tmp/pbs.5076255.sched01/tmp2672eyar/80wl2hclo4.sdf

>  <i_m_source_file_index>  (221) 
7

>  <i_lp_mmshare_version>  (221) 
48012

>  <i_f3d_flags>  (221) 
0

>  <s_epik_input>  (221) 
W0NIMl0xW0NIMl1bQ0BIXShbT0hdKUMoW0NIM10pKFtDSDNdKVtDQEhdKFtDSDJdW0NIMl0yKVtDQEBdMShbQ0gzXSlbQ0BASF0oW0NASF0zW0NIMl1bQ0gyXTQpW0NIMl1DKD1PKVtDQEBIXShbQ0gyXVtDSDJdNSlbQ0BAXTIoW0NIM10pW0NAQF00KFtDSDNdKVtDQEBIXTVDMzZPW0NIMl1bQ0gyXU82

>  <s_epik_cmdline>  (221) 
J2VwaWtfcHl0aG9uJywgJy1waHQnLCAnMi4wJywgJy1waCcsICc3LjAnLCAnLXRuJywgJzgnLCAnLW1hJywgJzIwMCcsICctaW1hZScsICc8aW5maWxlLm1hZT4nLCAnLW9tYWUnLCAnPG91dGZpbGUubWFlPic=

>  <r_lp_tautomer_probability>  (221) 
1

>  <r_epik_Ionization_Penalty>  (221) 
2.62967e-06

>  <r_epik_Ionization_Penalty_Charging>  (221) 
0

>  <r_epik_Ionization_Penalty_Neutral>  (221) 
2.62967e-06

>  <r_epik_State_Penalty>  (221) 
-0

>  <r_epik_Charging_Adjusted_Penalty>  (221) 
0

>  <i_epik_Tot_Q>  (221) 
0

>  <i_epik_Tot_abs_Q>  (221) 
0

>  <s_lp_Force_Field>  (221) 
OPLS3e

>  <r_lp_Energy>  (221) 
143.884

>  <b_lp_Chiralities_Consistent>  (221) 
1

>  <s_lp_Variant>  (221) 
64:0-1

>  <s_i_glide_gridfile>  (221) 
pfpi4k_grid

>  <i_i_glide_lignum>  (221) 
7

>  <i_i_glide_rotatable_bonds>  (221) 
1

>  <r_i_docking_score>  (221) 
-2.68356

>  <r_i_glide_ligand_efficiency>  (221) 
-0.0838611

>  <r_i_glide_ligand_efficiency_sa>  (221) 
-0.266243

>  <r_i_glide_ligand_efficiency_ln>  (221) 
-0.600921

>  <r_i_glide_gscore>  (221) 
-2.68356

>  <r_i_glide_lipo>  (221) 
-0.613024

>  <r_i_glide_hbond>  (221) 
-0.0206397

>  <r_i_glide_metal>  (221) 
-0

>  <r_i_glide_rewards>  (221) 
-0.382252

>  <r_i_glide_evdw>  (221) 
-28.8554

>  <r_i_glide_ecoul>  (221) 
-1.49915

>  <r_i_glide_erotb>  (221) 
0

>  <r_i_glide_esite>  (221) 
0

>  <r_i_glide_emodel>  (221) 
-35.4442

>  <r_i_glide_energy>  (221) 
-30.3545

>  <r_i_glide_einternal>  (221) 
0.0619044

>  <r_i_glide_intrahb_reward>  (221) 
-0

>  <i_i_glide_confnum>  (221) 
2

>  <i_i_glide_posenum>  (221) 
23

>  <r_i_glide_eff_state_penalty>  (221) 
0

>  <ligand_id>  (221) 
64

>  <original_smiles>  (221) 
CC1(C)C(O)CCC2(C)C3CC(=O)C4CCC5C6(OCCO6)C3CCC5(C)C4(C)CCC12

>  <smiles>  (221) 
[H]OC1([H])C([H])([H])C([H])([H])C2(C([H])([H])[H])C3([H])C([H])([H])C(=O)C4([H])C([H])([H])C([H])([H])C5([H])C6(OC([H])([H])C([H])([H])O6)C3([H])C([H])([H])C([H])([H])C5(C([H])([H])[H])C4(C([H])([H])[H])C([H])([H])C([H])([H])C2([H])C1(C([H])([H])[H])C([H])([H])[H]

$$$$
66:0:0
     RDKit          3D

 78 86  0  0  1  0  0  0  0  0999 V2000
    3.8536   -8.3476    1.9865 O   0  0  0  0  0  0  0  0  0  0  0  0
    3.6679   -8.5254    3.1934 C   0  0  0  0  0  0  0  0  0  0  0  0
    4.8089   -8.2538    4.1842 C   0  0  0  0  0  0  0  0  0  0  0  0
    6.0726   -7.6088    3.6431 C   0  0  0  0  0  0  0  0  0  0  0  0
    5.7640   -6.4761    2.7678 N   0  0  1  0  0  0  0  0  0  0  0  0
    5.2902   -5.2942    3.5295 C   0  0  0  0  0  0  0  0  0  0  0  0
    5.1169   -4.0764    2.6489 C   0  0  0  0  0  0  0  0  0  0  0  0
    5.5848   -4.0093    1.3878 C   0  0  0  0  0  0  0  0  0  0  0  0
    5.4170   -2.7784    0.6182 C   0  0  0  0  0  0  0  0  0  0  0  0
    5.6155   -1.5108    1.0840 C   0  0  0  0  0  0  0  0  0  0  0  0
    5.3447   -0.6474    0.0207 N   0  0  0  0  0  0  0  0  0  0  0  0
    4.9575   -1.3597   -1.1131 C   0  0  0  0  0  0  0  0  0  0  0  0
    4.5771   -0.9333   -2.3991 C   0  0  0  0  0  0  0  0  0  0  0  0
    4.2172   -1.8866   -3.3760 C   0  0  0  0  0  0  0  0  0  0  0  0
    4.2481   -3.2520   -3.0528 C   0  0  0  0  0  0  0  0  0  0  0  0
    4.6267   -3.6636   -1.7599 C   0  0  0  0  0  0  0  0  0  0  0  0
    4.9974   -2.7288   -0.7586 C   0  0  0  0  0  0  0  0  0  0  0  0
    6.3570   -5.1687    0.7695 C   0  0  0  0  0  0  0  0  0  0  0  0
    6.8536   -6.1625    1.8278 C   0  0  0  0  0  0  0  0  0  0  0  0
    2.4670   -8.8940    3.6961 N   0  0  0  0  0  0  0  0  0  0  0  0
    1.2407   -8.5536    3.0755 C   0  0  0  0  0  0  0  0  0  0  0  0
    0.9922   -7.5775    2.0843 C   0  0  0  0  0  0  0  0  0  0  0  0
   -0.3261   -7.4369    1.6060 C   0  0  0  0  0  0  0  0  0  0  0  0
   -1.3588   -8.2434    2.1195 C   0  0  0  0  0  0  0  0  0  0  0  0
   -1.0980   -9.1653    3.1417 C   0  0  0  0  0  0  0  0  0  0  0  0
    0.2091   -9.2951    3.6225 C   0  0  0  0  0  0  0  0  0  0  0  0
    0.6969  -10.1870    4.7434 C   0  0  2  0  0  0  0  0  0  0  0  0
    0.1830   -9.7497    6.1313 C   0  0  0  0  0  0  0  0  0  0  0  0
    1.3149   -8.8969    6.7315 C   0  0  1  0  0  0  0  0  0  0  0  0
    1.2266   -8.7954    8.2578 C   0  0  0  0  0  0  0  0  0  0  0  0
    1.4999   -9.8646    9.0901 N   0  0  0  0  0  0  0  0  0  0  0  0
    1.3819   -9.6278   10.4130 N   0  0  0  0  0  0  0  0  0  0  0  0
    1.0301   -8.3459   10.4551 C   0  0  0  0  0  0  0  0  0  0  0  0
    0.8954   -7.7986    9.1380 C   0  0  0  0  0  0  0  0  0  0  0  0
    0.5032   -6.4665    8.8115 N   0  0  0  0  0  0  0  0  0  0  0  0
    0.1134   -5.9371    7.5891 C   0  0  0  0  0  0  0  0  0  0  0  0
   -0.1350   -4.6064    7.7784 C   0  0  0  0  0  0  0  0  0  0  0  0
    0.0128   -4.2983    9.1230 N   0  0  0  0  0  0  0  0  0  0  0  0
    0.3962   -5.4479    9.6715 C   0  0  0  0  0  0  0  0  0  0  0  0
    2.5133   -9.4922    6.1390 N   0  0  0  0  0  0  0  0  0  0  0  0
    3.6758   -9.8479    6.7296 C   0  0  0  0  0  0  0  0  0  0  0  0
    4.1487   -9.3331    7.7497 O   0  0  0  0  0  0  0  0  0  0  0  0
    4.3390  -11.0220    6.0351 C   0  0  0  0  0  0  0  0  0  0  0  0
    3.2945  -11.4174    4.5956 S   0  0  0  0  0  0  0  0  0  0  0  0
    2.2391   -9.9263    4.7641 C   0  0  2  0  0  0  0  0  0  0  0  0
    5.4014    0.3534    0.0728 H   0  0  0  0  0  0  0  0  0  0  0  0
    1.7539  -10.8086    8.7556 H   0  0  0  0  0  0  0  0  0  0  0  0
    4.4488   -7.6737    5.0358 H   0  0  0  0  0  0  0  0  0  0  0  0
    5.2153   -9.1890    4.4803 H   0  0  0  0  0  0  0  0  0  0  0  0
    6.7362   -7.2904    4.4469 H   0  0  0  0  0  0  0  0  0  0  0  0
    6.6199   -8.3726    3.0931 H   0  0  0  0  0  0  0  0  0  0  0  0
    4.3328   -5.5122    4.0026 H   0  0  0  0  0  0  0  0  0  0  0  0
    5.9893   -5.0508    4.3299 H   0  0  0  0  0  0  0  0  0  0  0  0
    4.6064   -3.2326    3.0994 H   0  0  0  0  0  0  0  0  0  0  0  0
    5.9285   -1.1485    2.0647 H   0  0  0  0  0  0  0  0  0  0  0  0
    4.5524    0.1163   -2.6257 H   0  0  0  0  0  0  0  0  0  0  0  0
    3.9145   -1.5607   -4.3588 H   0  0  0  0  0  0  0  0  0  0  0  0
    3.9645   -4.0043   -3.7756 H   0  0  0  0  0  0  0  0  0  0  0  0
    4.6116   -4.7131   -1.5310 H   0  0  0  0  0  0  0  0  0  0  0  0
    5.7267   -5.6980    0.0495 H   0  0  0  0  0  0  0  0  0  0  0  0
    7.2318   -4.7900    0.2375 H   0  0  0  0  0  0  0  0  0  0  0  0
    7.7035   -5.7693    2.3893 H   0  0  0  0  0  0  0  0  0  0  0  0
    7.1848   -7.0712    1.3214 H   0  0  0  0  0  0  0  0  0  0  0  0
    1.7865   -6.9722    1.6645 H   0  0  0  0  0  0  0  0  0  0  0  0
   -0.5507   -6.7257    0.8317 H   0  0  0  0  0  0  0  0  0  0  0  0
   -2.3615   -8.1882    1.7311 H   0  0  0  0  0  0  0  0  0  0  0  0
   -1.9033   -9.7787    3.4977 H   0  0  0  0  0  0  0  0  0  0  0  0
    0.4515  -11.2277    4.5152 H   0  0  0  0  0  0  0  0  0  0  0  0
   -0.8087   -9.2785    6.1151 H   0  0  0  0  0  0  0  0  0  0  0  0
    0.0703  -10.6533    6.7286 H   0  0  0  0  0  0  0  0  0  0  0  0
    1.3295   -7.9127    6.2788 H   0  0  0  0  0  0  0  0  0  0  0  0
    0.8660   -7.8807   11.4185 H   0  0  0  0  0  0  0  0  0  0  0  0
    0.0145   -6.4808    6.6518 H   0  0  0  0  0  0  0  0  0  0  0  0
   -0.4316   -3.8683    7.0547 H   0  0  0  0  0  0  0  0  0  0  0  0
    0.5828   -5.5518   10.7472 H   0  0  0  0  0  0  0  0  0  0  0  0
    5.3421  -10.7763    5.7009 H   0  0  0  0  0  0  0  0  0  0  0  0
    4.4242  -11.8691    6.7383 H   0  0  0  0  0  0  0  0  0  0  0  0
    4.9940   -6.7976    2.1892 H   0  0  0  0  0  0  0  0  0  0  0  0
  1  2  2  0
  2  3  1  0
  2 20  1  0
  3  4  1  0
  3 48  1  0
  3 49  1  0
  4  5  1  0
  4 50  1  0
  4 51  1  0
  5 19  1  0
  5  6  1  0
  5 78  1  6
  6  7  1  0
  6 52  1  0
  6 53  1  0
  7  8  2  0
  7 54  1  0
  8  9  1  0
  8 18  1  0
  9 17  1  0
  9 10  2  0
 10 11  1  0
 10 55  1  0
 11 46  1  0
 11 12  1  0
 12 17  2  0
 12 13  1  0
 13 14  2  0
 13 56  1  0
 14 15  1  0
 14 57  1  0
 15 16  2  0
 15 58  1  0
 16 17  1  0
 16 59  1  0
 18 19  1  0
 18 60  1  0
 18 61  1  0
 19 62  1  0
 19 63  1  0
 20 45  1  0
 20 21  1  0
 21 26  1  0
 21 22  2  0
 22 23  1  0
 22 64  1  0
 23 24  2  0
 23 65  1  0
 24 25  1  0
 24 66  1  0
 25 26  2  0
 25 67  1  0
 26 27  1  0
 27 45  1  0
 27 28  1  0
 27 68  1  6
 28 29  1  0
 28 69  1  0
 28 70  1  0
 29 30  1  0
 29 40  1  0
 29 71  1  6
 30 34  2  0
 30 31  1  0
 31 47  1  0
 31 32  1  0
 32 33  2  0
 33 34  1  0
 33 72  1  0
 34 35  1  0
 35 39  1  0
 35 36  1  0
 36 37  2  0
 36 73  1  0
 37 38  1  0
 37 74  1  0
 38 39  2  0
 39 75  1  0
 40 45  1  0
 40 41  1  0
 41 42  2  0
 41 43  1  0
 43 44  1  0
 43 76  1  0
 43 77  1  0
 45 44  1  6
M  CHG  1   5   1
M  END
>  <i_m_ct_stereo_status>  (222) 
1

>  <s_m_source_file>  (222) 
/var/tmp/pbs.5076255.sched01/tmp2672eyar/80wl2hclo4.sdf

>  <i_m_source_file_index>  (222) 
9

>  <i_lp_mmshare_version>  (222) 
48012

>  <i_f3d_flags>  (222) 
0

>  <s_epik_input>  (222) 
W2NIXTFbY0hdW2NIXVtjSF1jKGMxMiljKFtjSF1bbkhdMilDKFtDSDJdW0NIMl0zKT1bQ0hdW0NIMl1OM1tDSDJdW0NIMl1DKD1PKU40YyhbY0hdW2NIXVtjSF1bY0hdNSljNVtDQEBIXShbQ0BAXTQ2NylbQ0gyXVtDQEhdKE42Qyg9TylbQ0gyXVM3KWM4W25IXW5bY0hdYzgtbjlbY0hdW2NIXW5bY0hdOQ==

>  <s_epik_cmdline>  (222) 
J2VwaWtfcHl0aG9uJywgJy1waHQnLCAnMi4wJywgJy1waCcsICc3LjAnLCAnLXRuJywgJzgnLCAnLW1hJywgJzIwMCcsICctaW1hZScsICc8aW5maWxlLm1hZT4nLCAnLW9tYWUnLCAnPG91dGZpbGUubWFlPic=

>  <r_lp_tautomer_probability>  (222) 
1

>  <r_epik_Ionization_Penalty>  (222) 
0.199665

>  <r_epik_Ionization_Penalty_Charging>  (222) 
0.199663

>  <r_epik_Ionization_Penalty_Neutral>  (222) 
2.23435e-06

>  <r_epik_State_Penalty>  (222) 
0.184137

>  <r_epik_Charging_Adjusted_Penalty>  (222) 
0.3838

>  <i_epik_Tot_Q>  (222) 
1

>  <i_epik_Tot_abs_Q>  (222) 
1

>  <s_lp_Force_Field>  (222) 
OPLS3e

>  <r_lp_Energy>  (222) 
39.9059

>  <b_lp_Chiralities_Consistent>  (222) 
1

>  <s_lp_Variant>  (222) 
66:0-1

>  <s_i_glide_gridfile>  (222) 
pfpi4k_grid

>  <i_i_glide_lignum>  (222) 
9

>  <i_i_glide_rotatable_bonds>  (222) 
7

>  <r_i_docking_score>  (222) 
-4.83631

>  <r_i_glide_ligand_efficiency>  (222) 
-0.107473

>  <r_i_glide_ligand_efficiency_sa>  (222) 
-0.382272

>  <r_i_glide_ligand_efficiency_ln>  (222) 
-1.00617

>  <r_i_glide_gscore>  (222) 
-4.83631

>  <r_i_glide_lipo>  (222) 
-0.638387

>  <r_i_glide_hbond>  (222) 
-0.405239

>  <r_i_glide_metal>  (222) 
-0

>  <r_i_glide_rewards>  (222) 
-0.5

>  <r_i_glide_evdw>  (222) 
-43.5142

>  <r_i_glide_ecoul>  (222) 
-7.48892

>  <r_i_glide_erotb>  (222) 
0.256675

>  <r_i_glide_esite>  (222) 
-0.250308

>  <r_i_glide_emodel>  (222) 
-67.4137

>  <r_i_glide_energy>  (222) 
-51.0031

>  <r_i_glide_einternal>  (222) 
6.42918

>  <r_i_glide_intrahb_reward>  (222) 
-0.5

>  <i_i_glide_confnum>  (222) 
4

>  <i_i_glide_posenum>  (222) 
1

>  <r_i_glide_eff_state_penalty>  (222) 
0

>  <ligand_id>  (222) 
66

>  <original_smiles>  (222) 
O=C(CCN1CC=C(c2c[nH]c3ccccc23)CC1)N1c2ccccc2C2CC(c3[nH]ncc3-n3ccnc3)N3C(=O)CSC213

>  <smiles>  (222) 
[H]C1=C(c2c([H])n([H])c3c([H])c([H])c([H])c([H])c23)C([H])([H])C([H])([H])[N+]([H])(C([H])([H])C([H])([H])C(=O)N2c3c([H])c([H])c([H])c([H])c3C3([H])C24SC([H])([H])C(=O)N4C([H])(c2c(-n4c([H])nc([H])c4[H])c([H])nn2[H])C3([H])[H])C1([H])[H]

$$$$
66:0:1
     RDKit          3D

 78 86  0  0  1  0  0  0  0  0999 V2000
    3.8877   -8.4357    1.9461 O   0  0  0  0  0  0  0  0  0  0  0  0
    3.6876   -8.5803    3.1571 C   0  0  0  0  0  0  0  0  0  0  0  0
    4.8470   -8.3389    4.1527 C   0  0  0  0  0  0  0  0  0  0  0  0
    6.0945   -7.6562    3.5846 C   0  0  0  0  0  0  0  0  0  0  0  0
    5.7722   -6.5061    2.7346 N   0  0  1  0  0  0  0  0  0  0  0  0
    5.3625   -5.3179    3.5229 C   0  0  0  0  0  0  0  0  0  0  0  0
    5.1841   -4.0890    2.6542 C   0  0  0  0  0  0  0  0  0  0  0  0
    5.5888   -4.0289    1.3713 C   0  0  0  0  0  0  0  0  0  0  0  0
    5.4244   -2.7797    0.6218 C   0  0  0  0  0  0  0  0  0  0  0  0
    5.6191   -1.5292    1.0989 C   0  0  0  0  0  0  0  0  0  0  0  0
    5.3444   -0.6490    0.0521 N   0  0  0  0  0  0  0  0  0  0  0  0
    4.9510   -1.3457   -1.0923 C   0  0  0  0  0  0  0  0  0  0  0  0
    4.5681   -0.9059   -2.3708 C   0  0  0  0  0  0  0  0  0  0  0  0
    4.2060   -1.8427   -3.3646 C   0  0  0  0  0  0  0  0  0  0  0  0
    4.2366   -3.2152   -3.0549 C   0  0  0  0  0  0  0  0  0  0  0  0
    4.6199   -3.6368   -1.7696 C   0  0  0  0  0  0  0  0  0  0  0  0
    4.9953   -2.7223   -0.7522 C   0  0  0  0  0  0  0  0  0  0  0  0
    6.3045   -5.2028    0.7184 C   0  0  0  0  0  0  0  0  0  0  0  0
    6.8254   -6.2152    1.7470 C   0  0  0  0  0  0  0  0  0  0  0  0
    2.4914   -8.9220    3.6664 N   0  0  0  0  0  0  0  0  0  0  0  0
    1.2653   -8.5314    3.0589 C   0  0  0  0  0  0  0  0  0  0  0  0
    1.0472   -7.5535    2.0614 C   0  0  0  0  0  0  0  0  0  0  0  0
   -0.2747   -7.3640    1.5975 C   0  0  0  0  0  0  0  0  0  0  0  0
   -1.3233   -8.1372    2.1287 C   0  0  0  0  0  0  0  0  0  0  0  0
   -1.1027   -9.0572    3.1516 C   0  0  0  0  0  0  0  0  0  0  0  0
    0.2200   -9.2354    3.6154 C   0  0  0  0  0  0  0  0  0  0  0  0
    0.6805  -10.1505    4.7263 C   0  0  2  0  0  0  0  0  0  0  0  0
    0.1970   -9.7133    6.1193 C   0  0  0  0  0  0  0  0  0  0  0  0
    1.3514   -8.8796    6.7069 C   0  0  1  0  0  0  0  0  0  0  0  0
    1.2814   -8.7959    8.2278 C   0  0  0  0  0  0  0  0  0  0  0  0
    1.5191   -9.9142    9.0596 N   0  0  0  0  0  0  0  0  0  0  0  0
    1.4328   -9.6314   10.3868 N   0  0  0  0  0  0  0  0  0  0  0  0
    1.1192   -8.3342   10.4242 C   0  0  0  0  0  0  0  0  0  0  0  0
    0.9918   -7.7988    9.1069 C   0  0  0  0  0  0  0  0  0  0  0  0
    0.6408   -6.4459    8.7614 N   0  0  0  0  0  0  0  0  0  0  0  0
    0.7176   -5.3586    9.6244 C   0  0  0  0  0  0  0  0  0  0  0  0
    0.3110   -4.2538    8.9142 C   0  0  0  0  0  0  0  0  0  0  0  0
   -0.0602   -4.6474    7.6264 N   0  0  0  0  0  0  0  0  0  0  0  0
    0.1550   -5.9684    7.6222 C   0  0  0  0  0  0  0  0  0  0  0  0
    2.5331   -9.5027    6.1088 N   0  0  0  0  0  0  0  0  0  0  0  0
    3.6764   -9.9067    6.6767 C   0  0  0  0  0  0  0  0  0  0  0  0
    4.1803   -9.4222    7.7008 O   0  0  0  0  0  0  0  0  0  0  0  0
    4.3061  -11.1006    5.9736 C   0  0  0  0  0  0  0  0  0  0  0  0
    3.2293  -11.4615    4.5401 S   0  0  0  0  0  0  0  0  0  0  0  0
    2.2308   -9.9371    4.7401 C   0  0  2  0  0  0  0  0  0  0  0  0
    5.3960    0.3473    0.1115 H   0  0  0  0  0  0  0  0  0  0  0  0
    1.7511  -10.8392    8.7228 H   0  0  0  0  0  0  0  0  0  0  0  0
    4.4746   -7.7222    4.9932 H   0  0  0  0  0  0  0  0  0  0  0  0
    5.2583   -9.2604    4.4691 H   0  0  0  0  0  0  0  0  0  0  0  0
    6.7725   -7.3580    4.3845 H   0  0  0  0  0  0  0  0  0  0  0  0
    6.6266   -8.4180    3.0167 H   0  0  0  0  0  0  0  0  0  0  0  0
    4.4225   -5.5158    4.0394 H   0  0  0  0  0  0  0  0  0  0  0  0
    6.1047   -5.0923    4.2873 H   0  0  0  0  0  0  0  0  0  0  0  0
    4.7157   -3.2365    3.1338 H   0  0  0  0  0  0  0  0  0  0  0  0
    5.9352   -1.1749    2.0830 H   0  0  0  0  0  0  0  0  0  0  0  0
    4.5347    0.1489   -2.5847 H   0  0  0  0  0  0  0  0  0  0  0  0
    3.8945   -1.5061   -4.3368 H   0  0  0  0  0  0  0  0  0  0  0  0
    3.9465   -3.9586   -3.7846 H   0  0  0  0  0  0  0  0  0  0  0  0
    4.6064   -4.6930   -1.5572 H   0  0  0  0  0  0  0  0  0  0  0  0
    5.6298   -5.7159    0.0301 H   0  0  0  0  0  0  0  0  0  0  0  0
    7.1615   -4.8433    0.1437 H   0  0  0  0  0  0  0  0  0  0  0  0
    7.7116   -5.8453    2.2653 H   0  0  0  0  0  0  0  0  0  0  0  0
    7.1072   -7.1254    1.2161 H   0  0  0  0  0  0  0  0  0  0  0  0
    1.8573   -6.9769    1.6422 H   0  0  0  0  0  0  0  0  0  0  0  0
   -0.4774   -6.6538    0.8230 H   0  0  0  0  0  0  0  0  0  0  0  0
   -2.3276   -8.0414    1.7528 H   0  0  0  0  0  0  0  0  0  0  0  0
   -1.9207   -9.6411    3.5275 H   0  0  0  0  0  0  0  0  0  0  0  0
    0.4005  -11.1809    4.4983 H   0  0  0  0  0  0  0  0  0  0  0  0
   -0.7786   -9.2096    6.1152 H   0  0  0  0  0  0  0  0  0  0  0  0
    0.0636  -10.6268    6.7020 H   0  0  0  0  0  0  0  0  0  0  0  0
    1.3426   -7.8722    6.2866 H   0  0  0  0  0  0  0  0  0  0  0  0
    0.9815   -7.8555   11.3900 H   0  0  0  0  0  0  0  0  0  0  0  0
    1.0408   -5.4379   10.6595 H   0  0  0  0  0  0  0  0  0  0  0  0
    0.2231   -3.2128    9.2286 H   0  0  0  0  0  0  0  0  0  0  0  0
   -0.0798   -6.5729    6.7462 H   0  0  0  0  0  0  0  0  0  0  0  0
    5.3036  -10.8571    5.6134 H   0  0  0  0  0  0  0  0  0  0  0  0
    4.3639  -11.9523    6.6738 H   0  0  0  0  0  0  0  0  0  0  0  0
    4.9714   -6.8040    2.1839 H   0  0  0  0  0  0  0  0  0  0  0  0
  1  2  2  0
  2  3  1  0
  2 20  1  0
  3  4  1  0
  3 48  1  0
  3 49  1  0
  4  5  1  0
  4 50  1  0
  4 51  1  0
  5 19  1  0
  5  6  1  0
  5 78  1  6
  6  7  1  0
  6 52  1  0
  6 53  1  0
  7  8  2  0
  7 54  1  0
  8  9  1  0
  8 18  1  0
  9 17  1  0
  9 10  2  0
 10 11  1  0
 10 55  1  0
 11 46  1  0
 11 12  1  0
 12 17  2  0
 12 13  1  0
 13 14  2  0
 13 56  1  0
 14 15  1  0
 14 57  1  0
 15 16  2  0
 15 58  1  0
 16 17  1  0
 16 59  1  0
 18 19  1  0
 18 60  1  0
 18 61  1  0
 19 62  1  0
 19 63  1  0
 20 45  1  0
 20 21  1  0
 21 26  1  0
 21 22  2  0
 22 23  1  0
 22 64  1  0
 23 24  2  0
 23 65  1  0
 24 25  1  0
 24 66  1  0
 25 26  2  0
 25 67  1  0
 26 27  1  0
 27 45  1  0
 27 28  1  0
 27 68  1  6
 28 29  1  0
 28 69  1  0
 28 70  1  0
 29 30  1  0
 29 40  1  0
 29 71  1  6
 30 34  2  0
 30 31  1  0
 31 47  1  0
 31 32  1  0
 32 33  2  0
 33 34  1  0
 33 72  1  0
 34 35  1  0
 35 39  1  0
 35 36  1  0
 36 37  2  0
 36 73  1  0
 37 38  1  0
 37 74  1  0
 38 39  2  0
 39 75  1  0
 40 45  1  0
 40 41  1  0
 41 42  2  0
 41 43  1  0
 43 44  1  0
 43 76  1  0
 43 77  1  0
 45 44  1  6
M  CHG  1   5   1
M  END
>  <i_m_ct_stereo_status>  (223) 
1

>  <s_m_source_file>  (223) 
/var/tmp/pbs.5076255.sched01/tmp2672eyar/80wl2hclo4.sdf

>  <i_m_source_file_index>  (223) 
9

>  <i_lp_mmshare_version>  (223) 
48012

>  <i_f3d_flags>  (223) 
0

>  <s_epik_input>  (223) 
W2NIXTFbY0hdW2NIXVtjSF1jKGMxMiljKFtjSF1bbkhdMilDKFtDSDJdW0NIMl0zKT1bQ0hdW0NIMl1OM1tDSDJdW0NIMl1DKD1PKU40YyhbY0hdW2NIXVtjSF1bY0hdNSljNVtDQEBIXShbQ0BAXTQ2NylbQ0gyXVtDQEhdKE42Qyg9TylbQ0gyXVM3KWM4W25IXW5bY0hdYzgtbjlbY0hdW2NIXW5bY0hdOQ==

>  <s_epik_cmdline>  (223) 
J2VwaWtfcHl0aG9uJywgJy1waHQnLCAnMi4wJywgJy1waCcsICc3LjAnLCAnLXRuJywgJzgnLCAnLW1hJywgJzIwMCcsICctaW1hZScsICc8aW5maWxlLm1hZT4nLCAnLW9tYWUnLCAnPG91dGZpbGUubWFlPic=

>  <r_lp_tautomer_probability>  (223) 
1

>  <r_epik_Ionization_Penalty>  (223) 
0.199665

>  <r_epik_Ionization_Penalty_Charging>  (223) 
0.199663

>  <r_epik_Ionization_Penalty_Neutral>  (223) 
2.23435e-06

>  <r_epik_State_Penalty>  (223) 
0.184137

>  <r_epik_Charging_Adjusted_Penalty>  (223) 
0.3838

>  <i_epik_Tot_Q>  (223) 
1

>  <i_epik_Tot_abs_Q>  (223) 
1

>  <s_lp_Force_Field>  (223) 
OPLS3e

>  <r_lp_Energy>  (223) 
39.9059

>  <b_lp_Chiralities_Consistent>  (223) 
1

>  <s_lp_Variant>  (223) 
66:0-1

>  <s_i_glide_gridfile>  (223) 
pfpi4k_grid

>  <i_i_glide_lignum>  (223) 
9

>  <i_i_glide_rotatable_bonds>  (223) 
7

>  <r_i_docking_score>  (223) 
-4.77069

>  <r_i_glide_ligand_efficiency>  (223) 
-0.106015

>  <r_i_glide_ligand_efficiency_sa>  (223) 
-0.377085

>  <r_i_glide_ligand_efficiency_ln>  (223) 
-0.992515

>  <r_i_glide_gscore>  (223) 
-4.77069

>  <r_i_glide_lipo>  (223) 
-0.646501

>  <r_i_glide_hbond>  (223) 
-0.393983

>  <r_i_glide_metal>  (223) 
-0

>  <r_i_glide_rewards>  (223) 
-0.5

>  <r_i_glide_evdw>  (223) 
-43.1148

>  <r_i_glide_ecoul>  (223) 
-7.24193

>  <r_i_glide_erotb>  (223) 
0.256675

>  <r_i_glide_esite>  (223) 
-0.244849

>  <r_i_glide_emodel>  (223) 
-66.9956

>  <r_i_glide_energy>  (223) 
-50.3567

>  <r_i_glide_einternal>  (223) 
6.46083

>  <r_i_glide_intrahb_reward>  (223) 
-0.5

>  <i_i_glide_confnum>  (223) 
4

>  <i_i_glide_posenum>  (223) 
31

>  <r_i_glide_eff_state_penalty>  (223) 
0

>  <ligand_id>  (223) 
66

>  <original_smiles>  (223) 
O=C(CCN1CC=C(c2c[nH]c3ccccc23)CC1)N1c2ccccc2C2CC(c3[nH]ncc3-n3ccnc3)N3C(=O)CSC213

>  <smiles>  (223) 
[H]C1=C(c2c([H])n([H])c3c([H])c([H])c([H])c([H])c23)C([H])([H])C([H])([H])[N+]([H])(C([H])([H])C([H])([H])C(=O)N2c3c([H])c([H])c([H])c([H])c3C3([H])C24SC([H])([H])C(=O)N4C([H])(c2c(-n4c([H])nc([H])c4[H])c([H])nn2[H])C3([H])[H])C1([H])[H]

$$$$
66:0:2
     RDKit          3D

 78 86  0  0  1  0  0  0  0  0999 V2000
    1.3333   -0.8431    7.0906 O   0  0  0  0  0  0  0  0  0  0  0  0
    2.2190   -0.7322    6.2348 C   0  0  0  0  0  0  0  0  0  0  0  0
    3.5345   -1.4591    6.5117 C   0  0  0  0  0  0  0  0  0  0  0  0
    3.4743   -2.8190    7.2016 C   0  0  0  0  0  0  0  0  0  0  0  0
    2.9584   -3.8740    6.2868 N   0  0  1  0  0  0  0  0  0  0  0  0
    3.9867   -4.3845    5.3266 C   0  0  0  0  0  0  0  0  0  0  0  0
    3.5251   -5.6454    4.6045 C   0  0  0  0  0  0  0  0  0  0  0  0
    2.4332   -6.3638    4.9498 C   0  0  0  0  0  0  0  0  0  0  0  0
    2.0143   -7.5579    4.1779 C   0  0  0  0  0  0  0  0  0  0  0  0
    2.8369   -8.4371    3.5527 C   0  0  0  0  0  0  0  0  0  0  0  0
    2.0455   -9.3520    2.8721 N   0  0  0  0  0  0  0  0  0  0  0  0
    0.7003   -9.0308    2.9968 C   0  0  0  0  0  0  0  0  0  0  0  0
   -0.4562   -9.6263    2.4858 C   0  0  0  0  0  0  0  0  0  0  0  0
   -1.7170   -9.0655    2.7272 C   0  0  0  0  0  0  0  0  0  0  0  0
   -1.8062   -7.8614    3.4681 C   0  0  0  0  0  0  0  0  0  0  0  0
   -0.6394   -7.2739    3.9915 C   0  0  0  0  0  0  0  0  0  0  0  0
    0.6342   -7.8435    3.7966 C   0  0  0  0  0  0  0  0  0  0  0  0
    1.6153   -5.9516    6.1557 C   0  0  0  0  0  0  0  0  0  0  0  0
    2.3721   -4.9821    7.0578 C   0  0  0  0  0  0  0  0  0  0  0  0
    2.0553   -0.0719    5.0601 N   0  0  0  0  0  0  0  0  0  0  0  0
    0.8167    0.5024    4.6487 C   0  0  0  0  0  0  0  0  0  0  0  0
   -0.4827    0.2571    5.1568 C   0  0  0  0  0  0  0  0  0  0  0  0
   -1.5710    0.9627    4.6184 C   0  0  0  0  0  0  0  0  0  0  0  0
   -1.3709    1.8774    3.5838 C   0  0  0  0  0  0  0  0  0  0  0  0
   -0.0848    2.0772    3.0304 C   0  0  0  0  0  0  0  0  0  0  0  0
    1.0008    1.3542    3.5783 C   0  0  0  0  0  0  0  0  0  0  0  0
    2.4209    1.3743    3.1128 C   0  0  2  0  0  0  0  0  0  0  0  0
    2.6271    0.7494    1.7178 C   0  0  0  0  0  0  0  0  0  0  0  0
    3.0559   -0.7050    1.9715 C   0  0  1  0  0  0  0  0  0  0  0  0
    3.8204   -1.3424    0.7901 C   0  0  0  0  0  0  0  0  0  0  0  0
    4.7285   -0.6323    0.0023 N   0  0  0  0  0  0  0  0  0  0  0  0
    5.3350   -1.3634   -0.9697 N   0  0  0  0  0  0  0  0  0  0  0  0
    4.8213   -2.5785   -0.8238 C   0  0  0  0  0  0  0  0  0  0  0  0
    3.8883   -2.5744    0.2525 C   0  0  0  0  0  0  0  0  0  0  0  0
    3.1753   -3.7188    0.6878 N   0  0  0  0  0  0  0  0  0  0  0  0
    2.9059   -4.0418    2.0043 C   0  0  0  0  0  0  0  0  0  0  0  0
    2.1195   -5.1773    1.9349 C   0  0  0  0  0  0  0  0  0  0  0  0
    1.9666   -5.5690    0.6244 N   0  0  0  0  0  0  0  0  0  0  0  0
    2.6159   -4.6334   -0.0895 C   0  0  0  0  0  0  0  0  0  0  0  0
    3.7336   -0.5932    3.2590 N   0  0  0  0  0  0  0  0  0  0  0  0
    5.0215   -1.0216    3.5374 C   0  0  0  0  0  0  0  0  0  0  0  0
    5.5558   -2.0001    3.0153 O   0  0  0  0  0  0  0  0  0  0  0  0
    5.7040   -0.1821    4.5952 C   0  0  0  0  0  0  0  0  0  0  0  0
    4.5795    1.2018    4.9635 S   0  0  0  0  0  0  0  0  0  0  0  0
    3.1371    0.4275    4.1303 C   0  0  2  0  0  0  0  0  0  0  0  0
    2.4123  -10.1297    2.3505 H   0  0  0  0  0  0  0  0  0  0  0  0
    4.8976    0.3528    0.0923 H   0  0  0  0  0  0  0  0  0  0  0  0
    3.9458   -1.7142    5.5659 H   0  0  0  0  0  0  0  0  0  0  0  0
    4.2174   -0.8089    7.0555 H   0  0  0  0  0  0  0  0  0  0  0  0
    4.4937   -3.1113    7.4756 H   0  0  0  0  0  0  0  0  0  0  0  0
    2.8959   -2.7504    8.1324 H   0  0  0  0  0  0  0  0  0  0  0  0
    4.2100   -3.6385    4.5779 H   0  0  0  0  0  0  0  0  0  0  0  0
    4.9411   -4.6032    5.8023 H   0  0  0  0  0  0  0  0  0  0  0  0
    4.1212   -5.9555    3.7455 H   0  0  0  0  0  0  0  0  0  0  0  0
    3.9271   -8.4897    3.5230 H   0  0  0  0  0  0  0  0  0  0  0  0
   -0.3876  -10.5379    1.9070 H   0  0  0  0  0  0  0  0  0  0  0  0
   -2.6110   -9.5401    2.3701 H   0  0  0  0  0  0  0  0  0  0  0  0
   -2.7707   -7.4403    3.6707 H   0  0  0  0  0  0  0  0  0  0  0  0
   -0.7464   -6.3441    4.5364 H   0  0  0  0  0  0  0  0  0  0  0  0
    0.7009   -5.4727    5.8134 H   0  0  0  0  0  0  0  0  0  0  0  0
    1.3520   -6.8389    6.7379 H   0  0  0  0  0  0  0  0  0  0  0  0
    3.2067   -5.4929    7.5419 H   0  0  0  0  0  0  0  0  0  0  0  0
    1.7026   -4.5872    7.8234 H   0  0  0  0  0  0  0  0  0  0  0  0
   -0.6583   -0.4387    5.9520 H   0  0  0  0  0  0  0  0  0  0  0  0
   -2.5966    0.7829    4.9860 H   0  0  0  0  0  0  0  0  0  0  0  0
   -2.2123    2.4190    3.1728 H   0  0  0  0  0  0  0  0  0  0  0  0
    0.0594    2.7732    2.2261 H   0  0  0  0  0  0  0  0  0  0  0  0
    2.8051    2.3900    3.1504 H   0  0  0  0  0  0  0  0  0  0  0  0
    1.7819    0.8619    1.0309 H   0  0  0  0  0  0  0  0  0  0  0  0
    3.4760    1.2798    1.2795 H   0  0  0  0  0  0  0  0  0  0  0  0
    2.1508   -1.3054    2.1400 H   0  0  0  0  0  0  0  0  0  0  0  0
    5.1042   -3.4041   -1.4531 H   0  0  0  0  0  0  0  0  0  0  0  0
    3.2695   -3.4346    2.7961 H   0  0  0  0  0  0  0  0  0  0  0  0
    1.6184   -5.7060    2.7138 H   0  0  0  0  0  0  0  0  0  0  0  0
    2.6364   -4.6112   -1.1813 H   0  0  0  0  0  0  0  0  0  0  0  0
    5.8476   -0.7711    5.5095 H   0  0  0  0  0  0  0  0  0  0  0  0
    6.6985    0.1763    4.2904 H   0  0  0  0  0  0  0  0  0  0  0  0
    2.2081   -3.4695    5.7365 H   0  0  0  0  0  0  0  0  0  0  0  0
  1  2  2  0
  2  3  1  0
  2 20  1  0
  3  4  1  0
  3 48  1  0
  3 49  1  0
  4  5  1  0
  4 50  1  0
  4 51  1  0
  5 19  1  0
  5  6  1  0
  5 78  1  6
  6  7  1  0
  6 52  1  0
  6 53  1  0
  7  8  2  0
  7 54  1  0
  8  9  1  0
  8 18  1  0
  9 17  1  0
  9 10  2  0
 10 11  1  0
 10 55  1  0
 11 46  1  0
 11 12  1  0
 12 17  2  0
 12 13  1  0
 13 14  2  0
 13 56  1  0
 14 15  1  0
 14 57  1  0
 15 16  2  0
 15 58  1  0
 16 17  1  0
 16 59  1  0
 18 19  1  0
 18 60  1  0
 18 61  1  0
 19 62  1  0
 19 63  1  0
 20 45  1  0
 20 21  1  0
 21 26  1  0
 21 22  2  0
 22 23  1  0
 22 64  1  0
 23 24  2  0
 23 65  1  0
 24 25  1  0
 24 66  1  0
 25 26  2  0
 25 67  1  0
 26 27  1  0
 27 45  1  0
 27 28  1  0
 27 68  1  6
 28 29  1  0
 28 69  1  0
 28 70  1  0
 29 30  1  0
 29 40  1  0
 29 71  1  1
 30 34  2  0
 30 31  1  0
 31 47  1  0
 31 32  1  0
 32 33  2  0
 33 34  1  0
 33 72  1  0
 34 35  1  0
 35 39  1  0
 35 36  1  0
 36 37  2  0
 36 73  1  0
 37 38  1  0
 37 74  1  0
 38 39  2  0
 39 75  1  0
 40 45  1  0
 40 41  1  0
 41 42  2  0
 41 43  1  0
 43 44  1  0
 43 76  1  0
 43 77  1  0
 45 44  1  1
M  CHG  1   5   1
M  END
>  <i_m_ct_stereo_status>  (224) 
1

>  <s_m_source_file>  (224) 
/var/tmp/pbs.5076255.sched01/tmp2672eyar/80wl2hclo4.sdf

>  <i_m_source_file_index>  (224) 
9

>  <i_lp_mmshare_version>  (224) 
48012

>  <i_f3d_flags>  (224) 
0

>  <s_epik_input>  (224) 
W2NIXTFbY0hdW2NIXVtjSF1jKGMxMiljKFtjSF1bbkhdMilDKFtDSDJdW0NIMl0zKT1bQ0hdW0NIMl1OM1tDSDJdW0NIMl1DKD1PKU40YyhbY0hdW2NIXVtjSF1bY0hdNSljNVtDQEBIXShbQ0BAXTQ2NylbQ0gyXVtDQEhdKE42Qyg9TylbQ0gyXVM3KWM4W25IXW5bY0hdYzgtbjlbY0hdW2NIXW5bY0hdOQ==

>  <s_epik_cmdline>  (224) 
J2VwaWtfcHl0aG9uJywgJy1waHQnLCAnMi4wJywgJy1waCcsICc3LjAnLCAnLXRuJywgJzgnLCAnLW1hJywgJzIwMCcsICctaW1hZScsICc8aW5maWxlLm1hZT4nLCAnLW9tYWUnLCAnPG91dGZpbGUubWFlPic=

>  <r_lp_tautomer_probability>  (224) 
1

>  <r_epik_Ionization_Penalty>  (224) 
0.199665

>  <r_epik_Ionization_Penalty_Charging>  (224) 
0.199663

>  <r_epik_Ionization_Penalty_Neutral>  (224) 
2.23435e-06

>  <r_epik_State_Penalty>  (224) 
0.184137

>  <r_epik_Charging_Adjusted_Penalty>  (224) 
0.3838

>  <i_epik_Tot_Q>  (224) 
1

>  <i_epik_Tot_abs_Q>  (224) 
1

>  <s_lp_Force_Field>  (224) 
OPLS3e

>  <r_lp_Energy>  (224) 
39.9059

>  <b_lp_Chiralities_Consistent>  (224) 
1

>  <s_lp_Variant>  (224) 
66:0-1

>  <s_i_glide_gridfile>  (224) 
pfpi4k_grid

>  <i_i_glide_lignum>  (224) 
9

>  <i_i_glide_rotatable_bonds>  (224) 
7

>  <r_i_docking_score>  (224) 
-3.359

>  <r_i_glide_ligand_efficiency>  (224) 
-0.0746444

>  <r_i_glide_ligand_efficiency_sa>  (224) 
-0.265502

>  <r_i_glide_ligand_efficiency_ln>  (224) 
-0.698822

>  <r_i_glide_gscore>  (224) 
-3.359

>  <r_i_glide_lipo>  (224) 
-0.212316

>  <r_i_glide_hbond>  (224) 
-0.251527

>  <r_i_glide_metal>  (224) 
-0

>  <r_i_glide_rewards>  (224) 
-0.150687

>  <r_i_glide_evdw>  (224) 
-36.8642

>  <r_i_glide_ecoul>  (224) 
-7.44033

>  <r_i_glide_erotb>  (224) 
0.256675

>  <r_i_glide_esite>  (224) 
-0.0607344

>  <r_i_glide_emodel>  (224) 
-48.9878

>  <r_i_glide_energy>  (224) 
-44.3045

>  <r_i_glide_einternal>  (224) 
5.69255

>  <r_i_glide_intrahb_reward>  (224) 
-0

>  <i_i_glide_confnum>  (224) 
4

>  <i_i_glide_posenum>  (224) 
19

>  <r_i_glide_eff_state_penalty>  (224) 
0

>  <ligand_id>  (224) 
66

>  <original_smiles>  (224) 
O=C(CCN1CC=C(c2c[nH]c3ccccc23)CC1)N1c2ccccc2C2CC(c3[nH]ncc3-n3ccnc3)N3C(=O)CSC213

>  <smiles>  (224) 
[H]C1=C(c2c([H])n([H])c3c([H])c([H])c([H])c([H])c23)C([H])([H])C([H])([H])[N+]([H])(C([H])([H])C([H])([H])C(=O)N2c3c([H])c([H])c([H])c([H])c3C3([H])C24SC([H])([H])C(=O)N4C([H])(c2c(-n4c([H])nc([H])c4[H])c([H])nn2[H])C3([H])[H])C1([H])[H]

$$$$
66:1:0
     RDKit          3D

 77 85  0  0  1  0  0  0  0  0999 V2000
    0.4282   -0.1828    2.5247 O   0  0  0  0  0  0  0  0  0  0  0  0
    0.6252   -0.4175    3.7113 C   0  0  0  0  0  0  0  0  0  0  0  0
   -0.5586   -0.1328    4.6492 C   0  0  0  0  0  0  0  0  0  0  0  0
   -0.6131    1.3099    5.1873 C   0  0  0  0  0  0  0  0  0  0  0  0
   -1.0279    2.2468    4.1542 N   0  0  0  0  0  0  0  0  0  0  0  0
   -0.4396    3.5636    4.3769 C   0  0  0  0  0  0  0  0  0  0  0  0
   -1.0721    4.6542    3.5496 C   0  0  0  0  0  0  0  0  0  0  0  0
   -2.2607    4.5372    2.9095 C   0  0  0  0  0  0  0  0  0  0  0  0
   -2.8179    5.6435    2.0963 C   0  0  0  0  0  0  0  0  0  0  0  0
   -2.0479    6.5899    1.4924 C   0  0  0  0  0  0  0  0  0  0  0  0
   -2.8651    7.4521    0.7970 N   0  0  0  0  0  0  0  0  0  0  0  0
   -4.1822    7.0652    0.9042 C   0  0  0  0  0  0  0  0  0  0  0  0
   -5.3601    7.6228    0.3746 C   0  0  0  0  0  0  0  0  0  0  0  0
   -6.5789    7.0051    0.6581 C   0  0  0  0  0  0  0  0  0  0  0  0
   -6.6129    5.8819    1.4816 C   0  0  0  0  0  0  0  0  0  0  0  0
   -5.4421    5.3243    2.0040 C   0  0  0  0  0  0  0  0  0  0  0  0
   -4.1832    5.8996    1.7287 C   0  0  0  0  0  0  0  0  0  0  0  0
   -2.9590    3.1821    2.9911 C   0  0  0  0  0  0  0  0  0  0  0  0
   -2.4788    2.3448    4.1630 C   0  0  0  0  0  0  0  0  0  0  0  0
    1.7976   -0.9812    4.1578 N   0  0  0  0  0  0  0  0  0  0  0  0
    2.9515   -1.0983    3.3206 C   0  0  0  0  0  0  0  0  0  0  0  0
    3.2386   -0.5084    2.0612 C   0  0  0  0  0  0  0  0  0  0  0  0
    4.4940   -0.7400    1.4541 C   0  0  0  0  0  0  0  0  0  0  0  0
    5.4545   -1.5530    2.0943 C   0  0  0  0  0  0  0  0  0  0  0  0
    5.1632   -2.1409    3.3428 C   0  0  0  0  0  0  0  0  0  0  0  0
    3.9159   -1.8951    3.9424 C   0  0  0  0  0  0  0  0  0  0  0  0
    3.4624   -2.3467    5.3021 C   0  0  2  0  0  0  0  0  0  0  0  0
    3.1495   -3.8542    5.4000 C   0  0  0  0  0  0  0  0  0  0  0  0
    1.6137   -3.9427    5.3256 C   0  0  1  0  0  0  0  0  0  0  0  0
    1.0616   -5.2683    5.8121 C   0  0  0  0  0  0  0  0  0  0  0  0
    1.0063   -5.6349    7.1522 N   0  0  0  0  0  0  0  0  0  0  0  0
    0.4351   -6.8366    7.3878 N   0  0  0  0  0  0  0  0  0  0  0  0
    0.2137   -7.3150    6.1724 C   0  0  0  0  0  0  0  0  0  0  0  0
    0.5593   -6.3758    5.1611 C   0  0  0  0  0  0  0  0  0  0  0  0
    0.4074   -6.5484    3.7626 N   0  0  0  0  0  0  0  0  0  0  0  0
   -0.3971   -7.5115    3.1420 C   0  0  0  0  0  0  0  0  0  0  0  0
   -0.2385   -7.3529    1.7785 C   0  0  0  0  0  0  0  0  0  0  0  0
    0.6353   -6.3048    1.5336 N   0  0  0  0  0  0  0  0  0  0  0  0
    1.0302   -5.9107    2.7378 C   0  0  0  0  0  0  0  0  0  0  0  0
    1.1985   -2.6937    5.9585 N   0  0  0  0  0  0  0  0  0  0  0  0
    0.4441   -2.4827    7.0509 C   0  0  0  0  0  0  0  0  0  0  0  0
   -0.4599   -3.1936    7.4844 O   0  0  0  0  0  0  0  0  0  0  0  0
    0.7937   -1.1954    7.7604 C   0  0  0  0  0  0  0  0  0  0  0  0
    2.1191   -0.3909    6.8242 S   0  0  0  0  0  0  0  0  0  0  0  0
    2.0944   -1.6235    5.4887 C   0  0  2  0  0  0  0  0  0  0  0  0
   -2.5017    8.2906    0.3275 H   0  0  0  0  0  0  0  0  0  0  0  0
    1.2130   -5.0110    7.9202 H   0  0  0  0  0  0  0  0  0  0  0  0
   -1.4861   -0.4469    4.1603 H   0  0  0  0  0  0  0  0  0  0  0  0
   -0.5499   -0.7755    5.4956 H   0  0  0  0  0  0  0  0  0  0  0  0
   -1.2981    1.3518    6.0386 H   0  0  0  0  0  0  0  0  0  0  0  0
    0.3768    1.5919    5.5584 H   0  0  0  0  0  0  0  0  0  0  0  0
   -0.5479    3.8399    5.4311 H   0  0  0  0  0  0  0  0  0  0  0  0
    0.6277    3.4929    4.1483 H   0  0  0  0  0  0  0  0  0  0  0  0
   -0.4970    5.5695    3.4938 H   0  0  0  0  0  0  0  0  0  0  0  0
   -0.9782    6.7206    1.4932 H   0  0  0  0  0  0  0  0  0  0  0  0
   -5.3255    8.5036   -0.2457 H   0  0  0  0  0  0  0  0  0  0  0  0
   -7.4889    7.3689    0.2393 H   0  0  0  0  0  0  0  0  0  0  0  0
   -7.5290    5.3774    1.7007 H   0  0  0  0  0  0  0  0  0  0  0  0
   -5.5965    4.4379    2.6019 H   0  0  0  0  0  0  0  0  0  0  0  0
   -4.0072    3.3066    3.2347 H   0  0  0  0  0  0  0  0  0  0  0  0
   -2.8864    2.6755    2.0355 H   0  0  0  0  0  0  0  0  0  0  0  0
   -2.9305    1.3581    4.1080 H   0  0  0  0  0  0  0  0  0  0  0  0
   -2.8402    2.7929    5.0915 H   0  0  0  0  0  0  0  0  0  0  0  0
    2.5319    0.1291    1.5459 H   0  0  0  0  0  0  0  0  0  0  0  0
    4.7265   -0.2864    0.4981 H   0  0  0  0  0  0  0  0  0  0  0  0
    6.4238   -1.7052    1.6324 H   0  0  0  0  0  0  0  0  0  0  0  0
    5.8944   -2.7402    3.8644 H   0  0  0  0  0  0  0  0  0  0  0  0
    4.2034   -2.0469    6.0483 H   0  0  0  0  0  0  0  0  0  0  0  0
    3.6788   -4.4808    4.6748 H   0  0  0  0  0  0  0  0  0  0  0  0
    3.4522   -4.1925    6.3923 H   0  0  0  0  0  0  0  0  0  0  0  0
    1.2553   -3.7186    4.3152 H   0  0  0  0  0  0  0  0  0  0  0  0
   -0.2623   -8.2881    6.0773 H   0  0  0  0  0  0  0  0  0  0  0  0
   -0.9757   -8.2317    3.6969 H   0  0  0  0  0  0  0  0  0  0  0  0
   -0.6719   -7.9105    0.9562 H   0  0  0  0  0  0  0  0  0  0  0  0
    1.7966   -5.1507    2.8340 H   0  0  0  0  0  0  0  0  0  0  0  0
   -0.0916   -0.5659    7.7617 H   0  0  0  0  0  0  0  0  0  0  0  0
    1.0720   -1.4187    8.7926 H   0  0  0  0  0  0  0  0  0  0  0  0
  1  2  2  0
  2  3  1  0
  2 20  1  0
  3  4  1  0
  3 48  1  0
  3 49  1  0
  4  5  1  0
  4 50  1  0
  4 51  1  0
  5 19  1  0
  5  6  1  0
  6  7  1  0
  6 52  1  0
  6 53  1  0
  7  8  2  0
  7 54  1  0
  8  9  1  0
  8 18  1  0
  9 17  1  0
  9 10  2  0
 10 11  1  0
 10 55  1  0
 11 46  1  0
 11 12  1  0
 12 17  2  0
 12 13  1  0
 13 14  2  0
 13 56  1  0
 14 15  1  0
 14 57  1  0
 15 16  2  0
 15 58  1  0
 16 17  1  0
 16 59  1  0
 18 19  1  0
 18 60  1  0
 18 61  1  0
 19 62  1  0
 19 63  1  0
 20 45  1  0
 20 21  1  0
 21 26  1  0
 21 22  2  0
 22 23  1  0
 22 64  1  0
 23 24  2  0
 23 65  1  0
 24 25  1  0
 24 66  1  0
 25 26  2  0
 25 67  1  0
 26 27  1  0
 27 45  1  0
 27 28  1  0
 27 68  1  1
 28 29  1  0
 28 69  1  0
 28 70  1  0
 29 30  1  0
 29 40  1  0
 29 71  1  6
 30 34  2  0
 30 31  1  0
 31 47  1  0
 31 32  1  0
 32 33  2  0
 33 34  1  0
 33 72  1  0
 34 35  1  0
 35 39  1  0
 35 36  1  0
 36 37  2  0
 36 73  1  0
 37 38  1  0
 37 74  1  0
 38 39  2  0
 39 75  1  0
 40 45  1  0
 40 41  1  0
 41 42  2  0
 41 43  1  0
 43 44  1  0
 43 76  1  0
 43 77  1  0
 45 44  1  1
M  END
>  <i_m_ct_stereo_status>  (225) 
1

>  <s_m_source_file>  (225) 
/var/tmp/pbs.5076255.sched01/tmp2672eyar/80wl2hclo4.sdf

>  <i_m_source_file_index>  (225) 
10

>  <i_lp_mmshare_version>  (225) 
48012

>  <i_f3d_flags>  (225) 
0

>  <s_epik_input>  (225) 
W2NIXTFbY0hdW2NIXVtjSF1jKGMxMiljKFtjSF1bbkhdMilDKFtDSDJdW0NIMl0zKT1bQ0hdW0NIMl1OM1tDSDJdW0NIMl1DKD1PKU40YyhbY0hdW2NIXVtjSF1bY0hdNSljNVtDQEBIXShbQ0BAXTQ2NylbQ0gyXVtDQEhdKE42Qyg9TylbQ0gyXVM3KWM4W25IXW5bY0hdYzgtbjlbY0hdW2NIXW5bY0hdOQ==

>  <s_epik_cmdline>  (225) 
J2VwaWtfcHl0aG9uJywgJy1waHQnLCAnMi4wJywgJy1waCcsICc3LjAnLCAnLXRuJywgJzgnLCAnLW1hJywgJzIwMCcsICctaW1hZScsICc8aW5maWxlLm1hZT4nLCAnLW9tYWUnLCAnPG91dGZpbGUubWFlPic=

>  <r_lp_tautomer_probability>  (225) 
1

>  <r_epik_Ionization_Penalty>  (225) 
0.841856

>  <r_epik_Ionization_Penalty_Charging>  (225) 
0.0270232

>  <r_epik_Ionization_Penalty_Neutral>  (225) 
0.814833

>  <r_epik_State_Penalty>  (225) 
0.869406

>  <r_epik_Charging_Adjusted_Penalty>  (225) 
0.896429

>  <i_epik_Tot_Q>  (225) 
0

>  <i_epik_Tot_abs_Q>  (225) 
0

>  <s_lp_Force_Field>  (225) 
OPLS3e

>  <r_lp_Energy>  (225) 
39.5463

>  <b_lp_Chiralities_Consistent>  (225) 
1

>  <s_lp_Variant>  (225) 
66:0-2

>  <s_i_glide_gridfile>  (225) 
pfpi4k_grid

>  <i_i_glide_lignum>  (225) 
10

>  <i_i_glide_rotatable_bonds>  (225) 
7

>  <r_i_docking_score>  (225) 
-3.52074

>  <r_i_glide_ligand_efficiency>  (225) 
-0.0782387

>  <r_i_glide_ligand_efficiency_sa>  (225) 
-0.278287

>  <r_i_glide_ligand_efficiency_ln>  (225) 
-0.732471

>  <r_i_glide_gscore>  (225) 
-3.52074

>  <r_i_glide_lipo>  (225) 
-0.950439

>  <r_i_glide_hbond>  (225) 
-0.246643

>  <r_i_glide_metal>  (225) 
-0

>  <r_i_glide_rewards>  (225) 
0

>  <r_i_glide_evdw>  (225) 
-26.83

>  <r_i_glide_ecoul>  (225) 
-6.90259

>  <r_i_glide_erotb>  (225) 
0.258574

>  <r_i_glide_esite>  (225) 
-0.205347

>  <r_i_glide_emodel>  (225) 
-39.7791

>  <r_i_glide_energy>  (225) 
-33.7325

>  <r_i_glide_einternal>  (225) 
6.52933

>  <r_i_glide_intrahb_reward>  (225) 
-0

>  <i_i_glide_confnum>  (225) 
5

>  <i_i_glide_posenum>  (225) 
8

>  <r_i_glide_eff_state_penalty>  (225) 
0

>  <ligand_id>  (225) 
66

>  <original_smiles>  (225) 
O=C(CCN1CC=C(c2c[nH]c3ccccc23)CC1)N1c2ccccc2C2CC(c3[nH]ncc3-n3ccnc3)N3C(=O)CSC213

>  <smiles>  (225) 
[H]C1=C(c2c([H])n([H])c3c([H])c([H])c([H])c([H])c23)C([H])([H])C([H])([H])N(C([H])([H])C([H])([H])C(=O)N2c3c([H])c([H])c([H])c([H])c3C3([H])C24SC([H])([H])C(=O)N4C([H])(c2c(-n4c([H])nc([H])c4[H])c([H])nn2[H])C3([H])[H])C1([H])[H]

$$$$
66:1:1
     RDKit          3D

 77 85  0  0  1  0  0  0  0  0999 V2000
   -0.8189   -2.3223    5.7897 O   0  0  0  0  0  0  0  0  0  0  0  0
    0.4175   -2.3238    5.7985 C   0  0  0  0  0  0  0  0  0  0  0  0
    1.1120   -3.0903    6.9631 C   0  0  0  0  0  0  0  0  0  0  0  0
    0.4943   -4.4706    7.3535 C   0  0  0  0  0  0  0  0  0  0  0  0
    0.9144   -5.5782    6.4788 N   0  0  0  0  0  0  0  0  0  0  0  0
   -0.0516   -6.6732    6.6087 C   0  0  0  0  0  0  0  0  0  0  0  0
    0.4018   -7.9825    5.9803 C   0  0  0  0  0  0  0  0  0  0  0  0
    1.6814   -8.2104    5.6010 C   0  0  0  0  0  0  0  0  0  0  0  0
    2.0750   -9.4685    4.9065 C   0  0  0  0  0  0  0  0  0  0  0  0
    1.2233  -10.5020    4.5953 C   0  0  0  0  0  0  0  0  0  0  0  0
    1.9586  -11.4962    3.9516 N   0  0  0  0  0  0  0  0  0  0  0  0
    3.2848  -11.1165    3.8259 C   0  0  0  0  0  0  0  0  0  0  0  0
    4.3959  -11.7958    3.2768 C   0  0  0  0  0  0  0  0  0  0  0  0
    5.6598  -11.1808    3.2731 C   0  0  0  0  0  0  0  0  0  0  0  0
    5.8049   -9.8857    3.8076 C   0  0  0  0  0  0  0  0  0  0  0  0
    4.6902   -9.2092    4.3470 C   0  0  0  0  0  0  0  0  0  0  0  0
    3.3984   -9.8077    4.4002 C   0  0  0  0  0  0  0  0  0  0  0  0
    2.7167   -7.1184    5.8198 C   0  0  0  0  0  0  0  0  0  0  0  0
    2.2524   -6.0623    6.8316 C   0  0  0  0  0  0  0  0  0  0  0  0
    1.1503   -1.6418    4.8713 N   0  0  0  0  0  0  0  0  0  0  0  0
    0.6208   -0.6399    4.0004 C   0  0  0  0  0  0  0  0  0  0  0  0
   -0.6033    0.0561    4.0772 C   0  0  0  0  0  0  0  0  0  0  0  0
   -0.8823    1.0284    3.1029 C   0  0  0  0  0  0  0  0  0  0  0  0
    0.0464    1.3229    2.0943 C   0  0  0  0  0  0  0  0  0  0  0  0
    1.2788    0.6573    2.0507 C   0  0  0  0  0  0  0  0  0  0  0  0
    1.5486   -0.2972    3.0360 C   0  0  0  0  0  0  0  0  0  0  0  0
    2.8148   -1.0771    3.1995 C   0  0  2  0  0  0  0  0  0  0  0  0
    3.0827   -2.1603    2.1264 C   0  0  0  0  0  0  0  0  0  0  0  0
    2.6715   -3.4753    2.8121 C   0  0  1  0  0  0  0  0  0  0  0  0
    3.2186   -4.7447    2.1550 C   0  0  0  0  0  0  0  0  0  0  0  0
    4.5090   -4.8211    1.6303 N   0  0  0  0  0  0  0  0  0  0  0  0
    4.8247   -6.0240    1.0949 N   0  0  0  0  0  0  0  0  0  0  0  0
    3.7312   -6.7507    1.2801 C   0  0  0  0  0  0  0  0  0  0  0  0
    2.7151   -5.9978    1.9303 C   0  0  0  0  0  0  0  0  0  0  0  0
    1.4194   -6.4578    2.2872 N   0  0  0  0  0  0  0  0  0  0  0  0
    0.7021   -7.4795    1.6760 C   0  0  0  0  0  0  0  0  0  0  0  0
   -0.4826   -7.5943    2.3432 C   0  0  0  0  0  0  0  0  0  0  0  0
   -0.5445   -6.6528    3.3685 N   0  0  0  0  0  0  0  0  0  0  0  0
    0.6239   -6.0291    3.2697 C   0  0  0  0  0  0  0  0  0  0  0  0
    3.0273   -3.2054    4.2169 N   0  0  0  0  0  0  0  0  0  0  0  0
    4.0001   -3.8079    4.9404 C   0  0  0  0  0  0  0  0  0  0  0  0
    4.5346   -4.8966    4.6925 O   0  0  0  0  0  0  0  0  0  0  0  0
    4.5135   -2.8985    6.0471 C   0  0  0  0  0  0  0  0  0  0  0  0
    3.7418   -1.2533    5.8390 S   0  0  0  0  0  0  0  0  0  0  0  0
    2.6028   -1.8299    4.5387 C   0  0  2  0  0  0  0  0  0  0  0  0
    1.5678  -12.3982    3.6793 H   0  0  0  0  0  0  0  0  0  0  0  0
    5.1918   -4.0767    1.6406 H   0  0  0  0  0  0  0  0  0  0  0  0
    2.1543   -3.2710    6.7505 H   0  0  0  0  0  0  0  0  0  0  0  0
    1.0783   -2.4102    7.8297 H   0  0  0  0  0  0  0  0  0  0  0  0
    0.7985   -4.7009    8.3794 H   0  0  0  0  0  0  0  0  0  0  0  0
   -0.6029   -4.3876    7.3739 H   0  0  0  0  0  0  0  0  0  0  0  0
   -0.2394   -6.8650    7.6665 H   0  0  0  0  0  0  0  0  0  0  0  0
   -0.9721   -6.3537    6.1161 H   0  0  0  0  0  0  0  0  0  0  0  0
   -0.3766   -8.7236    5.8182 H   0  0  0  0  0  0  0  0  0  0  0  0
    0.1635  -10.6365    4.7994 H   0  0  0  0  0  0  0  0  0  0  0  0
    4.2540  -12.7728    2.8381 H   0  0  0  0  0  0  0  0  0  0  0  0
    6.5054  -11.6887    2.8324 H   0  0  0  0  0  0  0  0  0  0  0  0
    6.7699   -9.4010    3.8012 H   0  0  0  0  0  0  0  0  0  0  0  0
    4.8434   -8.2156    4.7378 H   0  0  0  0  0  0  0  0  0  0  0  0
    3.6208   -7.5694    6.2365 H   0  0  0  0  0  0  0  0  0  0  0  0
    2.9588   -6.6806    4.8436 H   0  0  0  0  0  0  0  0  0  0  0  0
    2.9828   -5.2530    6.8480 H   0  0  0  0  0  0  0  0  0  0  0  0
    2.2050   -6.5085    7.8275 H   0  0  0  0  0  0  0  0  0  0  0  0
   -1.3236   -0.1421    4.8433 H   0  0  0  0  0  0  0  0  0  0  0  0
   -1.8187    1.5472    3.1173 H   0  0  0  0  0  0  0  0  0  0  0  0
   -0.1679    2.0748    1.3614 H   0  0  0  0  0  0  0  0  0  0  0  0
    2.0046    0.8918    1.3015 H   0  0  0  0  0  0  0  0  0  0  0  0
    3.6521   -0.3977    3.2410 H   0  0  0  0  0  0  0  0  0  0  0  0
    2.5888   -1.9831    1.1637 H   0  0  0  0  0  0  0  0  0  0  0  0
    4.1652   -2.1933    1.9288 H   0  0  0  0  0  0  0  0  0  0  0  0
    1.5803   -3.5192    2.7176 H   0  0  0  0  0  0  0  0  0  0  0  0
    3.7034   -7.7682    0.9262 H   0  0  0  0  0  0  0  0  0  0  0  0
    1.1066   -8.0413    0.8443 H   0  0  0  0  0  0  0  0  0  0  0  0
   -1.2870   -8.2951    2.1958 H   0  0  0  0  0  0  0  0  0  0  0  0
    0.9219   -5.2601    3.9677 H   0  0  0  0  0  0  0  0  0  0  0  0
    4.2409   -3.3047    7.0153 H   0  0  0  0  0  0  0  0  0  0  0  0
    5.5988   -2.8398    6.0299 H   0  0  0  0  0  0  0  0  0  0  0  0
  1  2  2  0
  2  3  1  0
  2 20  1  0
  3  4  1  0
  3 48  1  0
  3 49  1  0
  4  5  1  0
  4 50  1  0
  4 51  1  0
  5 19  1  0
  5  6  1  0
  6  7  1  0
  6 52  1  0
  6 53  1  0
  7  8  2  0
  7 54  1  0
  8  9  1  0
  8 18  1  0
  9 17  1  0
  9 10  2  0
 10 11  1  0
 10 55  1  0
 11 46  1  0
 11 12  1  0
 12 17  2  0
 12 13  1  0
 13 14  2  0
 13 56  1  0
 14 15  1  0
 14 57  1  0
 15 16  2  0
 15 58  1  0
 16 17  1  0
 16 59  1  0
 18 19  1  0
 18 60  1  0
 18 61  1  0
 19 62  1  0
 19 63  1  0
 20 45  1  0
 20 21  1  0
 21 26  1  0
 21 22  2  0
 22 23  1  0
 22 64  1  0
 23 24  2  0
 23 65  1  0
 24 25  1  0
 24 66  1  0
 25 26  2  0
 25 67  1  0
 26 27  1  0
 27 45  1  0
 27 28  1  0
 27 68  1  1
 28 29  1  0
 28 69  1  0
 28 70  1  0
 29 30  1  0
 29 40  1  0
 29 71  1  1
 30 34  2  0
 30 31  1  0
 31 47  1  0
 31 32  1  0
 32 33  2  0
 33 34  1  0
 33 72  1  0
 34 35  1  0
 35 39  1  0
 35 36  1  0
 36 37  2  0
 36 73  1  0
 37 38  1  0
 37 74  1  0
 38 39  2  0
 39 75  1  0
 40 45  1  0
 40 41  1  0
 41 42  2  0
 41 43  1  0
 43 44  1  0
 43 76  1  0
 43 77  1  0
 45 44  1  1
M  END
>  <i_m_ct_stereo_status>  (226) 
1

>  <s_m_source_file>  (226) 
/var/tmp/pbs.5076255.sched01/tmp2672eyar/80wl2hclo4.sdf

>  <i_m_source_file_index>  (226) 
10

>  <i_lp_mmshare_version>  (226) 
48012

>  <i_f3d_flags>  (226) 
0

>  <s_epik_input>  (226) 
W2NIXTFbY0hdW2NIXVtjSF1jKGMxMiljKFtjSF1bbkhdMilDKFtDSDJdW0NIMl0zKT1bQ0hdW0NIMl1OM1tDSDJdW0NIMl1DKD1PKU40YyhbY0hdW2NIXVtjSF1bY0hdNSljNVtDQEBIXShbQ0BAXTQ2NylbQ0gyXVtDQEhdKE42Qyg9TylbQ0gyXVM3KWM4W25IXW5bY0hdYzgtbjlbY0hdW2NIXW5bY0hdOQ==

>  <s_epik_cmdline>  (226) 
J2VwaWtfcHl0aG9uJywgJy1waHQnLCAnMi4wJywgJy1waCcsICc3LjAnLCAnLXRuJywgJzgnLCAnLW1hJywgJzIwMCcsICctaW1hZScsICc8aW5maWxlLm1hZT4nLCAnLW9tYWUnLCAnPG91dGZpbGUubWFlPic=

>  <r_lp_tautomer_probability>  (226) 
1

>  <r_epik_Ionization_Penalty>  (226) 
0.841856

>  <r_epik_Ionization_Penalty_Charging>  (226) 
0.0270232

>  <r_epik_Ionization_Penalty_Neutral>  (226) 
0.814833

>  <r_epik_State_Penalty>  (226) 
0.869406

>  <r_epik_Charging_Adjusted_Penalty>  (226) 
0.896429

>  <i_epik_Tot_Q>  (226) 
0

>  <i_epik_Tot_abs_Q>  (226) 
0

>  <s_lp_Force_Field>  (226) 
OPLS3e

>  <r_lp_Energy>  (226) 
39.5463

>  <b_lp_Chiralities_Consistent>  (226) 
1

>  <s_lp_Variant>  (226) 
66:0-2

>  <s_i_glide_gridfile>  (226) 
pfpi4k_grid

>  <i_i_glide_lignum>  (226) 
10

>  <i_i_glide_rotatable_bonds>  (226) 
7

>  <r_i_docking_score>  (226) 
-2.9179

>  <r_i_glide_ligand_efficiency>  (226) 
-0.0648423

>  <r_i_glide_ligand_efficiency_sa>  (226) 
-0.230637

>  <r_i_glide_ligand_efficiency_ln>  (226) 
-0.607054

>  <r_i_glide_gscore>  (226) 
-2.9179

>  <r_i_glide_lipo>  (226) 
-0.0753009

>  <r_i_glide_hbond>  (226) 
-0.319052

>  <r_i_glide_metal>  (226) 
-0

>  <r_i_glide_rewards>  (226) 
-6.89661e-05

>  <r_i_glide_evdw>  (226) 
-37.4871

>  <r_i_glide_ecoul>  (226) 
-5.40445

>  <r_i_glide_erotb>  (226) 
0.258574

>  <r_i_glide_esite>  (226) 
-0.0970317

>  <r_i_glide_emodel>  (226) 
-48.2964

>  <r_i_glide_energy>  (226) 
-42.8916

>  <r_i_glide_einternal>  (226) 
3.94456

>  <r_i_glide_intrahb_reward>  (226) 
-0

>  <i_i_glide_confnum>  (226) 
8

>  <i_i_glide_posenum>  (226) 
27

>  <r_i_glide_eff_state_penalty>  (226) 
0

>  <ligand_id>  (226) 
66

>  <original_smiles>  (226) 
O=C(CCN1CC=C(c2c[nH]c3ccccc23)CC1)N1c2ccccc2C2CC(c3[nH]ncc3-n3ccnc3)N3C(=O)CSC213

>  <smiles>  (226) 
[H]C1=C(c2c([H])n([H])c3c([H])c([H])c([H])c([H])c23)C([H])([H])C([H])([H])N(C([H])([H])C([H])([H])C(=O)N2c3c([H])c([H])c([H])c([H])c3C3([H])C24SC([H])([H])C(=O)N4C([H])(c2c(-n4c([H])nc([H])c4[H])c([H])nn2[H])C3([H])[H])C1([H])[H]

$$$$
66:1:2
     RDKit          3D

 77 85  0  0  1  0  0  0  0  0999 V2000
   -0.5206    0.3997    8.6018 O   0  0  0  0  0  0  0  0  0  0  0  0
    0.5731    0.9540    8.7346 C   0  0  0  0  0  0  0  0  0  0  0  0
    1.8414    0.0835    8.6479 C   0  0  0  0  0  0  0  0  0  0  0  0
    1.6700   -1.4387    8.9214 C   0  0  0  0  0  0  0  0  0  0  0  0
    1.1793   -2.2061    7.7756 N   0  0  0  0  0  0  0  0  0  0  0  0
    0.8227   -3.5654    8.2122 C   0  0  0  0  0  0  0  0  0  0  0  0
    0.5853   -4.5315    7.0580 C   0  0  0  0  0  0  0  0  0  0  0  0
    0.9770   -4.2908    5.7888 C   0  0  0  0  0  0  0  0  0  0  0  0
    0.6897   -5.2470    4.6948 C   0  0  0  0  0  0  0  0  0  0  0  0
   -0.1852   -6.3022    4.7839 C   0  0  0  0  0  0  0  0  0  0  0  0
   -0.1892   -6.9611    3.5628 N   0  0  0  0  0  0  0  0  0  0  0  0
    0.6967   -6.3652    2.6788 C   0  0  0  0  0  0  0  0  0  0  0  0
    1.0306   -6.6754    1.3411 C   0  0  0  0  0  0  0  0  0  0  0  0
    1.9835   -5.8887    0.6629 C   0  0  0  0  0  0  0  0  0  0  0  0
    2.5900   -4.8020    1.3146 C   0  0  0  0  0  0  0  0  0  0  0  0
    2.2390   -4.4892    2.6416 C   0  0  0  0  0  0  0  0  0  0  0  0
    1.2863   -5.2587    3.3716 C   0  0  0  0  0  0  0  0  0  0  0  0
    1.6813   -2.9754    5.4995 C   0  0  0  0  0  0  0  0  0  0  0  0
    2.2195   -2.2919    6.7520 C   0  0  0  0  0  0  0  0  0  0  0  0
    0.6912    2.2975    8.9420 N   0  0  0  0  0  0  0  0  0  0  0  0
   -0.3847    3.1176    9.3912 C   0  0  0  0  0  0  0  0  0  0  0  0
   -1.5988    2.7476   10.0113 C   0  0  0  0  0  0  0  0  0  0  0  0
   -2.4910    3.7522   10.4284 C   0  0  0  0  0  0  0  0  0  0  0  0
   -2.1724    5.1119   10.2316 C   0  0  0  0  0  0  0  0  0  0  0  0
   -0.9487    5.4794    9.6412 C   0  0  0  0  0  0  0  0  0  0  0  0
   -0.0737    4.4605    9.2294 C   0  0  0  0  0  0  0  0  0  0  0  0
    1.2978    4.6313    8.6459 C   0  0  2  0  0  0  0  0  0  0  0  0
    1.3195    5.1587    7.2021 C   0  0  0  0  0  0  0  0  0  0  0  0
    1.5391    3.9170    6.3279 C   0  0  1  0  0  0  0  0  0  0  0  0
    2.0528    4.1909    4.9285 C   0  0  0  0  0  0  0  0  0  0  0  0
    2.7789    5.3263    4.5943 N   0  0  0  0  0  0  0  0  0  0  0  0
    3.1192    5.4099    3.2873 N   0  0  0  0  0  0  0  0  0  0  0  0
    2.6092    4.3072    2.7555 C   0  0  0  0  0  0  0  0  0  0  0  0
    1.9620    3.5109    3.7434 C   0  0  0  0  0  0  0  0  0  0  0  0
    1.3290    2.2629    3.5434 N   0  0  0  0  0  0  0  0  0  0  0  0
    0.9306    1.7335    2.3193 C   0  0  0  0  0  0  0  0  0  0  0  0
    0.3735    0.5078    2.5771 C   0  0  0  0  0  0  0  0  0  0  0  0
    0.4088    0.2518    3.9464 N   0  0  0  0  0  0  0  0  0  0  0  0
    0.9980    1.3297    4.4463 C   0  0  0  0  0  0  0  0  0  0  0  0
    2.3436    3.0557    7.2017 N   0  0  0  0  0  0  0  0  0  0  0  0
    3.6118    2.6271    7.0139 C   0  0  0  0  0  0  0  0  0  0  0  0
    4.1664    2.4618    5.9311 O   0  0  0  0  0  0  0  0  0  0  0  0
    4.3718    2.4209    8.3125 C   0  0  0  0  0  0  0  0  0  0  0  0
    3.2962    2.9585    9.6661 S   0  0  0  0  0  0  0  0  0  0  0  0
    1.8493    3.1806    8.5764 C   0  0  2  0  0  0  0  0  0  0  0  0
   -0.7368   -7.7969    3.3883 H   0  0  0  0  0  0  0  0  0  0  0  0
    3.0345    6.0635    5.2347 H   0  0  0  0  0  0  0  0  0  0  0  0
    2.2959    0.2756    7.6805 H   0  0  0  0  0  0  0  0  0  0  0  0
    2.5475    0.4240    9.3979 H   0  0  0  0  0  0  0  0  0  0  0  0
    2.6225   -1.8593    9.2567 H   0  0  0  0  0  0  0  0  0  0  0  0
    0.9789   -1.5741    9.7588 H   0  0  0  0  0  0  0  0  0  0  0  0
    1.6167   -3.9940    8.8327 H   0  0  0  0  0  0  0  0  0  0  0  0
   -0.0843   -3.5219    8.8200 H   0  0  0  0  0  0  0  0  0  0  0  0
    0.1039   -5.4621    7.3223 H   0  0  0  0  0  0  0  0  0  0  0  0
   -0.8133   -6.6362    5.5994 H   0  0  0  0  0  0  0  0  0  0  0  0
    0.5725   -7.5288    0.8582 H   0  0  0  0  0  0  0  0  0  0  0  0
    2.2626   -6.1177   -0.3531 H   0  0  0  0  0  0  0  0  0  0  0  0
    3.3193   -4.1928    0.7993 H   0  0  0  0  0  0  0  0  0  0  0  0
    2.7247   -3.6305    3.0613 H   0  0  0  0  0  0  0  0  0  0  0  0
    2.5738   -3.1527    4.9267 H   0  0  0  0  0  0  0  0  0  0  0  0
    1.0076   -2.3202    4.9404 H   0  0  0  0  0  0  0  0  0  0  0  0
    2.5904   -1.3209    6.4395 H   0  0  0  0  0  0  0  0  0  0  0  0
    3.0768   -2.8473    7.1291 H   0  0  0  0  0  0  0  0  0  0  0  0
   -1.8501    1.7233   10.2074 H   0  0  0  0  0  0  0  0  0  0  0  0
   -3.4090    3.4754   10.9225 H   0  0  0  0  0  0  0  0  0  0  0  0
   -2.8495    5.8752   10.5722 H   0  0  0  0  0  0  0  0  0  0  0  0
   -0.6832    6.5184    9.5370 H   0  0  0  0  0  0  0  0  0  0  0  0
    1.8879    5.2700    9.3003 H   0  0  0  0  0  0  0  0  0  0  0  0
    0.4430    5.7422    6.9194 H   0  0  0  0  0  0  0  0  0  0  0  0
    2.1914    5.8108    7.1143 H   0  0  0  0  0  0  0  0  0  0  0  0
    0.5626    3.4380    6.2327 H   0  0  0  0  0  0  0  0  0  0  0  0
    2.7274    4.1282    1.6939 H   0  0  0  0  0  0  0  0  0  0  0  0
    1.0662    2.2565    1.3823 H   0  0  0  0  0  0  0  0  0  0  0  0
   -0.0436   -0.2126    1.8897 H   0  0  0  0  0  0  0  0  0  0  0  0
    1.1968    1.4142    5.4996 H   0  0  0  0  0  0  0  0  0  0  0  0
    4.6418    1.3719    8.4297 H   0  0  0  0  0  0  0  0  0  0  0  0
    5.2927    3.0064    8.3013 H   0  0  0  0  0  0  0  0  0  0  0  0
  1  2  2  0
  2  3  1  0
  2 20  1  0
  3  4  1  0
  3 48  1  0
  3 49  1  0
  4  5  1  0
  4 50  1  0
  4 51  1  0
  5 19  1  0
  5  6  1  0
  6  7  1  0
  6 52  1  0
  6 53  1  0
  7  8  2  0
  7 54  1  0
  8  9  1  0
  8 18  1  0
  9 17  1  0
  9 10  2  0
 10 11  1  0
 10 55  1  0
 11 46  1  0
 11 12  1  0
 12 17  2  0
 12 13  1  0
 13 14  2  0
 13 56  1  0
 14 15  1  0
 14 57  1  0
 15 16  2  0
 15 58  1  0
 16 17  1  0
 16 59  1  0
 18 19  1  0
 18 60  1  0
 18 61  1  0
 19 62  1  0
 19 63  1  0
 20 45  1  0
 20 21  1  0
 21 26  1  0
 21 22  2  0
 22 23  1  0
 22 64  1  0
 23 24  2  0
 23 65  1  0
 24 25  1  0
 24 66  1  0
 25 26  2  0
 25 67  1  0
 26 27  1  0
 27 45  1  0
 27 28  1  0
 27 68  1  1
 28 29  1  0
 28 69  1  0
 28 70  1  0
 29 30  1  0
 29 40  1  0
 29 71  1  6
 30 34  2  0
 30 31  1  0
 31 47  1  0
 31 32  1  0
 32 33  2  0
 33 34  1  0
 33 72  1  0
 34 35  1  0
 35 39  1  0
 35 36  1  0
 36 37  2  0
 36 73  1  0
 37 38  1  0
 37 74  1  0
 38 39  2  0
 39 75  1  0
 40 45  1  0
 40 41  1  0
 41 42  2  0
 41 43  1  0
 43 44  1  0
 43 76  1  0
 43 77  1  0
 45 44  1  1
M  END
>  <i_m_ct_stereo_status>  (227) 
1

>  <s_m_source_file>  (227) 
/var/tmp/pbs.5076255.sched01/tmp2672eyar/80wl2hclo4.sdf

>  <i_m_source_file_index>  (227) 
10

>  <i_lp_mmshare_version>  (227) 
48012

>  <i_f3d_flags>  (227) 
0

>  <s_epik_input>  (227) 
W2NIXTFbY0hdW2NIXVtjSF1jKGMxMiljKFtjSF1bbkhdMilDKFtDSDJdW0NIMl0zKT1bQ0hdW0NIMl1OM1tDSDJdW0NIMl1DKD1PKU40YyhbY0hdW2NIXVtjSF1bY0hdNSljNVtDQEBIXShbQ0BAXTQ2NylbQ0gyXVtDQEhdKE42Qyg9TylbQ0gyXVM3KWM4W25IXW5bY0hdYzgtbjlbY0hdW2NIXW5bY0hdOQ==

>  <s_epik_cmdline>  (227) 
J2VwaWtfcHl0aG9uJywgJy1waHQnLCAnMi4wJywgJy1waCcsICc3LjAnLCAnLXRuJywgJzgnLCAnLW1hJywgJzIwMCcsICctaW1hZScsICc8aW5maWxlLm1hZT4nLCAnLW9tYWUnLCAnPG91dGZpbGUubWFlPic=

>  <r_lp_tautomer_probability>  (227) 
1

>  <r_epik_Ionization_Penalty>  (227) 
0.841856

>  <r_epik_Ionization_Penalty_Charging>  (227) 
0.0270232

>  <r_epik_Ionization_Penalty_Neutral>  (227) 
0.814833

>  <r_epik_State_Penalty>  (227) 
0.869406

>  <r_epik_Charging_Adjusted_Penalty>  (227) 
0.896429

>  <i_epik_Tot_Q>  (227) 
0

>  <i_epik_Tot_abs_Q>  (227) 
0

>  <s_lp_Force_Field>  (227) 
OPLS3e

>  <r_lp_Energy>  (227) 
39.5463

>  <b_lp_Chiralities_Consistent>  (227) 
1

>  <s_lp_Variant>  (227) 
66:0-2

>  <s_i_glide_gridfile>  (227) 
pfpi4k_grid

>  <i_i_glide_lignum>  (227) 
10

>  <i_i_glide_rotatable_bonds>  (227) 
7

>  <r_i_docking_score>  (227) 
-1.95389

>  <r_i_glide_ligand_efficiency>  (227) 
-0.0434197

>  <r_i_glide_ligand_efficiency_sa>  (227) 
-0.154439

>  <r_i_glide_ligand_efficiency_ln>  (227) 
-0.406495

>  <r_i_glide_gscore>  (227) 
-1.95389

>  <r_i_glide_lipo>  (227) 
0

>  <r_i_glide_hbond>  (227) 
-0.00185957

>  <r_i_glide_metal>  (227) 
-0

>  <r_i_glide_rewards>  (227) 
0

>  <r_i_glide_evdw>  (227) 
-31.805

>  <r_i_glide_ecoul>  (227) 
-3.37514

>  <r_i_glide_erotb>  (227) 
0.258574

>  <r_i_glide_esite>  (227) 
-0.114079

>  <r_i_glide_emodel>  (227) 
-37.8855

>  <r_i_glide_energy>  (227) 
-35.1801

>  <r_i_glide_einternal>  (227) 
4.67789

>  <r_i_glide_intrahb_reward>  (227) 
-0

>  <i_i_glide_confnum>  (227) 
8

>  <i_i_glide_posenum>  (227) 
6

>  <r_i_glide_eff_state_penalty>  (227) 
0

>  <ligand_id>  (227) 
66

>  <original_smiles>  (227) 
O=C(CCN1CC=C(c2c[nH]c3ccccc23)CC1)N1c2ccccc2C2CC(c3[nH]ncc3-n3ccnc3)N3C(=O)CSC213

>  <smiles>  (227) 
[H]C1=C(c2c([H])n([H])c3c([H])c([H])c([H])c([H])c23)C([H])([H])C([H])([H])N(C([H])([H])C([H])([H])C(=O)N2c3c([H])c([H])c([H])c([H])c3C3([H])C24SC([H])([H])C(=O)N4C([H])(c2c(-n4c([H])nc([H])c4[H])c([H])nn2[H])C3([H])[H])C1([H])[H]

$$$$
66:2:0
     RDKit          3D

 79 87  0  0  1  0  0  0  0  0999 V2000
    4.4112    1.1309    9.5989 O   0  0  0  0  0  0  0  0  0  0  0  0
    4.5206    0.5558    8.5081 C   0  0  0  0  0  0  0  0  0  0  0  0
    3.5326   -0.5774    8.1726 C   0  0  0  0  0  0  0  0  0  0  0  0
    2.2846   -0.6965    9.0220 C   0  0  0  0  0  0  0  0  0  0  0  0
    1.6101    0.5883    9.1997 N   0  0  1  0  0  0  0  0  0  0  0  0
    1.1856    1.1874    7.9048 C   0  0  0  0  0  0  0  0  0  0  0  0
    0.3248    2.3989    8.1051 C   0  0  0  0  0  0  0  0  0  0  0  0
   -0.2359    2.7331    9.2850 C   0  0  0  0  0  0  0  0  0  0  0  0
   -1.0297    3.9550    9.4150 C   0  0  0  0  0  0  0  0  0  0  0  0
   -2.0797    4.0833   10.2791 C   0  0  0  0  0  0  0  0  0  0  0  0
   -2.5821    5.3656   10.0885 N   0  0  0  0  0  0  0  0  0  0  0  0
   -1.8596    6.0701    9.1429 C   0  0  0  0  0  0  0  0  0  0  0  0
   -1.9755    7.3803    8.6516 C   0  0  0  0  0  0  0  0  0  0  0  0
   -1.0909    7.8499    7.6585 C   0  0  0  0  0  0  0  0  0  0  0  0
   -0.0922    6.9826    7.1607 C   0  0  0  0  0  0  0  0  0  0  0  0
    0.0241    5.6722    7.6718 C   0  0  0  0  0  0  0  0  0  0  0  0
   -0.8520    5.1734    8.6727 C   0  0  0  0  0  0  0  0  0  0  0  0
    0.0141    1.8900   10.5270 C   0  0  0  0  0  0  0  0  0  0  0  0
    0.5187    0.4966   10.1846 C   0  0  0  0  0  0  0  0  0  0  0  0
    5.4679    0.8688    7.6030 N   0  0  0  0  0  0  0  0  0  0  0  0
    6.0985    2.1516    7.5434 C   0  0  0  0  0  0  0  0  0  0  0  0
    5.6875    3.3564    8.1653 C   0  0  0  0  0  0  0  0  0  0  0  0
    6.4936    4.5050    7.9867 C   0  0  0  0  0  0  0  0  0  0  0  0
    7.6695    4.4468    7.2009 C   0  0  0  0  0  0  0  0  0  0  0  0
    8.0334    3.2445    6.5409 C   0  0  0  0  0  0  0  0  0  0  0  0
    7.2011    2.1157    6.7189 C   0  0  0  0  0  0  0  0  0  0  0  0
    7.3675    0.7471    6.0936 C   0  0  2  0  0  0  0  0  0  0  0  0
    7.1617    0.7679    4.5696 C   0  0  0  0  0  0  0  0  0  0  0  0
    5.6856    0.3341    4.3691 C   0  0  1  0  0  0  0  0  0  0  0  0
    5.3296   -0.2159    2.9822 C   0  0  0  0  0  0  0  0  0  0  0  0
    6.1832   -1.0500    2.2779 N   0  0  0  0  0  0  0  0  0  0  0  0
    5.7368   -1.4122    1.0553 N   0  0  0  0  0  0  0  0  0  0  0  0
    4.5508   -0.8414    0.9757 C   0  0  0  0  0  0  0  0  0  0  0  0
    4.2443   -0.1031    2.1483 C   0  0  0  0  0  0  0  0  0  0  0  0
    3.0653    0.6769    2.4289 N   0  0  0  0  0  0  0  0  0  0  0  0
    1.8846    0.4916    1.7385 C   0  0  0  0  0  0  0  0  0  0  0  0
    0.9700    1.3873    2.2381 C   0  0  0  0  0  0  0  0  0  0  0  0
    1.6358    2.0991    3.1970 N   0  0  0  0  0  0  0  0  0  0  0  0
    2.9078    1.6995    3.2684 C   0  0  0  0  0  0  0  0  0  0  0  0
    5.4216   -0.5422    5.5165 N   0  0  0  0  0  0  0  0  0  0  0  0
    4.8931   -1.7894    5.5241 C   0  0  0  0  0  0  0  0  0  0  0  0
    4.0471   -2.2003    4.7211 O   0  0  0  0  0  0  0  0  0  0  0  0
    5.4747   -2.6834    6.6093 C   0  0  0  0  0  0  0  0  0  0  0  0
    6.6947   -1.6481    7.4898 S   0  0  0  0  0  0  0  0  0  0  0  0
    6.1836   -0.0823    6.6864 C   0  0  2  0  0  0  0  0  0  0  0  0
   -3.3607    5.7229   10.6253 H   0  0  0  0  0  0  0  0  0  0  0  0
    7.0903   -1.3520    2.6098 H   0  0  0  0  0  0  0  0  0  0  0  0
    3.2072   -0.5015    7.1251 H   0  0  0  0  0  0  0  0  0  0  0  0
    4.0375   -1.4923    8.4167 H   0  0  0  0  0  0  0  0  0  0  0  0
    1.5994   -1.4131    8.5664 H   0  0  0  0  0  0  0  0  0  0  0  0
    2.5783   -1.1255    9.9792 H   0  0  0  0  0  0  0  0  0  0  0  0
    2.0469    1.4847    7.3036 H   0  0  0  0  0  0  0  0  0  0  0  0
    0.6332    0.4535    7.3198 H   0  0  0  0  0  0  0  0  0  0  0  0
    0.1717    2.9843    7.2082 H   0  0  0  0  0  0  0  0  0  0  0  0
   -2.5119    3.3874   10.9987 H   0  0  0  0  0  0  0  0  0  0  0  0
   -2.7535    8.0210    9.0388 H   0  0  0  0  0  0  0  0  0  0  0  0
   -1.1846    8.8550    7.2786 H   0  0  0  0  0  0  0  0  0  0  0  0
    0.5953    7.3209    6.4004 H   0  0  0  0  0  0  0  0  0  0  0  0
    0.8156    5.0453    7.3023 H   0  0  0  0  0  0  0  0  0  0  0  0
    0.7273    2.4127   11.1679 H   0  0  0  0  0  0  0  0  0  0  0  0
   -0.9099    1.7592   11.0907 H   0  0  0  0  0  0  0  0  0  0  0  0
   -0.2754   -0.1145    9.7518 H   0  0  0  0  0  0  0  0  0  0  0  0
    0.8641   -0.0100   11.0886 H   0  0  0  0  0  0  0  0  0  0  0  0
    4.7931    3.4230    8.7660 H   0  0  0  0  0  0  0  0  0  0  0  0
    6.2067    5.4396    8.4389 H   0  0  0  0  0  0  0  0  0  0  0  0
    8.2810    5.3285    7.0874 H   0  0  0  0  0  0  0  0  0  0  0  0
    8.9297    3.1974    5.9455 H   0  0  0  0  0  0  0  0  0  0  0  0
    8.3365    0.3610    6.3846 H   0  0  0  0  0  0  0  0  0  0  0  0
    7.4843    1.6893    4.1072 H   0  0  0  0  0  0  0  0  0  0  0  0
    7.8723    0.1266    4.0859 H   0  0  0  0  0  0  0  0  0  0  0  0
    5.1551    1.2496    4.5931 H   0  0  0  0  0  0  0  0  0  0  0  0
    3.9788   -0.9793    0.0712 H   0  0  0  0  0  0  0  0  0  0  0  0
    1.7727   -0.2317    0.9333 H   0  0  0  0  0  0  0  0  0  0  0  0
   -0.0730    1.5881    1.9664 H   0  0  0  0  0  0  0  0  0  0  0  0
    3.6263    2.2174    3.9048 H   0  0  0  0  0  0  0  0  0  0  0  0
    4.6903   -3.0184    7.2874 H   0  0  0  0  0  0  0  0  0  0  0  0
    5.9230   -3.5852    6.1785 H   0  0  0  0  0  0  0  0  0  0  0  0
    2.3197    1.1942    9.6005 H   0  0  0  0  0  0  0  0  0  0  0  0
    1.2374    2.8718    3.7388 H   0  0  0  0  0  0  0  0  0  0  0  0
  1  2  2  0
  2  3  1  0
  2 20  1  0
  3  4  1  0
  3 48  1  0
  3 49  1  0
  4  5  1  0
  4 50  1  0
  4 51  1  0
  5 19  1  0
  5  6  1  0
  5 78  1  1
  6  7  1  0
  6 52  1  0
  6 53  1  0
  7  8  2  0
  7 54  1  0
  8  9  1  0
  8 18  1  0
  9 17  1  0
  9 10  2  0
 10 11  1  0
 10 55  1  0
 11 46  1  0
 11 12  1  0
 12 17  2  0
 12 13  1  0
 13 14  2  0
 13 56  1  0
 14 15  1  0
 14 57  1  0
 15 16  2  0
 15 58  1  0
 16 17  1  0
 16 59  1  0
 18 19  1  0
 18 60  1  0
 18 61  1  0
 19 62  1  0
 19 63  1  0
 20 45  1  0
 20 21  1  0
 21 26  1  0
 21 22  2  0
 22 23  1  0
 22 64  1  0
 23 24  2  0
 23 65  1  0
 24 25  1  0
 24 66  1  0
 25 26  2  0
 25 67  1  0
 26 27  1  0
 27 45  1  0
 27 28  1  0
 27 68  1  6
 28 29  1  0
 28 69  1  0
 28 70  1  0
 29 30  1  0
 29 40  1  0
 29 71  1  1
 30 34  2  0
 30 31  1  0
 31 47  1  0
 31 32  1  0
 32 33  2  0
 33 34  1  0
 33 72  1  0
 34 35  1  0
 35 39  1  0
 35 36  1  0
 36 37  2  0
 36 73  1  0
 37 38  1  0
 37 74  1  0
 38 39  2  0
 38 79  1  0
 39 75  1  0
 40 45  1  0
 40 41  1  0
 41 42  2  0
 41 43  1  0
 43 44  1  0
 43 76  1  0
 43 77  1  0
 45 44  1  1
M  CHG  2   5   1  38   1
M  END
>  <i_m_ct_stereo_status>  (228) 
1

>  <s_m_source_file>  (228) 
/var/tmp/pbs.5076255.sched01/tmp2672eyar/80wl2hclo4.sdf

>  <i_m_source_file_index>  (228) 
11

>  <i_lp_mmshare_version>  (228) 
48012

>  <i_f3d_flags>  (228) 
0

>  <s_epik_input>  (228) 
W2NIXTFbY0hdW2NIXVtjSF1jKGMxMiljKFtjSF1bbkhdMilDKFtDSDJdW0NIMl0zKT1bQ0hdW0NIMl1OM1tDSDJdW0NIMl1DKD1PKU40YyhbY0hdW2NIXVtjSF1bY0hdNSljNVtDQEBIXShbQ0BAXTQ2NylbQ0gyXVtDQEhdKE42Qyg9TylbQ0gyXVM3KWM4W25IXW5bY0hdYzgtbjlbY0hdW2NIXW5bY0hdOQ==

>  <s_epik_cmdline>  (228) 
J2VwaWtfcHl0aG9uJywgJy1waHQnLCAnMi4wJywgJy1waCcsICc3LjAnLCAnLXRuJywgJzgnLCAnLW1hJywgJzIwMCcsICctaW1hZScsICc8aW5maWxlLm1hZT4nLCAnLW9tYWUnLCAnPG91dGZpbGUubWFlPic=

>  <r_lp_tautomer_probability>  (228) 
1

>  <r_epik_Ionization_Penalty>  (228) 
2.01548

>  <r_epik_Ionization_Penalty_Charging>  (228) 
0.17264

>  <r_epik_Ionization_Penalty_Neutral>  (228) 
1.84284

>  <r_epik_State_Penalty>  (228) 
2.12176

>  <r_epik_Charging_Adjusted_Penalty>  (228) 
2.2944

>  <i_epik_Tot_Q>  (228) 
2

>  <i_epik_Tot_abs_Q>  (228) 
2

>  <s_lp_Force_Field>  (228) 
OPLS3e

>  <r_lp_Energy>  (228) 
46.5651

>  <b_lp_Chiralities_Consistent>  (228) 
1

>  <s_lp_Variant>  (228) 
66:0-3

>  <s_i_glide_gridfile>  (228) 
pfpi4k_grid

>  <i_i_glide_lignum>  (228) 
11

>  <i_i_glide_rotatable_bonds>  (228) 
7

>  <r_i_docking_score>  (228) 
-3.66109

>  <r_i_glide_ligand_efficiency>  (228) 
-0.0813576

>  <r_i_glide_ligand_efficiency_sa>  (228) 
-0.28938

>  <r_i_glide_ligand_efficiency_ln>  (228) 
-0.76167

>  <r_i_glide_gscore>  (228) 
-3.66109

>  <r_i_glide_lipo>  (228) 
-0.89191

>  <r_i_glide_hbond>  (228) 
0

>  <r_i_glide_metal>  (228) 
-0

>  <r_i_glide_rewards>  (228) 
-0.746081

>  <r_i_glide_evdw>  (228) 
-25.329

>  <r_i_glide_ecoul>  (228) 
-6.41937

>  <r_i_glide_erotb>  (228) 
0.254787

>  <r_i_glide_esite>  (228) 
-0.0485315

>  <r_i_glide_emodel>  (228) 
-41.6748

>  <r_i_glide_energy>  (228) 
-31.7484

>  <r_i_glide_einternal>  (228) 
4.89648

>  <r_i_glide_intrahb_reward>  (228) 
-0.5

>  <i_i_glide_confnum>  (228) 
5

>  <i_i_glide_posenum>  (228) 
6

>  <r_i_glide_eff_state_penalty>  (228) 
0

>  <ligand_id>  (228) 
66

>  <original_smiles>  (228) 
O=C(CCN1CC=C(c2c[nH]c3ccccc23)CC1)N1c2ccccc2C2CC(c3[nH]ncc3-n3ccnc3)N3C(=O)CSC213

>  <smiles>  (228) 
[H]C1=C(c2c([H])n([H])c3c([H])c([H])c([H])c([H])c23)C([H])([H])C([H])([H])[N+]([H])(C([H])([H])C([H])([H])C(=O)N2c3c([H])c([H])c([H])c([H])c3C3([H])C24SC([H])([H])C(=O)N4C([H])(c2c(-n4c([H])c([H])[n+]([H])c4[H])c([H])nn2[H])C3([H])[H])C1([H])[H]

$$$$
66:2:1
     RDKit          3D

 79 87  0  0  1  0  0  0  0  0999 V2000
    1.5956   -1.0959    7.0018 O   0  0  0  0  0  0  0  0  0  0  0  0
    2.4391   -0.9334    6.1188 C   0  0  0  0  0  0  0  0  0  0  0  0
    3.8198   -1.5671    6.3330 C   0  0  0  0  0  0  0  0  0  0  0  0
    3.8558   -2.9593    6.9797 C   0  0  0  0  0  0  0  0  0  0  0  0
    3.2759   -3.9738    6.0610 N   0  0  1  0  0  0  0  0  0  0  0  0
    4.2886   -4.6263    5.1730 C   0  0  0  0  0  0  0  0  0  0  0  0
    3.7690   -5.8855    4.5024 C   0  0  0  0  0  0  0  0  0  0  0  0
    2.5615   -6.4398    4.7709 C   0  0  0  0  0  0  0  0  0  0  0  0
    2.0605   -7.6009    4.0117 C   0  0  0  0  0  0  0  0  0  0  0  0
    2.8381   -8.5330    3.3708 C   0  0  0  0  0  0  0  0  0  0  0  0
    1.9876   -9.4214    2.7310 N   0  0  0  0  0  0  0  0  0  0  0  0
    0.6629   -9.0607    2.9114 C   0  0  0  0  0  0  0  0  0  0  0  0
   -0.5359   -9.6514    2.4870 C   0  0  0  0  0  0  0  0  0  0  0  0
   -1.7632   -9.0504    2.7905 C   0  0  0  0  0  0  0  0  0  0  0  0
   -1.7861   -7.8571    3.5244 C   0  0  0  0  0  0  0  0  0  0  0  0
   -0.5874   -7.2693    3.9652 C   0  0  0  0  0  0  0  0  0  0  0  0
    0.6732   -7.8671    3.6989 C   0  0  0  0  0  0  0  0  0  0  0  0
    1.7134   -5.8863    5.9040 C   0  0  0  0  0  0  0  0  0  0  0  0
    2.5191   -4.9719    6.8235 C   0  0  0  0  0  0  0  0  0  0  0  0
    2.1868   -0.2770    4.9524 N   0  0  0  0  0  0  0  0  0  0  0  0
    0.9079    0.2019    4.5744 C   0  0  0  0  0  0  0  0  0  0  0  0
   -0.3523   -0.1425    5.1010 C   0  0  0  0  0  0  0  0  0  0  0  0
   -1.4956    0.4862    4.5902 C   0  0  0  0  0  0  0  0  0  0  0  0
   -1.3835    1.4325    3.5571 C   0  0  0  0  0  0  0  0  0  0  0  0
   -0.1337    1.7274    2.9872 C   0  0  0  0  0  0  0  0  0  0  0  0
    1.0018    1.0840    3.5047 C   0  0  0  0  0  0  0  0  0  0  0  0
    2.4150    1.2082    3.0199 C   0  0  2  0  0  0  0  0  0  0  0  0
    2.6508    0.6322    1.6088 C   0  0  0  0  0  0  0  0  0  0  0  0
    3.1479   -0.7995    1.8383 C   0  0  1  0  0  0  0  0  0  0  0  0
    3.9251   -1.4044    0.6592 C   0  0  0  0  0  0  0  0  0  0  0  0
    4.6454   -0.6398   -0.2414 N   0  0  0  0  0  0  0  0  0  0  0  0
    5.2922   -1.3425   -1.2067 N   0  0  0  0  0  0  0  0  0  0  0  0
    4.9920   -2.5893   -0.9330 C   0  0  0  0  0  0  0  0  0  0  0  0
    4.1596   -2.6883    0.2137 C   0  0  0  0  0  0  0  0  0  0  0  0
    3.6326   -3.8523    0.7720 N   0  0  0  0  0  0  0  0  0  0  0  0
    3.6832   -5.0884    0.1967 C   0  0  0  0  0  0  0  0  0  0  0  0
    3.0828   -5.9823    1.0779 C   0  0  0  0  0  0  0  0  0  0  0  0
    2.6750   -5.2338    2.1385 N   0  0  0  0  0  0  0  0  0  0  0  0
    3.0457   -3.9669    2.0000 C   0  0  0  0  0  0  0  0  0  0  0  0
    3.8663   -0.6742    3.1199 N   0  0  0  0  0  0  0  0  0  0  0  0
    5.1506   -1.0235    3.3613 C   0  0  0  0  0  0  0  0  0  0  0  0
    5.7417   -1.9730    2.8398 O   0  0  0  0  0  0  0  0  0  0  0  0
    5.8077   -0.1577    4.4257 C   0  0  0  0  0  0  0  0  0  0  0  0
    4.6162    1.1512    4.8398 S   0  0  0  0  0  0  0  0  0  0  0  0
    3.2128    0.3072    4.0119 C   0  0  2  0  0  0  0  0  0  0  0  0
    2.3147  -10.2443    2.2445 H   0  0  0  0  0  0  0  0  0  0  0  0
    4.6953    0.3683   -0.2169 H   0  0  0  0  0  0  0  0  0  0  0  0
    4.2475   -1.7886    5.3731 H   0  0  0  0  0  0  0  0  0  0  0  0
    4.4607   -0.9034    6.8946 H   0  0  0  0  0  0  0  0  0  0  0  0
    4.9052   -3.2234    7.1362 H   0  0  0  0  0  0  0  0  0  0  0  0
    3.3723   -2.9497    7.9495 H   0  0  0  0  0  0  0  0  0  0  0  0
    4.6029   -3.9420    4.3825 H   0  0  0  0  0  0  0  0  0  0  0  0
    5.1954   -4.8987    5.7104 H   0  0  0  0  0  0  0  0  0  0  0  0
    4.3991   -6.3032    3.7196 H   0  0  0  0  0  0  0  0  0  0  0  0
    3.9179   -8.6498    3.3361 H   0  0  0  0  0  0  0  0  0  0  0  0
   -0.5113  -10.5718    1.9129 H   0  0  0  0  0  0  0  0  0  0  0  0
   -2.6857   -9.5168    2.4723 H   0  0  0  0  0  0  0  0  0  0  0  0
   -2.7351   -7.4050    3.7804 H   0  0  0  0  0  0  0  0  0  0  0  0
   -0.6590   -6.3627    4.5400 H   0  0  0  0  0  0  0  0  0  0  0  0
    0.8823   -5.3264    5.4925 H   0  0  0  0  0  0  0  0  0  0  0  0
    1.3218   -6.7163    6.4935 H   0  0  0  0  0  0  0  0  0  0  0  0
    3.2411   -5.5509    7.3987 H   0  0  0  0  0  0  0  0  0  0  0  0
    1.8390   -4.4735    7.5136 H   0  0  0  0  0  0  0  0  0  0  0  0
   -0.4699   -0.8630    5.8942 H   0  0  0  0  0  0  0  0  0  0  0  0
   -2.4692    0.2335    4.9742 H   0  0  0  0  0  0  0  0  0  0  0  0
   -2.2767    1.9067    3.1780 H   0  0  0  0  0  0  0  0  0  0  0  0
   -0.0683    2.4437    2.1810 H   0  0  0  0  0  0  0  0  0  0  0  0
    2.7213    2.2561    3.0672 H   0  0  0  0  0  0  0  0  0  0  0  0
    1.7865    0.6911    0.9383 H   0  0  0  0  0  0  0  0  0  0  0  0
    3.4617    1.2156    1.1783 H   0  0  0  0  0  0  0  0  0  0  0  0
    2.2558   -1.4060    2.0056 H   0  0  0  0  0  0  0  0  0  0  0  0
    5.3552   -3.3982   -1.5633 H   0  0  0  0  0  0  0  0  0  0  0  0
    4.1753   -5.2998   -0.7545 H   0  0  0  0  0  0  0  0  0  0  0  0
    2.9756   -7.0530    1.0494 H   0  0  0  0  0  0  0  0  0  0  0  0
    2.9684   -3.2124    2.7668 H   0  0  0  0  0  0  0  0  0  0  0  0
    6.0016   -0.7309    5.3283 H   0  0  0  0  0  0  0  0  0  0  0  0
    6.7842    0.2487    4.0950 H   0  0  0  0  0  0  0  0  0  0  0  0
    2.6046   -3.5161    5.4577 H   0  0  0  0  0  0  0  0  0  0  0  0
    2.2655   -5.6309    2.9990 H   0  0  0  0  0  0  0  0  0  0  0  0
  1  2  2  0
  2  3  1  0
  2 20  1  0
  3  4  1  0
  3 48  1  0
  3 49  1  0
  4  5  1  0
  4 50  1  0
  4 51  1  0
  5 19  1  0
  5  6  1  0
  5 78  1  6
  6  7  1  0
  6 52  1  0
  6 53  1  0
  7  8  2  0
  7 54  1  0
  8  9  1  0
  8 18  1  0
  9 17  1  0
  9 10  2  0
 10 11  1  0
 10 55  1  0
 11 46  1  0
 11 12  1  0
 12 17  2  0
 12 13  1  0
 13 14  2  0
 13 56  1  0
 14 15  1  0
 14 57  1  0
 15 16  2  0
 15 58  1  0
 16 17  1  0
 16 59  1  0
 18 19  1  0
 18 60  1  0
 18 61  1  0
 19 62  1  0
 19 63  1  0
 20 45  1  0
 20 21  1  0
 21 26  1  0
 21 22  2  0
 22 23  1  0
 22 64  1  0
 23 24  2  0
 23 65  1  0
 24 25  1  0
 24 66  1  0
 25 26  2  0
 25 67  1  0
 26 27  1  0
 27 45  1  0
 27 28  1  0
 27 68  1  6
 28 29  1  0
 28 69  1  0
 28 70  1  0
 29 30  1  0
 29 40  1  0
 29 71  1  1
 30 34  2  0
 30 31  1  0
 31 47  1  0
 31 32  1  0
 32 33  2  0
 33 34  1  0
 33 72  1  0
 34 35  1  0
 35 39  1  0
 35 36  1  0
 36 37  2  0
 36 73  1  0
 37 38  1  0
 37 74  1  0
 38 39  2  0
 38 79  1  0
 39 75  1  0
 40 45  1  0
 40 41  1  0
 41 42  2  0
 41 43  1  0
 43 44  1  0
 43 76  1  0
 43 77  1  0
 45 44  1  1
M  CHG  2   5   1  38   1
M  END
>  <i_m_ct_stereo_status>  (229) 
1

>  <s_m_source_file>  (229) 
/var/tmp/pbs.5076255.sched01/tmp2672eyar/80wl2hclo4.sdf

>  <i_m_source_file_index>  (229) 
11

>  <i_lp_mmshare_version>  (229) 
48012

>  <i_f3d_flags>  (229) 
0

>  <s_epik_input>  (229) 
W2NIXTFbY0hdW2NIXVtjSF1jKGMxMiljKFtjSF1bbkhdMilDKFtDSDJdW0NIMl0zKT1bQ0hdW0NIMl1OM1tDSDJdW0NIMl1DKD1PKU40YyhbY0hdW2NIXVtjSF1bY0hdNSljNVtDQEBIXShbQ0BAXTQ2NylbQ0gyXVtDQEhdKE42Qyg9TylbQ0gyXVM3KWM4W25IXW5bY0hdYzgtbjlbY0hdW2NIXW5bY0hdOQ==

>  <s_epik_cmdline>  (229) 
J2VwaWtfcHl0aG9uJywgJy1waHQnLCAnMi4wJywgJy1waCcsICc3LjAnLCAnLXRuJywgJzgnLCAnLW1hJywgJzIwMCcsICctaW1hZScsICc8aW5maWxlLm1hZT4nLCAnLW9tYWUnLCAnPG91dGZpbGUubWFlPic=

>  <r_lp_tautomer_probability>  (229) 
1

>  <r_epik_Ionization_Penalty>  (229) 
2.01548

>  <r_epik_Ionization_Penalty_Charging>  (229) 
0.17264

>  <r_epik_Ionization_Penalty_Neutral>  (229) 
1.84284

>  <r_epik_State_Penalty>  (229) 
2.12176

>  <r_epik_Charging_Adjusted_Penalty>  (229) 
2.2944

>  <i_epik_Tot_Q>  (229) 
2

>  <i_epik_Tot_abs_Q>  (229) 
2

>  <s_lp_Force_Field>  (229) 
OPLS3e

>  <r_lp_Energy>  (229) 
46.5651

>  <b_lp_Chiralities_Consistent>  (229) 
1

>  <s_lp_Variant>  (229) 
66:0-3

>  <s_i_glide_gridfile>  (229) 
pfpi4k_grid

>  <i_i_glide_lignum>  (229) 
11

>  <i_i_glide_rotatable_bonds>  (229) 
7

>  <r_i_docking_score>  (229) 
-3.5664

>  <r_i_glide_ligand_efficiency>  (229) 
-0.0792533

>  <r_i_glide_ligand_efficiency_sa>  (229) 
-0.281895

>  <r_i_glide_ligand_efficiency_ln>  (229) 
-0.741969

>  <r_i_glide_gscore>  (229) 
-3.5664

>  <r_i_glide_lipo>  (229) 
-0.196028

>  <r_i_glide_hbond>  (229) 
-0.28259

>  <r_i_glide_metal>  (229) 
-0

>  <r_i_glide_rewards>  (229) 
-0.174866

>  <r_i_glide_evdw>  (229) 
-38.483

>  <r_i_glide_ecoul>  (229) 
-8.15027

>  <r_i_glide_erotb>  (229) 
0.254787

>  <r_i_glide_esite>  (229) 
-0.0210075

>  <r_i_glide_emodel>  (229) 
-49.9687

>  <r_i_glide_energy>  (229) 
-46.6333

>  <r_i_glide_einternal>  (229) 
5.7721

>  <r_i_glide_intrahb_reward>  (229) 
-0

>  <i_i_glide_confnum>  (229) 
5

>  <i_i_glide_posenum>  (229) 
36

>  <r_i_glide_eff_state_penalty>  (229) 
0

>  <ligand_id>  (229) 
66

>  <original_smiles>  (229) 
O=C(CCN1CC=C(c2c[nH]c3ccccc23)CC1)N1c2ccccc2C2CC(c3[nH]ncc3-n3ccnc3)N3C(=O)CSC213

>  <smiles>  (229) 
[H]C1=C(c2c([H])n([H])c3c([H])c([H])c([H])c([H])c23)C([H])([H])C([H])([H])[N+]([H])(C([H])([H])C([H])([H])C(=O)N2c3c([H])c([H])c([H])c([H])c3C3([H])C24SC([H])([H])C(=O)N4C([H])(c2c(-n4c([H])c([H])[n+]([H])c4[H])c([H])nn2[H])C3([H])[H])C1([H])[H]

$$$$
66:2:2
     RDKit          3D

 79 87  0  0  1  0  0  0  0  0999 V2000
    2.0883   -4.3370    8.4667 O   0  0  0  0  0  0  0  0  0  0  0  0
    2.3424   -4.9740    7.4493 C   0  0  0  0  0  0  0  0  0  0  0  0
    1.1490   -5.6569    6.7248 C   0  0  0  0  0  0  0  0  0  0  0  0
   -0.1212   -4.8164    6.6285 C   0  0  0  0  0  0  0  0  0  0  0  0
    0.1569   -3.4756    6.0678 N   0  0  1  0  0  0  0  0  0  0  0  0
    0.5802   -3.4750    4.6409 C   0  0  0  0  0  0  0  0  0  0  0  0
    0.6316   -2.0786    4.0439 C   0  0  0  0  0  0  0  0  0  0  0  0
    0.1011   -0.9944    4.6417 C   0  0  0  0  0  0  0  0  0  0  0  0
    0.1755    0.3283    3.9958 C   0  0  0  0  0  0  0  0  0  0  0  0
    0.4446    0.5670    2.6742 C   0  0  0  0  0  0  0  0  0  0  0  0
    0.4402    1.9464    2.4940 N   0  0  0  0  0  0  0  0  0  0  0  0
    0.1743    2.6049    3.6788 C   0  0  0  0  0  0  0  0  0  0  0  0
    0.0657    3.9669    3.9959 C   0  0  0  0  0  0  0  0  0  0  0  0
   -0.2097    4.3756    5.3130 C   0  0  0  0  0  0  0  0  0  0  0  0
   -0.3782    3.3993    6.3208 C   0  0  0  0  0  0  0  0  0  0  0  0
   -0.2684    2.0401    5.9957 C   0  0  0  0  0  0  0  0  0  0  0  0
    0.0027    1.5902    4.6770 C   0  0  0  0  0  0  0  0  0  0  0  0
   -0.6133   -1.1426    5.9709 C   0  0  0  0  0  0  0  0  0  0  0  0
   -0.9890   -2.5902    6.2823 C   0  0  0  0  0  0  0  0  0  0  0  0
    3.5804   -5.0707    6.8970 N   0  0  0  0  0  0  0  0  0  0  0  0
    4.6457   -4.1710    7.2273 C   0  0  0  0  0  0  0  0  0  0  0  0
    4.5795   -2.9306    7.9076 C   0  0  0  0  0  0  0  0  0  0  0  0
    5.7853   -2.2315    8.1535 C   0  0  0  0  0  0  0  0  0  0  0  0
    7.0160   -2.7580    7.7337 C   0  0  0  0  0  0  0  0  0  0  0  0
    7.0630   -3.9765    7.0197 C   0  0  0  0  0  0  0  0  0  0  0  0
    5.8453   -4.6480    6.7616 C   0  0  0  0  0  0  0  0  0  0  0  0
    5.6720   -5.9308    5.9829 C   0  0  2  0  0  0  0  0  0  0  0  0
    5.9734   -5.7908    4.4803 C   0  0  0  0  0  0  0  0  0  0  0  0
    4.6054   -5.5053    3.8229 C   0  0  1  0  0  0  0  0  0  0  0  0
    4.5795   -5.7927    2.3300 C   0  0  0  0  0  0  0  0  0  0  0  0
    4.7788   -7.0800    1.8220 N   0  0  0  0  0  0  0  0  0  0  0  0
    4.6561   -7.1683    0.4875 N   0  0  0  0  0  0  0  0  0  0  0  0
    4.4470   -5.9171    0.1017 C   0  0  0  0  0  0  0  0  0  0  0  0
    4.3772   -5.0425    1.2129 C   0  0  0  0  0  0  0  0  0  0  0  0
    4.1139   -3.6322    1.2021 N   0  0  0  0  0  0  0  0  0  0  0  0
    3.4898   -2.9899    0.1530 C   0  0  0  0  0  0  0  0  0  0  0  0
    3.4090   -1.6523    0.4890 C   0  0  0  0  0  0  0  0  0  0  0  0
    3.9829   -1.5396    1.7250 N   0  0  0  0  0  0  0  0  0  0  0  0
    4.4400   -2.7336    2.1239 C   0  0  0  0  0  0  0  0  0  0  0  0
    3.6888   -6.2540    4.6945 N   0  0  0  0  0  0  0  0  0  0  0  0
    2.7471   -7.1670    4.3023 C   0  0  0  0  0  0  0  0  0  0  0  0
    2.1626   -7.1936    3.2671 O   0  0  0  0  0  0  0  0  0  0  0  0
    2.5147   -8.2073    5.4182 C   0  0  0  0  0  0  0  0  0  0  0  0
    3.7082   -7.8586    6.7348 S   0  0  0  0  0  0  0  0  0  0  0  0
    4.1344   -6.2045    6.0756 C   0  0  2  0  0  0  0  0  0  0  0  0
    0.5757    2.4106    1.6040 H   0  0  0  0  0  0  0  0  0  0  0  0
    4.9162   -7.9099    2.3762 H   0  0  0  0  0  0  0  0  0  0  0  0
    1.3696   -5.7909    5.7036 H   0  0  0  0  0  0  0  0  0  0  0  0
    0.9067   -6.5990    7.2151 H   0  0  0  0  0  0  0  0  0  0  0  0
   -0.8045   -5.3353    5.9576 H   0  0  0  0  0  0  0  0  0  0  0  0
   -0.6203   -4.7698    7.6057 H   0  0  0  0  0  0  0  0  0  0  0  0
    1.5719   -3.9150    4.5019 H   0  0  0  0  0  0  0  0  0  0  0  0
   -0.1201   -4.0707    4.0565 H   0  0  0  0  0  0  0  0  0  0  0  0
    1.1120   -1.9957    3.0784 H   0  0  0  0  0  0  0  0  0  0  0  0
    0.6259   -0.1147    1.8412 H   0  0  0  0  0  0  0  0  0  0  0  0
    0.2084    4.6936    3.2075 H   0  0  0  0  0  0  0  0  0  0  0  0
   -0.2804    5.4258    5.5637 H   0  0  0  0  0  0  0  0  0  0  0  0
   -0.5812    3.6932    7.3406 H   0  0  0  0  0  0  0  0  0  0  0  0
   -0.3912    1.3364    6.8026 H   0  0  0  0  0  0  0  0  0  0  0  0
    0.0277   -0.7666    6.7702 H   0  0  0  0  0  0  0  0  0  0  0  0
   -1.5423   -0.5625    5.9636 H   0  0  0  0  0  0  0  0  0  0  0  0
   -1.8346   -2.9055    5.6834 H   0  0  0  0  0  0  0  0  0  0  0  0
   -1.2988   -2.6692    7.3214 H   0  0  0  0  0  0  0  0  0  0  0  0
    3.6519   -2.5050    8.2490 H   0  0  0  0  0  0  0  0  0  0  0  0
    5.7584   -1.2820    8.6719 H   0  0  0  0  0  0  0  0  0  0  0  0
    7.9286   -2.2225    7.9522 H   0  0  0  0  0  0  0  0  0  0  0  0
    8.0099   -4.3810    6.7018 H   0  0  0  0  0  0  0  0  0  0  0  0
    6.2699   -6.7217    6.4390 H   0  0  0  0  0  0  0  0  0  0  0  0
    6.7482   -5.0644    4.2347 H   0  0  0  0  0  0  0  0  0  0  0  0
    6.3416   -6.7523    4.1267 H   0  0  0  0  0  0  0  0  0  0  0  0
    4.3118   -4.4632    4.0028 H   0  0  0  0  0  0  0  0  0  0  0  0
    4.3583   -5.7089   -0.9550 H   0  0  0  0  0  0  0  0  0  0  0  0
    3.1565   -3.4941   -0.7437 H   0  0  0  0  0  0  0  0  0  0  0  0
    2.9889   -0.8235   -0.0579 H   0  0  0  0  0  0  0  0  0  0  0  0
    4.9842   -2.9131    3.0606 H   0  0  0  0  0  0  0  0  0  0  0  0
    1.4993   -8.0713    5.7901 H   0  0  0  0  0  0  0  0  0  0  0  0
    2.6001   -9.2347    5.0219 H   0  0  0  0  0  0  0  0  0  0  0  0
    0.9243   -3.0844    6.5935 H   0  0  0  0  0  0  0  0  0  0  0  0
    4.0605   -0.6688    2.2468 H   0  0  0  0  0  0  0  0  0  0  0  0
  1  2  2  0
  2  3  1  0
  2 20  1  0
  3  4  1  0
  3 48  1  0
  3 49  1  0
  4  5  1  0
  4 50  1  0
  4 51  1  0
  5 19  1  0
  5  6  1  0
  5 78  1  1
  6  7  1  0
  6 52  1  0
  6 53  1  0
  7  8  2  0
  7 54  1  0
  8  9  1  0
  8 18  1  0
  9 17  1  0
  9 10  2  0
 10 11  1  0
 10 55  1  0
 11 46  1  0
 11 12  1  0
 12 17  2  0
 12 13  1  0
 13 14  2  0
 13 56  1  0
 14 15  1  0
 14 57  1  0
 15 16  2  0
 15 58  1  0
 16 17  1  0
 16 59  1  0
 18 19  1  0
 18 60  1  0
 18 61  1  0
 19 62  1  0
 19 63  1  0
 20 45  1  0
 20 21  1  0
 21 26  1  0
 21 22  2  0
 22 23  1  0
 22 64  1  0
 23 24  2  0
 23 65  1  0
 24 25  1  0
 24 66  1  0
 25 26  2  0
 25 67  1  0
 26 27  1  0
 27 45  1  0
 27 28  1  0
 27 68  1  1
 28 29  1  0
 28 69  1  0
 28 70  1  0
 29 30  1  0
 29 40  1  0
 29 71  1  6
 30 34  2  0
 30 31  1  0
 31 47  1  0
 31 32  1  0
 32 33  2  0
 33 34  1  0
 33 72  1  0
 34 35  1  0
 35 39  1  0
 35 36  1  0
 36 37  2  0
 36 73  1  0
 37 38  1  0
 37 74  1  0
 38 39  2  0
 38 79  1  0
 39 75  1  0
 40 45  1  0
 40 41  1  0
 41 42  2  0
 41 43  1  0
 43 44  1  0
 43 76  1  0
 43 77  1  0
 45 44  1  1
M  CHG  2   5   1  38   1
M  END
>  <i_m_ct_stereo_status>  (230) 
1

>  <s_m_source_file>  (230) 
/var/tmp/pbs.5076255.sched01/tmp2672eyar/80wl2hclo4.sdf

>  <i_m_source_file_index>  (230) 
11

>  <i_lp_mmshare_version>  (230) 
48012

>  <i_f3d_flags>  (230) 
0

>  <s_epik_input>  (230) 
W2NIXTFbY0hdW2NIXVtjSF1jKGMxMiljKFtjSF1bbkhdMilDKFtDSDJdW0NIMl0zKT1bQ0hdW0NIMl1OM1tDSDJdW0NIMl1DKD1PKU40YyhbY0hdW2NIXVtjSF1bY0hdNSljNVtDQEBIXShbQ0BAXTQ2NylbQ0gyXVtDQEhdKE42Qyg9TylbQ0gyXVM3KWM4W25IXW5bY0hdYzgtbjlbY0hdW2NIXW5bY0hdOQ==

>  <s_epik_cmdline>  (230) 
J2VwaWtfcHl0aG9uJywgJy1waHQnLCAnMi4wJywgJy1waCcsICc3LjAnLCAnLXRuJywgJzgnLCAnLW1hJywgJzIwMCcsICctaW1hZScsICc8aW5maWxlLm1hZT4nLCAnLW9tYWUnLCAnPG91dGZpbGUubWFlPic=

>  <r_lp_tautomer_probability>  (230) 
1

>  <r_epik_Ionization_Penalty>  (230) 
2.01548

>  <r_epik_Ionization_Penalty_Charging>  (230) 
0.17264

>  <r_epik_Ionization_Penalty_Neutral>  (230) 
1.84284

>  <r_epik_State_Penalty>  (230) 
2.12176

>  <r_epik_Charging_Adjusted_Penalty>  (230) 
2.2944

>  <i_epik_Tot_Q>  (230) 
2

>  <i_epik_Tot_abs_Q>  (230) 
2

>  <s_lp_Force_Field>  (230) 
OPLS3e

>  <r_lp_Energy>  (230) 
46.5651

>  <b_lp_Chiralities_Consistent>  (230) 
1

>  <s_lp_Variant>  (230) 
66:0-3

>  <s_i_glide_gridfile>  (230) 
pfpi4k_grid

>  <i_i_glide_lignum>  (230) 
11

>  <i_i_glide_rotatable_bonds>  (230) 
7

>  <r_i_docking_score>  (230) 
-2.52641

>  <r_i_glide_ligand_efficiency>  (230) 
-0.0561424

>  <r_i_glide_ligand_efficiency_sa>  (230) 
-0.199693

>  <r_i_glide_ligand_efficiency_ln>  (230) 
-0.525606

>  <r_i_glide_gscore>  (230) 
-2.52641

>  <r_i_glide_lipo>  (230) 
-0.163485

>  <r_i_glide_hbond>  (230) 
-0.0866518

>  <r_i_glide_metal>  (230) 
-0

>  <r_i_glide_rewards>  (230) 
-0.0430872

>  <r_i_glide_evdw>  (230) 
-27.8618

>  <r_i_glide_ecoul>  (230) 
-6.64734

>  <r_i_glide_erotb>  (230) 
0.254787

>  <r_i_glide_esite>  (230) 
-0.09778

>  <r_i_glide_emodel>  (230) 
-38.0092

>  <r_i_glide_energy>  (230) 
-34.5092

>  <r_i_glide_einternal>  (230) 
3.41942

>  <r_i_glide_intrahb_reward>  (230) 
-0

>  <i_i_glide_confnum>  (230) 
5

>  <i_i_glide_posenum>  (230) 
11

>  <r_i_glide_eff_state_penalty>  (230) 
0

>  <ligand_id>  (230) 
66

>  <original_smiles>  (230) 
O=C(CCN1CC=C(c2c[nH]c3ccccc23)CC1)N1c2ccccc2C2CC(c3[nH]ncc3-n3ccnc3)N3C(=O)CSC213

>  <smiles>  (230) 
[H]C1=C(c2c([H])n([H])c3c([H])c([H])c([H])c([H])c23)C([H])([H])C([H])([H])[N+]([H])(C([H])([H])C([H])([H])C(=O)N2c3c([H])c([H])c([H])c([H])c3C3([H])C24SC([H])([H])C(=O)N4C([H])(c2c(-n4c([H])c([H])[n+]([H])c4[H])c([H])nn2[H])C3([H])[H])C1([H])[H]

$$$$
67:0:0
     RDKit          3D

 32 34  0  0  1  0  0  0  0  0999 V2000
    7.7801   -5.2137    1.2519 C   0  0  0  0  0  0  0  0  0  0  0  0
    6.3842   -5.4693    1.8117 C   0  0  0  0  0  0  0  0  0  0  0  0
    6.2734   -5.7481    3.0084 O   0  0  0  0  0  0  0  0  0  0  0  0
    5.3125   -5.3388    1.0023 N   0  0  0  0  0  0  0  0  0  0  0  0
    5.3879   -4.6997   -0.1988 N   0  0  0  0  0  0  0  0  0  0  0  0
    4.2343   -4.2535   -0.5236 C   0  0  0  0  0  0  0  0  0  0  0  0
    3.9332   -3.3486   -1.6594 C   0  0  0  0  0  0  0  0  0  0  0  0
    2.6562   -3.4156   -2.2503 C   0  0  0  0  0  0  0  0  0  0  0  0
    2.3936   -2.6003   -3.3603 C   0  0  0  0  0  0  0  0  0  0  0  0
    3.3942   -1.7106   -3.7926 C   0  0  0  0  0  0  0  0  0  0  0  0
    4.6088   -1.6348   -3.2224 N   0  0  0  0  0  0  0  0  0  0  0  0
    4.8917   -2.4366   -2.1752 C   0  0  0  0  0  0  0  0  0  0  0  0
    6.4841   -2.2598   -1.5216 Cl  0  0  0  0  0  0  0  0  0  0  0  0
    3.1457   -4.7093    0.3888 C   0  0  0  0  0  0  0  0  0  0  0  0
    3.9211   -5.4923    1.4476 C   0  0  1  0  0  0  0  0  0  0  0  0
    3.4327   -6.9072    1.6030 C   0  0  0  0  0  0  0  0  0  0  0  0
    4.0984   -8.0885    1.4112 C   0  0  0  0  0  0  0  0  0  0  0  0
    3.2950   -9.2359    1.6839 C   0  0  0  0  0  0  0  0  0  0  0  0
    2.0232   -8.9197    2.0786 C   0  0  0  0  0  0  0  0  0  0  0  0
    1.7932   -7.1943    2.1313 S   0  0  0  0  0  0  0  0  0  0  0  0
    7.8453   -4.2245    0.7967 H   0  0  0  0  0  0  0  0  0  0  0  0
    8.0554   -5.9662    0.5101 H   0  0  0  0  0  0  0  0  0  0  0  0
    8.5073   -5.2505    2.0624 H   0  0  0  0  0  0  0  0  0  0  0  0
    1.8857   -4.0989   -1.9135 H   0  0  0  0  0  0  0  0  0  0  0  0
    1.4294   -2.6457   -3.8575 H   0  0  0  0  0  0  0  0  0  0  0  0
    3.2150   -1.0494   -4.6281 H   0  0  0  0  0  0  0  0  0  0  0  0
    2.6159   -3.8674    0.8387 H   0  0  0  0  0  0  0  0  0  0  0  0
    2.4314   -5.3375   -0.1496 H   0  0  0  0  0  0  0  0  0  0  0  0
    3.8037   -4.9767    2.4004 H   0  0  0  0  0  0  0  0  0  0  0  0
    5.1270   -8.1872    1.0928 H   0  0  0  0  0  0  0  0  0  0  0  0
    3.6706  -10.2463    1.5829 H   0  0  0  0  0  0  0  0  0  0  0  0
    1.2076   -9.5897    2.3346 H   0  0  0  0  0  0  0  0  0  0  0  0
  1  2  1  0
  1 21  1  0
  1 22  1  0
  1 23  1  0
  2  3  2  0
  2  4  1  0
  4 15  1  0
  4  5  1  0
  5  6  2  0
  6  7  1  0
  6 14  1  0
  7 12  1  0
  7  8  2  0
  8  9  1  0
  8 24  1  0
  9 10  2  0
  9 25  1  0
 10 11  1  0
 10 26  1  0
 11 12  2  0
 12 13  1  0
 14 15  1  0
 14 27  1  0
 14 28  1  0
 15 16  1  0
 15 29  1  1
 16 20  1  0
 16 17  2  0
 17 18  1  0
 17 30  1  0
 18 19  2  0
 18 31  1  0
 19 20  1  0
 19 32  1  0
M  END
>  <i_m_ct_stereo_status>  (231) 
1

>  <s_m_source_file>  (231) 
/var/tmp/pbs.5076255.sched01/tmp2672eyar/80wl2hclo4.sdf

>  <i_m_source_file_index>  (231) 
12

>  <i_lp_mmshare_version>  (231) 
48012

>  <i_f3d_flags>  (231) 
0

>  <s_epik_input>  (231) 
czFbY0hdW2NIXVtjSF1jMVtDQEBIXTJbQ0gyXUMoPU5OMkMoPU8pW0NIM10pYzNbY0hdW2NIXVtjSF1uYzNDbA==

>  <s_epik_cmdline>  (231) 
J2VwaWtfcHl0aG9uJywgJy1waHQnLCAnMi4wJywgJy1waCcsICc3LjAnLCAnLXRuJywgJzgnLCAnLW1hJywgJzIwMCcsICctaW1hZScsICc8aW5maWxlLm1hZT4nLCAnLW9tYWUnLCAnPG91dGZpbGUubWFlPic=

>  <r_lp_tautomer_probability>  (231) 
1

>  <r_epik_Ionization_Penalty>  (231) 
4.64776e-08

>  <r_epik_Ionization_Penalty_Charging>  (231) 
0

>  <r_epik_Ionization_Penalty_Neutral>  (231) 
4.64776e-08

>  <r_epik_State_Penalty>  (231) 
-0

>  <r_epik_Charging_Adjusted_Penalty>  (231) 
0

>  <i_epik_Tot_Q>  (231) 
0

>  <i_epik_Tot_abs_Q>  (231) 
0

>  <s_epik_Chemistry_Notes>  (231) 
This compound has an imine and may undergo hydrolysis.

>  <s_lp_Force_Field>  (231) 
OPLS3e

>  <r_lp_Energy>  (231) 
20.0564

>  <b_lp_Chiralities_Consistent>  (231) 
1

>  <s_lp_Variant>  (231) 
67:0-1

>  <s_i_glide_gridfile>  (231) 
pfpi4k_grid

>  <i_i_glide_lignum>  (231) 
12

>  <i_i_glide_rotatable_bonds>  (231) 
3

>  <r_i_docking_score>  (231) 
-3.84254

>  <r_i_glide_ligand_efficiency>  (231) 
-0.192127

>  <r_i_glide_ligand_efficiency_sa>  (231) 
-0.521513

>  <r_i_glide_ligand_efficiency_ln>  (231) 
-0.961661

>  <r_i_glide_gscore>  (231) 
-3.84254

>  <r_i_glide_lipo>  (231) 
-0.708975

>  <r_i_glide_hbond>  (231) 
0

>  <r_i_glide_metal>  (231) 
-0

>  <r_i_glide_rewards>  (231) 
-1.51028

>  <r_i_glide_evdw>  (231) 
-28.7218

>  <r_i_glide_ecoul>  (231) 
-3.75732

>  <r_i_glide_erotb>  (231) 
0.394901

>  <r_i_glide_esite>  (231) 
-0.0184965

>  <r_i_glide_emodel>  (231) 
-39.877

>  <r_i_glide_energy>  (231) 
-32.4791

>  <r_i_glide_einternal>  (231) 
0.416056

>  <r_i_glide_intrahb_reward>  (231) 
-0

>  <i_i_glide_confnum>  (231) 
6

>  <i_i_glide_posenum>  (231) 
19

>  <r_i_glide_eff_state_penalty>  (231) 
0

>  <ligand_id>  (231) 
67

>  <original_smiles>  (231) 
CC(=O)N1N=C(c2cccnc2Cl)CC1c1cccs1

>  <smiles>  (231) 
[H]c1nc(Cl)c(C2=NN(C(=O)C([H])([H])[H])C([H])(c3sc([H])c([H])c3[H])C2([H])[H])c([H])c1[H]

$$$$
67:0:1
     RDKit          3D

 32 34  0  0  1  0  0  0  0  0999 V2000
    6.6019   -6.0353    3.1796 C   0  0  0  0  0  0  0  0  0  0  0  0
    6.6938   -5.3877    1.7927 C   0  0  0  0  0  0  0  0  0  0  0  0
    7.8109   -5.0692    1.3630 O   0  0  0  0  0  0  0  0  0  0  0  0
    5.5553   -5.2659    1.0731 N   0  0  0  0  0  0  0  0  0  0  0  0
    5.5497   -4.6627   -0.1392 N   0  0  0  0  0  0  0  0  0  0  0  0
    4.3758   -4.2586   -0.4267 C   0  0  0  0  0  0  0  0  0  0  0  0
    4.0229   -3.3785   -1.5566 C   0  0  0  0  0  0  0  0  0  0  0  0
    2.7168   -3.4514   -2.0804 C   0  0  0  0  0  0  0  0  0  0  0  0
    2.3923   -2.6522   -3.1860 C   0  0  0  0  0  0  0  0  0  0  0  0
    3.3650   -1.7706   -3.6908 C   0  0  0  0  0  0  0  0  0  0  0  0
    4.6148   -1.6796   -3.1777 N   0  0  0  0  0  0  0  0  0  0  0  0
    4.9464   -2.4612   -2.1287 C   0  0  0  0  0  0  0  0  0  0  0  0
    6.5658   -2.2684   -1.5338 Cl  0  0  0  0  0  0  0  0  0  0  0  0
    3.3412   -4.6891    0.5514 C   0  0  0  0  0  0  0  0  0  0  0  0
    4.1819   -5.4240    1.5937 C   0  0  1  0  0  0  0  0  0  0  0  0
    3.7437   -6.8513    1.8060 C   0  0  0  0  0  0  0  0  0  0  0  0
    2.8022   -7.2878    2.7044 C   0  0  0  0  0  0  0  0  0  0  0  0
    2.5719   -8.6975    2.6662 C   0  0  0  0  0  0  0  0  0  0  0  0
    3.3463   -9.3319    1.7334 C   0  0  0  0  0  0  0  0  0  0  0  0
    4.3754   -8.2051    0.8908 S   0  0  0  0  0  0  0  0  0  0  0  0
    6.3368   -7.0978    3.1025 H   0  0  0  0  0  0  0  0  0  0  0  0
    5.8524   -5.5417    3.7977 H   0  0  0  0  0  0  0  0  0  0  0  0
    7.5565   -5.9441    3.7008 H   0  0  0  0  0  0  0  0  0  0  0  0
    1.9705   -4.1242   -1.6836 H   0  0  0  0  0  0  0  0  0  0  0  0
    1.4184   -2.7058   -3.6385 H   0  0  0  0  0  0  0  0  0  0  0  0
    3.1424   -1.1241   -4.5280 H   0  0  0  0  0  0  0  0  0  0  0  0
    2.8669   -3.8285    1.0199 H   0  0  0  0  0  0  0  0  0  0  0  0
    2.5883   -5.3293    0.0857 H   0  0  0  0  0  0  0  0  0  0  0  0
    4.0719   -4.8772    2.5375 H   0  0  0  0  0  0  0  0  0  0  0  0
    2.2654   -6.6435    3.3813 H   0  0  0  0  0  0  0  0  0  0  0  0
    1.8637   -9.1884    3.3183 H   0  0  0  0  0  0  0  0  0  0  0  0
    3.3920  -10.3890    1.4986 H   0  0  0  0  0  0  0  0  0  0  0  0
  1  2  1  0
  1 21  1  0
  1 22  1  0
  1 23  1  0
  2  3  2  0
  2  4  1  0
  4 15  1  0
  4  5  1  0
  5  6  2  0
  6  7  1  0
  6 14  1  0
  7 12  1  0
  7  8  2  0
  8  9  1  0
  8 24  1  0
  9 10  2  0
  9 25  1  0
 10 11  1  0
 10 26  1  0
 11 12  2  0
 12 13  1  0
 14 15  1  0
 14 27  1  0
 14 28  1  0
 15 16  1  0
 15 29  1  1
 16 20  1  0
 16 17  2  0
 17 18  1  0
 17 30  1  0
 18 19  2  0
 18 31  1  0
 19 20  1  0
 19 32  1  0
M  END
>  <i_m_ct_stereo_status>  (232) 
1

>  <s_m_source_file>  (232) 
/var/tmp/pbs.5076255.sched01/tmp2672eyar/80wl2hclo4.sdf

>  <i_m_source_file_index>  (232) 
12

>  <i_lp_mmshare_version>  (232) 
48012

>  <i_f3d_flags>  (232) 
0

>  <s_epik_input>  (232) 
czFbY0hdW2NIXVtjSF1jMVtDQEBIXTJbQ0gyXUMoPU5OMkMoPU8pW0NIM10pYzNbY0hdW2NIXVtjSF1uYzNDbA==

>  <s_epik_cmdline>  (232) 
J2VwaWtfcHl0aG9uJywgJy1waHQnLCAnMi4wJywgJy1waCcsICc3LjAnLCAnLXRuJywgJzgnLCAnLW1hJywgJzIwMCcsICctaW1hZScsICc8aW5maWxlLm1hZT4nLCAnLW9tYWUnLCAnPG91dGZpbGUubWFlPic=

>  <r_lp_tautomer_probability>  (232) 
1

>  <r_epik_Ionization_Penalty>  (232) 
4.64776e-08

>  <r_epik_Ionization_Penalty_Charging>  (232) 
0

>  <r_epik_Ionization_Penalty_Neutral>  (232) 
4.64776e-08

>  <r_epik_State_Penalty>  (232) 
-0

>  <r_epik_Charging_Adjusted_Penalty>  (232) 
0

>  <i_epik_Tot_Q>  (232) 
0

>  <i_epik_Tot_abs_Q>  (232) 
0

>  <s_epik_Chemistry_Notes>  (232) 
This compound has an imine and may undergo hydrolysis.

>  <s_lp_Force_Field>  (232) 
OPLS3e

>  <r_lp_Energy>  (232) 
20.0564

>  <b_lp_Chiralities_Consistent>  (232) 
1

>  <s_lp_Variant>  (232) 
67:0-1

>  <s_i_glide_gridfile>  (232) 
pfpi4k_grid

>  <i_i_glide_lignum>  (232) 
12

>  <i_i_glide_rotatable_bonds>  (232) 
3

>  <r_i_docking_score>  (232) 
-3.66879

>  <r_i_glide_ligand_efficiency>  (232) 
-0.18344

>  <r_i_glide_ligand_efficiency_sa>  (232) 
-0.497931

>  <r_i_glide_ligand_efficiency_ln>  (232) 
-0.918177

>  <r_i_glide_gscore>  (232) 
-3.66879

>  <r_i_glide_lipo>  (232) 
-0.535336

>  <r_i_glide_hbond>  (232) 
0

>  <r_i_glide_metal>  (232) 
-0

>  <r_i_glide_rewards>  (232) 
-1.52176

>  <r_i_glide_evdw>  (232) 
-27.3727

>  <r_i_glide_ecoul>  (232) 
-4.18779

>  <r_i_glide_erotb>  (232) 
0.394901

>  <r_i_glide_esite>  (232) 
-0.00979901

>  <r_i_glide_emodel>  (232) 
-36.6791

>  <r_i_glide_energy>  (232) 
-31.5604

>  <r_i_glide_einternal>  (232) 
4.19795

>  <r_i_glide_intrahb_reward>  (232) 
-0

>  <i_i_glide_confnum>  (232) 
6

>  <i_i_glide_posenum>  (232) 
1

>  <r_i_glide_eff_state_penalty>  (232) 
0

>  <ligand_id>  (232) 
67

>  <original_smiles>  (232) 
CC(=O)N1N=C(c2cccnc2Cl)CC1c1cccs1

>  <smiles>  (232) 
[H]c1nc(Cl)c(C2=NN(C(=O)C([H])([H])[H])C([H])(c3sc([H])c([H])c3[H])C2([H])[H])c([H])c1[H]

$$$$
67:0:2
     RDKit          3D

 32 34  0  0  1  0  0  0  0  0999 V2000
    7.4680   -3.0196   -1.8422 C   0  0  0  0  0  0  0  0  0  0  0  0
    7.0619   -3.1158   -0.3733 C   0  0  0  0  0  0  0  0  0  0  0  0
    7.9504   -3.0429    0.4775 O   0  0  0  0  0  0  0  0  0  0  0  0
    5.7436   -3.2531   -0.0781 N   0  0  0  0  0  0  0  0  0  0  0  0
    5.3305   -3.4423    1.2064 N   0  0  0  0  0  0  0  0  0  0  0  0
    4.1822   -4.0055    1.1965 C   0  0  0  0  0  0  0  0  0  0  0  0
    3.4647   -4.4430    2.3994 C   0  0  0  0  0  0  0  0  0  0  0  0
    2.9958   -3.4586    3.2874 C   0  0  0  0  0  0  0  0  0  0  0  0
    2.3172   -3.8860    4.4407 C   0  0  0  0  0  0  0  0  0  0  0  0
    2.1540   -5.2652    4.6550 C   0  0  0  0  0  0  0  0  0  0  0  0
    2.6041   -6.2060    3.7987 N   0  0  0  0  0  0  0  0  0  0  0  0
    3.2586   -5.8129    2.6848 C   0  0  0  0  0  0  0  0  0  0  0  0
    3.8382   -7.0708    1.6467 Cl  0  0  0  0  0  0  0  0  0  0  0  0
    3.5963   -4.2077   -0.1561 C   0  0  0  0  0  0  0  0  0  0  0  0
    4.7096   -3.6615   -1.0492 C   0  0  1  0  0  0  0  0  0  0  0  0
    4.2384   -2.5890   -1.9994 C   0  0  0  0  0  0  0  0  0  0  0  0
    4.4478   -1.2326   -1.9837 C   0  0  0  0  0  0  0  0  0  0  0  0
    3.8311   -0.5474   -3.0762 C   0  0  0  0  0  0  0  0  0  0  0  0
    3.1498   -1.3824   -3.9131 C   0  0  0  0  0  0  0  0  0  0  0  0
    3.2701   -3.0392   -3.3847 S   0  0  0  0  0  0  0  0  0  0  0  0
    7.1154   -2.0875   -2.2814 H   0  0  0  0  0  0  0  0  0  0  0  0
    7.0813   -3.8340   -2.4397 H   0  0  0  0  0  0  0  0  0  0  0  0
    8.5576   -3.0377   -1.9189 H   0  0  0  0  0  0  0  0  0  0  0  0
    3.1527   -2.4110    3.0848 H   0  0  0  0  0  0  0  0  0  0  0  0
    1.9311   -3.1688    5.1495 H   0  0  0  0  0  0  0  0  0  0  0  0
    1.6395   -5.6282    5.5333 H   0  0  0  0  0  0  0  0  0  0  0  0
    3.4306   -5.2622   -0.3768 H   0  0  0  0  0  0  0  0  0  0  0  0
    2.6522   -3.6619   -0.2562 H   0  0  0  0  0  0  0  0  0  0  0  0
    5.0836   -4.4981   -1.6425 H   0  0  0  0  0  0  0  0  0  0  0  0
    5.0045   -0.6961   -1.2313 H   0  0  0  0  0  0  0  0  0  0  0  0
    3.8781    0.5284   -3.1940 H   0  0  0  0  0  0  0  0  0  0  0  0
    2.5515   -1.1254   -4.7801 H   0  0  0  0  0  0  0  0  0  0  0  0
  1  2  1  0
  1 21  1  0
  1 22  1  0
  1 23  1  0
  2  3  2  0
  2  4  1  0
  4 15  1  0
  4  5  1  0
  5  6  2  0
  6  7  1  0
  6 14  1  0
  7 12  1  0
  7  8  2  0
  8  9  1  0
  8 24  1  0
  9 10  2  0
  9 25  1  0
 10 11  1  0
 10 26  1  0
 11 12  2  0
 12 13  1  0
 14 15  1  0
 14 27  1  0
 14 28  1  0
 15 16  1  0
 15 29  1  6
 16 20  1  0
 16 17  2  0
 17 18  1  0
 17 30  1  0
 18 19  2  0
 18 31  1  0
 19 20  1  0
 19 32  1  0
M  END
>  <i_m_ct_stereo_status>  (233) 
1

>  <s_m_source_file>  (233) 
/var/tmp/pbs.5076255.sched01/tmp2672eyar/80wl2hclo4.sdf

>  <i_m_source_file_index>  (233) 
12

>  <i_lp_mmshare_version>  (233) 
48012

>  <i_f3d_flags>  (233) 
0

>  <s_epik_input>  (233) 
czFbY0hdW2NIXVtjSF1jMVtDQEBIXTJbQ0gyXUMoPU5OMkMoPU8pW0NIM10pYzNbY0hdW2NIXVtjSF1uYzNDbA==

>  <s_epik_cmdline>  (233) 
J2VwaWtfcHl0aG9uJywgJy1waHQnLCAnMi4wJywgJy1waCcsICc3LjAnLCAnLXRuJywgJzgnLCAnLW1hJywgJzIwMCcsICctaW1hZScsICc8aW5maWxlLm1hZT4nLCAnLW9tYWUnLCAnPG91dGZpbGUubWFlPic=

>  <r_lp_tautomer_probability>  (233) 
1

>  <r_epik_Ionization_Penalty>  (233) 
4.64776e-08

>  <r_epik_Ionization_Penalty_Charging>  (233) 
0

>  <r_epik_Ionization_Penalty_Neutral>  (233) 
4.64776e-08

>  <r_epik_State_Penalty>  (233) 
-0

>  <r_epik_Charging_Adjusted_Penalty>  (233) 
0

>  <i_epik_Tot_Q>  (233) 
0

>  <i_epik_Tot_abs_Q>  (233) 
0

>  <s_epik_Chemistry_Notes>  (233) 
This compound has an imine and may undergo hydrolysis.

>  <s_lp_Force_Field>  (233) 
OPLS3e

>  <r_lp_Energy>  (233) 
20.0564

>  <b_lp_Chiralities_Consistent>  (233) 
1

>  <s_lp_Variant>  (233) 
67:0-1

>  <s_i_glide_gridfile>  (233) 
pfpi4k_grid

>  <i_i_glide_lignum>  (233) 
12

>  <i_i_glide_rotatable_bonds>  (233) 
3

>  <r_i_docking_score>  (233) 
-3.41225

>  <r_i_glide_ligand_efficiency>  (233) 
-0.170612

>  <r_i_glide_ligand_efficiency_sa>  (233) 
-0.463114

>  <r_i_glide_ligand_efficiency_ln>  (233) 
-0.853974

>  <r_i_glide_gscore>  (233) 
-3.41225

>  <r_i_glide_lipo>  (233) 
-0.475443

>  <r_i_glide_hbond>  (233) 
0

>  <r_i_glide_metal>  (233) 
-0

>  <r_i_glide_rewards>  (233) 
-1.56463

>  <r_i_glide_evdw>  (233) 
-28.1464

>  <r_i_glide_ecoul>  (233) 
-2.39836

>  <r_i_glide_erotb>  (233) 
0.394901

>  <r_i_glide_esite>  (233) 
0

>  <r_i_glide_emodel>  (233) 
-35.292

>  <r_i_glide_energy>  (233) 
-30.5447

>  <r_i_glide_einternal>  (233) 
3.77755

>  <r_i_glide_intrahb_reward>  (233) 
-0

>  <i_i_glide_confnum>  (233) 
5

>  <i_i_glide_posenum>  (233) 
15

>  <r_i_glide_eff_state_penalty>  (233) 
0

>  <ligand_id>  (233) 
67

>  <original_smiles>  (233) 
CC(=O)N1N=C(c2cccnc2Cl)CC1c1cccs1

>  <smiles>  (233) 
[H]c1nc(Cl)c(C2=NN(C(=O)C([H])([H])[H])C([H])(c3sc([H])c([H])c3[H])C2([H])[H])c([H])c1[H]

$$$$
68:0:0
     RDKit          3D

 53 56  0  0  1  0  0  0  0  0999 V2000
   -2.7354    2.2563    7.6960 C   0  0  0  0  0  0  0  0  0  0  0  0
   -2.4193    3.3769    6.7055 C   0  0  0  0  0  0  0  0  0  0  0  0
   -1.6859    2.8914    5.4781 C   0  0  0  0  0  0  0  0  0  0  0  0
   -2.3038    2.9021    4.2101 C   0  0  0  0  0  0  0  0  0  0  0  0
   -1.5734    2.4438    3.1017 C   0  0  0  0  0  0  0  0  0  0  0  0
   -0.2573    1.9902    3.3012 C   0  0  0  0  0  0  0  0  0  0  0  0
    0.2738    2.0420    4.6113 C   0  0  0  0  0  0  0  0  0  0  0  0
   -0.4191    2.4757    5.6799 N   0  0  0  0  0  0  0  0  0  0  0  0
    1.6739    1.5499    4.8860 C   0  0  0  0  0  0  0  0  0  0  0  0
    2.4914    1.4717    3.6023 C   0  0  0  0  0  0  0  0  0  0  0  0
    1.7645    0.7243    2.5347 N   0  0  2  0  0  0  0  0  0  0  0  0
    2.6577    0.3783    1.3924 C   0  0  0  0  0  0  0  0  0  0  0  0
    3.2495   -1.0616    1.4081 C   0  0  1  0  0  0  0  0  0  0  0  0
    2.2174   -1.9027    0.9320 O   0  0  0  0  0  0  0  0  0  0  0  0
    4.3980   -1.1105    0.3561 C   0  0  0  0  0  0  0  0  0  0  0  0
    4.9236   -2.4425    0.1238 N   0  0  0  0  0  0  0  0  0  0  0  0
    5.9269   -3.0990    0.6978 C   0  0  0  0  0  0  0  0  0  0  0  0
    6.1285   -4.3174    0.2011 N   0  0  0  0  0  0  0  0  0  0  0  0
    5.1228   -4.3412   -0.7303 C   0  0  0  0  0  0  0  0  0  0  0  0
    4.3910   -3.2391   -0.8391 N   0  0  0  0  0  0  0  0  0  0  0  0
    3.7273   -1.5061    2.8085 C   0  0  0  0  0  0  0  0  0  0  0  0
    3.0011   -2.4963    3.5225 C   0  0  0  0  0  0  0  0  0  0  0  0
    3.3737   -2.8690    4.8267 C   0  0  0  0  0  0  0  0  0  0  0  0
    4.4771   -2.2585    5.4427 C   0  0  0  0  0  0  0  0  0  0  0  0
    4.8247   -2.5923    6.7059 F   0  0  0  0  0  0  0  0  0  0  0  0
    5.2045   -1.2705    4.7530 C   0  0  0  0  0  0  0  0  0  0  0  0
    4.8519   -0.9148    3.4394 C   0  0  0  0  0  0  0  0  0  0  0  0
    5.5378    0.0759    2.8326 F   0  0  0  0  0  0  0  0  0  0  0  0
    0.5709    1.5105    2.1131 C   0  0  0  0  0  0  0  0  0  0  0  0
   -3.2770    2.6511    8.5551 H   0  0  0  0  0  0  0  0  0  0  0  0
   -1.8214    1.7882    8.0615 H   0  0  0  0  0  0  0  0  0  0  0  0
   -3.3521    1.4914    7.2263 H   0  0  0  0  0  0  0  0  0  0  0  0
   -3.3531    3.8240    6.3764 H   0  0  0  0  0  0  0  0  0  0  0  0
   -1.8230    4.1557    7.1832 H   0  0  0  0  0  0  0  0  0  0  0  0
   -3.3178    3.2380    4.0754 H   0  0  0  0  0  0  0  0  0  0  0  0
   -2.0108    2.4301    2.1136 H   0  0  0  0  0  0  0  0  0  0  0  0
    2.1895    2.2083    5.5843 H   0  0  0  0  0  0  0  0  0  0  0  0
    1.6205    0.5678    5.3586 H   0  0  0  0  0  0  0  0  0  0  0  0
    2.7319    2.4691    3.2251 H   0  0  0  0  0  0  0  0  0  0  0  0
    3.4329    1.0314    3.8857 H   0  0  0  0  0  0  0  0  0  0  0  0
    2.0846    0.4658    0.4787 H   0  0  0  0  0  0  0  0  0  0  0  0
    3.4445    1.1341    1.2833 H   0  0  0  0  0  0  0  0  0  0  0  0
    1.7368   -1.4866    0.1937 H   0  0  0  0  0  0  0  0  0  0  0  0
    4.0596   -0.6990   -0.5963 H   0  0  0  0  0  0  0  0  0  0  0  0
    5.2323   -0.4691    0.6467 H   0  0  0  0  0  0  0  0  0  0  0  0
    6.5400   -2.6816    1.4865 H   0  0  0  0  0  0  0  0  0  0  0  0
    4.9563   -5.1958   -1.3738 H   0  0  0  0  0  0  0  0  0  0  0  0
    2.1236   -2.9618    3.0984 H   0  0  0  0  0  0  0  0  0  0  0  0
    2.8059   -3.6169    5.3532 H   0  0  0  0  0  0  0  0  0  0  0  0
    6.0145   -0.7562    5.2489 H   0  0  0  0  0  0  0  0  0  0  0  0
   -0.0590    0.9528    1.4091 H   0  0  0  0  0  0  0  0  0  0  0  0
    0.9260    2.4021    1.5956 H   0  0  0  0  0  0  0  0  0  0  0  0
    1.4053   -0.1507    2.8971 H   0  0  0  0  0  0  0  0  0  0  0  0
  1  2  1  0
  1 30  1  0
  1 31  1  0
  1 32  1  0
  2  3  1  0
  2 33  1  0
  2 34  1  0
  3  8  2  0
  3  4  1  0
  4  5  2  0
  4 35  1  0
  5  6  1  0
  5 36  1  0
  6 29  1  0
  6  7  2  0
  7  8  1  0
  7  9  1  0
  9 10  1  0
  9 37  1  0
  9 38  1  0
 10 11  1  0
 10 39  1  0
 10 40  1  0
 11 12  1  0
 11 29  1  0
 11 53  1  1
 12 13  1  0
 12 41  1  0
 12 42  1  0
 13 14  1  6
 13 15  1  0
 13 21  1  0
 14 43  1  0
 15 16  1  0
 15 44  1  0
 15 45  1  0
 16 20  1  0
 16 17  1  0
 17 18  2  0
 17 46  1  0
 18 19  1  0
 19 20  2  0
 19 47  1  0
 21 27  1  0
 21 22  2  0
 22 23  1  0
 22 48  1  0
 23 24  2  0
 23 49  1  0
 24 25  1  0
 24 26  1  0
 26 27  2  0
 26 50  1  0
 27 28  1  0
 29 51  1  0
 29 52  1  0
M  CHG  1  11   1
M  END
>  <i_m_ct_stereo_status>  (234) 
1

>  <s_m_source_file>  (234) 
/var/tmp/pbs.5076255.sched01/tmp2672eyar/80wl2hclo4.sdf

>  <i_m_source_file_index>  (234) 
13

>  <i_lp_mmshare_version>  (234) 
48012

>  <i_f3d_flags>  (234) 
0

>  <s_epik_input>  (234) 
W0NIM11bQ0gyXWMoW2NIXVtjSF0xKW5jKGMxMilbQ0gyXVtDSDJdTihbQ0gyXTIpW0NIMl1bQ0BAXShbT0hdKShbQ0gyXW4zW2NIXW5bY0hdbjMpYzRbY0hdW2NIXWMoRilbY0hdYzRG

>  <s_epik_cmdline>  (234) 
J2VwaWtfcHl0aG9uJywgJy1waHQnLCAnMi4wJywgJy1waCcsICc3LjAnLCAnLXRuJywgJzgnLCAnLW1hJywgJzIwMCcsICctaW1hZScsICc8aW5maWxlLm1hZT4nLCAnLW9tYWUnLCAnPG91dGZpbGUubWFlPic=

>  <r_lp_tautomer_probability>  (234) 
1

>  <r_epik_Ionization_Penalty>  (234) 
0.0365102

>  <r_epik_Ionization_Penalty_Charging>  (234) 
0.0362413

>  <r_epik_Ionization_Penalty_Neutral>  (234) 
0.000268972

>  <r_epik_State_Penalty>  (234) 
0.00743503

>  <r_epik_Charging_Adjusted_Penalty>  (234) 
0.0436763

>  <i_epik_Tot_Q>  (234) 
1

>  <i_epik_Tot_abs_Q>  (234) 
1

>  <s_lp_Force_Field>  (234) 
OPLS3e

>  <r_lp_Energy>  (234) 
35.949

>  <b_lp_Chiralities_Consistent>  (234) 
1

>  <s_lp_Variant>  (234) 
68:0-1

>  <s_i_glide_gridfile>  (234) 
pfpi4k_grid

>  <i_i_glide_lignum>  (234) 
13

>  <i_i_glide_rotatable_bonds>  (234) 
7

>  <r_i_docking_score>  (234) 
-3.28565

>  <r_i_glide_ligand_efficiency>  (234) 
-0.113298

>  <r_i_glide_ligand_efficiency_sa>  (234) 
-0.348088

>  <r_i_glide_ligand_efficiency_ln>  (234) 
-0.752331

>  <r_i_glide_gscore>  (234) 
-3.28565

>  <r_i_glide_lipo>  (234) 
-0.29733

>  <r_i_glide_hbond>  (234) 
-0.146128

>  <r_i_glide_metal>  (234) 
-0

>  <r_i_glide_rewards>  (234) 
-0.933093

>  <r_i_glide_evdw>  (234) 
-21.0856

>  <r_i_glide_ecoul>  (234) 
-9.64778

>  <r_i_glide_erotb>  (234) 
0.611275

>  <r_i_glide_esite>  (234) 
-0.0189263

>  <r_i_glide_emodel>  (234) 
-36.5626

>  <r_i_glide_energy>  (234) 
-30.7334

>  <r_i_glide_einternal>  (234) 
4.72625

>  <r_i_glide_intrahb_reward>  (234) 
-0

>  <i_i_glide_confnum>  (234) 
6

>  <i_i_glide_posenum>  (234) 
21

>  <r_i_glide_eff_state_penalty>  (234) 
0

>  <ligand_id>  (234) 
68

>  <original_smiles>  (234) 
CCc1ccc2c(n1)CCN(CC(O)(Cn1cncn1)c1ccc(F)cc1F)C2

>  <smiles>  (234) 
[H]OC(c1c([H])c([H])c(F)c([H])c1F)(C([H])([H])n1nc([H])nc1[H])C([H])([H])[N+]1([H])C([H])([H])c2c(nc(C([H])([H])C([H])([H])[H])c([H])c2[H])C([H])([H])C1([H])[H]

$$$$
68:0:1
     RDKit          3D

 53 56  0  0  1  0  0  0  0  0999 V2000
   -2.4598    2.2338    7.4732 C   0  0  0  0  0  0  0  0  0  0  0  0
   -2.1586    3.2911    6.4103 C   0  0  0  0  0  0  0  0  0  0  0  0
   -1.4461    2.7120    5.2135 C   0  0  0  0  0  0  0  0  0  0  0  0
   -2.1215    2.4927    3.9952 C   0  0  0  0  0  0  0  0  0  0  0  0
   -1.4047    1.9441    2.9089 C   0  0  0  0  0  0  0  0  0  0  0  0
   -0.0473    1.6353    3.0917 C   0  0  0  0  0  0  0  0  0  0  0  0
    0.5378    1.9171    4.3503 C   0  0  0  0  0  0  0  0  0  0  0  0
   -0.1439    2.4313    5.3973 N   0  0  0  0  0  0  0  0  0  0  0  0
    2.0087    1.6177    4.5801 C   0  0  0  0  0  0  0  0  0  0  0  0
    2.7729    1.4679    3.2802 C   0  0  0  0  0  0  0  0  0  0  0  0
    2.0784    0.4863    2.3828 N   0  0  2  0  0  0  0  0  0  0  0  0
    2.9208    0.0479    1.2525 C   0  0  0  0  0  0  0  0  0  0  0  0
    3.5083   -1.3988    1.3580 C   0  0  1  0  0  0  0  0  0  0  0  0
    2.3803   -2.2014    1.0254 O   0  0  0  0  0  0  0  0  0  0  0  0
    4.6406   -1.5413    0.2803 C   0  0  0  0  0  0  0  0  0  0  0  0
    4.2170   -1.5969   -1.1095 N   0  0  0  0  0  0  0  0  0  0  0  0
    3.4602   -2.4970   -1.7547 C   0  0  0  0  0  0  0  0  0  0  0  0
    3.2749   -2.2274   -3.0312 N   0  0  0  0  0  0  0  0  0  0  0  0
    4.0189   -1.0646   -3.1381 C   0  0  0  0  0  0  0  0  0  0  0  0
    4.6245   -0.6595   -2.0155 N   0  0  0  0  0  0  0  0  0  0  0  0
    4.1039   -1.7434    2.7371 C   0  0  0  0  0  0  0  0  0  0  0  0
    4.9733   -0.8201    3.3540 C   0  0  0  0  0  0  0  0  0  0  0  0
    5.3416   -0.9720    4.6994 C   0  0  0  0  0  0  0  0  0  0  0  0
    5.0062   -2.1568    5.3926 C   0  0  0  0  0  0  0  0  0  0  0  0
    5.4302   -2.3353    6.6627 F   0  0  0  0  0  0  0  0  0  0  0  0
    4.2635   -3.1564    4.7462 C   0  0  0  0  0  0  0  0  0  0  0  0
    3.8046   -2.9635    3.4297 C   0  0  0  0  0  0  0  0  0  0  0  0
    3.0547   -3.9380    2.8561 F   0  0  0  0  0  0  0  0  0  0  0  0
    0.7749    1.0753    1.9271 C   0  0  0  0  0  0  0  0  0  0  0  0
   -2.9879    2.6875    8.3098 H   0  0  0  0  0  0  0  0  0  0  0  0
   -1.5428    1.7857    7.8588 H   0  0  0  0  0  0  0  0  0  0  0  0
   -3.0818    1.4368    7.0672 H   0  0  0  0  0  0  0  0  0  0  0  0
   -3.0772    3.7432    6.0568 H   0  0  0  0  0  0  0  0  0  0  0  0
   -1.5387    4.0870    6.8240 H   0  0  0  0  0  0  0  0  0  0  0  0
   -3.1572    2.7110    3.8755 H   0  0  0  0  0  0  0  0  0  0  0  0
   -1.8780    1.7457    1.9564 H   0  0  0  0  0  0  0  0  0  0  0  0
    2.4663    2.4069    5.1764 H   0  0  0  0  0  0  0  0  0  0  0  0
    2.0679    0.7004    5.1710 H   0  0  0  0  0  0  0  0  0  0  0  0
    2.8163    2.4239    2.7492 H   0  0  0  0  0  0  0  0  0  0  0  0
    3.7723    1.2178    3.6248 H   0  0  0  0  0  0  0  0  0  0  0  0
    2.3445    0.0921    0.3285 H   0  0  0  0  0  0  0  0  0  0  0  0
    3.7054    0.7857    1.0774 H   0  0  0  0  0  0  0  0  0  0  0  0
    1.9849   -1.8695    0.2182 H   0  0  0  0  0  0  0  0  0  0  0  0
    5.3468   -0.7137    0.4136 H   0  0  0  0  0  0  0  0  0  0  0  0
    5.2287   -2.4404    0.4896 H   0  0  0  0  0  0  0  0  0  0  0  0
    3.0181   -3.3701   -1.2562 H   0  0  0  0  0  0  0  0  0  0  0  0
    4.1099   -0.5492   -4.0456 H   0  0  0  0  0  0  0  0  0  0  0  0
    5.3275    0.0516    2.7958 H   0  0  0  0  0  0  0  0  0  0  0  0
    5.8558   -0.1818    5.2090 H   0  0  0  0  0  0  0  0  0  0  0  0
    4.0643   -4.0884    5.2457 H   0  0  0  0  0  0  0  0  0  0  0  0
    0.1753    0.3738    1.3265 H   0  0  0  0  0  0  0  0  0  0  0  0
    1.0031    1.9221    1.2721 H   0  0  0  0  0  0  0  0  0  0  0  0
    1.8103   -0.3509    2.8874 H   0  0  0  0  0  0  0  0  0  0  0  0
  1  2  1  0
  1 30  1  0
  1 31  1  0
  1 32  1  0
  2  3  1  0
  2 33  1  0
  2 34  1  0
  3  8  2  0
  3  4  1  0
  4  5  2  0
  4 35  1  0
  5  6  1  0
  5 36  1  0
  6 29  1  0
  6  7  2  0
  7  8  1  0
  7  9  1  0
  9 10  1  0
  9 37  1  0
  9 38  1  0
 10 11  1  0
 10 39  1  0
 10 40  1  0
 11 12  1  0
 11 29  1  0
 11 53  1  1
 12 13  1  0
 12 41  1  0
 12 42  1  0
 13 14  1  6
 13 15  1  0
 13 21  1  0
 14 43  1  0
 15 16  1  0
 15 44  1  0
 15 45  1  0
 16 20  1  0
 16 17  1  0
 17 18  2  0
 17 46  1  0
 18 19  1  0
 19 20  2  0
 19 47  1  0
 21 27  1  0
 21 22  2  0
 22 23  1  0
 22 48  1  0
 23 24  2  0
 23 49  1  0
 24 25  1  0
 24 26  1  0
 26 27  2  0
 26 50  1  0
 27 28  1  0
 29 51  1  0
 29 52  1  0
M  CHG  1  11   1
M  END
>  <i_m_ct_stereo_status>  (235) 
1

>  <s_m_source_file>  (235) 
/var/tmp/pbs.5076255.sched01/tmp2672eyar/80wl2hclo4.sdf

>  <i_m_source_file_index>  (235) 
13

>  <i_lp_mmshare_version>  (235) 
48012

>  <i_f3d_flags>  (235) 
0

>  <s_epik_input>  (235) 
W0NIM11bQ0gyXWMoW2NIXVtjSF0xKW5jKGMxMilbQ0gyXVtDSDJdTihbQ0gyXTIpW0NIMl1bQ0BAXShbT0hdKShbQ0gyXW4zW2NIXW5bY0hdbjMpYzRbY0hdW2NIXWMoRilbY0hdYzRG

>  <s_epik_cmdline>  (235) 
J2VwaWtfcHl0aG9uJywgJy1waHQnLCAnMi4wJywgJy1waCcsICc3LjAnLCAnLXRuJywgJzgnLCAnLW1hJywgJzIwMCcsICctaW1hZScsICc8aW5maWxlLm1hZT4nLCAnLW9tYWUnLCAnPG91dGZpbGUubWFlPic=

>  <r_lp_tautomer_probability>  (235) 
1

>  <r_epik_Ionization_Penalty>  (235) 
0.0365102

>  <r_epik_Ionization_Penalty_Charging>  (235) 
0.0362413

>  <r_epik_Ionization_Penalty_Neutral>  (235) 
0.000268972

>  <r_epik_State_Penalty>  (235) 
0.00743503

>  <r_epik_Charging_Adjusted_Penalty>  (235) 
0.0436763

>  <i_epik_Tot_Q>  (235) 
1

>  <i_epik_Tot_abs_Q>  (235) 
1

>  <s_lp_Force_Field>  (235) 
OPLS3e

>  <r_lp_Energy>  (235) 
35.949

>  <b_lp_Chiralities_Consistent>  (235) 
1

>  <s_lp_Variant>  (235) 
68:0-1

>  <s_i_glide_gridfile>  (235) 
pfpi4k_grid

>  <i_i_glide_lignum>  (235) 
13

>  <i_i_glide_rotatable_bonds>  (235) 
7

>  <r_i_docking_score>  (235) 
-3.02923

>  <r_i_glide_ligand_efficiency>  (235) 
-0.104456

>  <r_i_glide_ligand_efficiency_sa>  (235) 
-0.320922

>  <r_i_glide_ligand_efficiency_ln>  (235) 
-0.693616

>  <r_i_glide_gscore>  (235) 
-3.02923

>  <r_i_glide_lipo>  (235) 
-0.283425

>  <r_i_glide_hbond>  (235) 
-0.16

>  <r_i_glide_metal>  (235) 
-0

>  <r_i_glide_rewards>  (235) 
-0.830493

>  <r_i_glide_evdw>  (235) 
-29.0736

>  <r_i_glide_ecoul>  (235) 
-5.42667

>  <r_i_glide_erotb>  (235) 
0.611275

>  <r_i_glide_esite>  (235) 
-0.0989023

>  <r_i_glide_emodel>  (235) 
-37.521

>  <r_i_glide_energy>  (235) 
-34.5003

>  <r_i_glide_einternal>  (235) 
5.94855

>  <r_i_glide_intrahb_reward>  (235) 
-0

>  <i_i_glide_confnum>  (235) 
5

>  <i_i_glide_posenum>  (235) 
7

>  <r_i_glide_eff_state_penalty>  (235) 
0

>  <ligand_id>  (235) 
68

>  <original_smiles>  (235) 
CCc1ccc2c(n1)CCN(CC(O)(Cn1cncn1)c1ccc(F)cc1F)C2

>  <smiles>  (235) 
[H]OC(c1c([H])c([H])c(F)c([H])c1F)(C([H])([H])n1nc([H])nc1[H])C([H])([H])[N+]1([H])C([H])([H])c2c(nc(C([H])([H])C([H])([H])[H])c([H])c2[H])C([H])([H])C1([H])[H]

$$$$
68:0:2
     RDKit          3D

 53 56  0  0  1  0  0  0  0  0999 V2000
    2.4781    0.8715   -5.0615 C   0  0  0  0  0  0  0  0  0  0  0  0
    3.8073    0.5905   -4.3396 C   0  0  0  0  0  0  0  0  0  0  0  0
    3.8062   -0.6813   -3.5117 C   0  0  0  0  0  0  0  0  0  0  0  0
    3.0096   -1.7880   -3.8712 C   0  0  0  0  0  0  0  0  0  0  0  0
    3.0399   -2.9348   -3.0726 C   0  0  0  0  0  0  0  0  0  0  0  0
    3.8959   -2.9572   -1.9626 C   0  0  0  0  0  0  0  0  0  0  0  0
    4.6665   -1.8131   -1.6797 C   0  0  0  0  0  0  0  0  0  0  0  0
    4.6198   -0.6945   -2.4305 N   0  0  0  0  0  0  0  0  0  0  0  0
    5.5622   -1.7989   -0.4541 C   0  0  0  0  0  0  0  0  0  0  0  0
    5.8095   -3.2085    0.1193 C   0  0  0  0  0  0  0  0  0  0  0  0
    4.5433   -3.9753    0.2329 N   0  0  2  0  0  0  0  0  0  0  0  0
    4.7091   -5.2589    0.9799 C   0  0  0  0  0  0  0  0  0  0  0  0
    3.4599   -5.6507    1.8299 C   0  0  1  0  0  0  0  0  0  0  0  0
    2.3985   -5.7392    0.8950 O   0  0  0  0  0  0  0  0  0  0  0  0
    3.7048   -7.0732    2.4039 C   0  0  0  0  0  0  0  0  0  0  0  0
    2.5297   -7.7251    2.9586 N   0  0  0  0  0  0  0  0  0  0  0  0
    2.1288   -7.8734    4.2180 C   0  0  0  0  0  0  0  0  0  0  0  0
    0.9762   -8.5209    4.3411 N   0  0  0  0  0  0  0  0  0  0  0  0
    0.7289   -8.7919    3.0219 C   0  0  0  0  0  0  0  0  0  0  0  0
    1.6304   -8.3410    2.1478 N   0  0  0  0  0  0  0  0  0  0  0  0
    3.1636   -4.6352    2.9590 C   0  0  0  0  0  0  0  0  0  0  0  0
    4.2204   -3.9204    3.5735 C   0  0  0  0  0  0  0  0  0  0  0  0
    3.9729   -2.9982    4.6010 C   0  0  0  0  0  0  0  0  0  0  0  0
    2.6621   -2.7829    5.0532 C   0  0  0  0  0  0  0  0  0  0  0  0
    2.4325   -1.9047    6.0534 F   0  0  0  0  0  0  0  0  0  0  0  0
    1.5985   -3.4943    4.4787 C   0  0  0  0  0  0  0  0  0  0  0  0
    1.8438   -4.4196    3.4460 C   0  0  0  0  0  0  0  0  0  0  0  0
    0.7979   -5.1155    2.9489 F   0  0  0  0  0  0  0  0  0  0  0  0
    3.9791   -4.1993   -1.1215 C   0  0  0  0  0  0  0  0  0  0  0  0
    2.5349    1.8029   -5.6139 H   0  0  0  0  0  0  0  0  0  0  0  0
    1.6569    0.9481   -4.3498 H   0  0  0  0  0  0  0  0  0  0  0  0
    2.2326    0.0889   -5.7734 H   0  0  0  0  0  0  0  0  0  0  0  0
    4.6097    0.5218   -5.0701 H   0  0  0  0  0  0  0  0  0  0  0  0
    4.0604    1.4233   -3.6852 H   0  0  0  0  0  0  0  0  0  0  0  0
    2.3497   -1.7634   -4.7180 H   0  0  0  0  0  0  0  0  0  0  0  0
    2.4127   -3.7828   -3.3165 H   0  0  0  0  0  0  0  0  0  0  0  0
    6.5221   -1.3416   -0.7032 H   0  0  0  0  0  0  0  0  0  0  0  0
    5.1013   -1.1600    0.3034 H   0  0  0  0  0  0  0  0  0  0  0  0
    6.4825   -3.7613   -0.5419 H   0  0  0  0  0  0  0  0  0  0  0  0
    6.3093   -3.1164    1.0842 H   0  0  0  0  0  0  0  0  0  0  0  0
    4.9559   -6.0514    0.2621 H   0  0  0  0  0  0  0  0  0  0  0  0
    5.5871   -5.2095    1.6275 H   0  0  0  0  0  0  0  0  0  0  0  0
    2.6274   -6.3587    0.2143 H   0  0  0  0  0  0  0  0  0  0  0  0
    4.1039   -7.7280    1.6239 H   0  0  0  0  0  0  0  0  0  0  0  0
    4.4786   -7.0282    3.1660 H   0  0  0  0  0  0  0  0  0  0  0  0
    2.7014   -7.4864    5.0593 H   0  0  0  0  0  0  0  0  0  0  0  0
   -0.1484   -9.3292    2.7165 H   0  0  0  0  0  0  0  0  0  0  0  0
    5.2469   -4.0661    3.2833 H   0  0  0  0  0  0  0  0  0  0  0  0
    4.7974   -2.4667    5.0412 H   0  0  0  0  0  0  0  0  0  0  0  0
    0.5948   -3.3392    4.8428 H   0  0  0  0  0  0  0  0  0  0  0  0
    2.9687   -4.5948   -1.0936 H   0  0  0  0  0  0  0  0  0  0  0  0
    4.6161   -4.9073   -1.6557 H   0  0  0  0  0  0  0  0  0  0  0  0
    3.8865   -3.3957    0.7427 H   0  0  0  0  0  0  0  0  0  0  0  0
  1  2  1  0
  1 30  1  0
  1 31  1  0
  1 32  1  0
  2  3  1  0
  2 33  1  0
  2 34  1  0
  3  8  2  0
  3  4  1  0
  4  5  2  0
  4 35  1  0
  5  6  1  0
  5 36  1  0
  6 29  1  0
  6  7  2  0
  7  8  1  0
  7  9  1  0
  9 10  1  0
  9 37  1  0
  9 38  1  0
 10 11  1  0
 10 39  1  0
 10 40  1  0
 11 12  1  0
 11 29  1  0
 11 53  1  1
 12 13  1  0
 12 41  1  0
 12 42  1  0
 13 14  1  6
 13 15  1  0
 13 21  1  0
 14 43  1  0
 15 16  1  0
 15 44  1  0
 15 45  1  0
 16 20  1  0
 16 17  1  0
 17 18  2  0
 17 46  1  0
 18 19  1  0
 19 20  2  0
 19 47  1  0
 21 27  1  0
 21 22  2  0
 22 23  1  0
 22 48  1  0
 23 24  2  0
 23 49  1  0
 24 25  1  0
 24 26  1  0
 26 27  2  0
 26 50  1  0
 27 28  1  0
 29 51  1  0
 29 52  1  0
M  CHG  1  11   1
M  END
>  <i_m_ct_stereo_status>  (236) 
1

>  <s_m_source_file>  (236) 
/var/tmp/pbs.5076255.sched01/tmp2672eyar/80wl2hclo4.sdf

>  <i_m_source_file_index>  (236) 
13

>  <i_lp_mmshare_version>  (236) 
48012

>  <i_f3d_flags>  (236) 
0

>  <s_epik_input>  (236) 
W0NIM11bQ0gyXWMoW2NIXVtjSF0xKW5jKGMxMilbQ0gyXVtDSDJdTihbQ0gyXTIpW0NIMl1bQ0BAXShbT0hdKShbQ0gyXW4zW2NIXW5bY0hdbjMpYzRbY0hdW2NIXWMoRilbY0hdYzRG

>  <s_epik_cmdline>  (236) 
J2VwaWtfcHl0aG9uJywgJy1waHQnLCAnMi4wJywgJy1waCcsICc3LjAnLCAnLXRuJywgJzgnLCAnLW1hJywgJzIwMCcsICctaW1hZScsICc8aW5maWxlLm1hZT4nLCAnLW9tYWUnLCAnPG91dGZpbGUubWFlPic=

>  <r_lp_tautomer_probability>  (236) 
1

>  <r_epik_Ionization_Penalty>  (236) 
0.0365102

>  <r_epik_Ionization_Penalty_Charging>  (236) 
0.0362413

>  <r_epik_Ionization_Penalty_Neutral>  (236) 
0.000268972

>  <r_epik_State_Penalty>  (236) 
0.00743503

>  <r_epik_Charging_Adjusted_Penalty>  (236) 
0.0436763

>  <i_epik_Tot_Q>  (236) 
1

>  <i_epik_Tot_abs_Q>  (236) 
1

>  <s_lp_Force_Field>  (236) 
OPLS3e

>  <r_lp_Energy>  (236) 
35.949

>  <b_lp_Chiralities_Consistent>  (236) 
1

>  <s_lp_Variant>  (236) 
68:0-1

>  <s_i_glide_gridfile>  (236) 
pfpi4k_grid

>  <i_i_glide_lignum>  (236) 
13

>  <i_i_glide_rotatable_bonds>  (236) 
7

>  <r_i_docking_score>  (236) 
-2.85862

>  <r_i_glide_ligand_efficiency>  (236) 
-0.098573

>  <r_i_glide_ligand_efficiency_sa>  (236) 
-0.302847

>  <r_i_glide_ligand_efficiency_ln>  (236) 
-0.654551

>  <r_i_glide_gscore>  (236) 
-2.85862

>  <r_i_glide_lipo>  (236) 
-0.565891

>  <r_i_glide_hbond>  (236) 
0

>  <r_i_glide_metal>  (236) 
-0

>  <r_i_glide_rewards>  (236) 
-0.678784

>  <r_i_glide_evdw>  (236) 
-29.0748

>  <r_i_glide_ecoul>  (236) 
-4.67732

>  <r_i_glide_erotb>  (236) 
0.611275

>  <r_i_glide_esite>  (236) 
-0.069881

>  <r_i_glide_emodel>  (236) 
-37.9494

>  <r_i_glide_energy>  (236) 
-33.7521

>  <r_i_glide_einternal>  (236) 
6.59321

>  <r_i_glide_intrahb_reward>  (236) 
-0

>  <i_i_glide_confnum>  (236) 
5

>  <i_i_glide_posenum>  (236) 
2

>  <r_i_glide_eff_state_penalty>  (236) 
0

>  <ligand_id>  (236) 
68

>  <original_smiles>  (236) 
CCc1ccc2c(n1)CCN(CC(O)(Cn1cncn1)c1ccc(F)cc1F)C2

>  <smiles>  (236) 
[H]OC(c1c([H])c([H])c(F)c([H])c1F)(C([H])([H])n1nc([H])nc1[H])C([H])([H])[N+]1([H])C([H])([H])c2c(nc(C([H])([H])C([H])([H])[H])c([H])c2[H])C([H])([H])C1([H])[H]

$$$$
68:1:0
     RDKit          3D

 52 55  0  0  1  0  0  0  0  0999 V2000
    1.8041    1.4683    7.6402 C   0  0  0  0  0  0  0  0  0  0  0  0
    2.7465    0.2627    7.5545 C   0  0  0  0  0  0  0  0  0  0  0  0
    3.2365    0.0039    6.1445 C   0  0  0  0  0  0  0  0  0  0  0  0
    4.5236    0.4198    5.7424 C   0  0  0  0  0  0  0  0  0  0  0  0
    4.9352    0.1490    4.4249 C   0  0  0  0  0  0  0  0  0  0  0  0
    4.0495   -0.5245    3.5668 C   0  0  0  0  0  0  0  0  0  0  0  0
    2.7759   -0.8882    4.0646 C   0  0  0  0  0  0  0  0  0  0  0  0
    2.3739   -0.6387    5.3284 N   0  0  0  0  0  0  0  0  0  0  0  0
    1.8022   -1.6377    3.1790 C   0  0  0  0  0  0  0  0  0  0  0  0
    2.2171   -1.5713    1.7117 C   0  0  0  0  0  0  0  0  0  0  0  0
    3.6335   -1.8940    1.5294 N   0  0  0  0  0  0  0  0  0  0  0  0
    3.9817   -2.0267    0.1216 C   0  0  0  0  0  0  0  0  0  0  0  0
    3.5997   -3.3443   -0.6294 C   0  0  1  0  0  0  0  0  0  0  0  0
    2.2104   -3.3185   -0.9168 O   0  0  0  0  0  0  0  0  0  0  0  0
    4.2390   -3.3753   -2.0484 C   0  0  0  0  0  0  0  0  0  0  0  0
    3.9284   -2.2139   -2.8792 N   0  0  0  0  0  0  0  0  0  0  0  0
    3.0777   -2.0807   -3.8888 C   0  0  0  0  0  0  0  0  0  0  0  0
    3.0052   -0.8428   -4.3636 N   0  0  0  0  0  0  0  0  0  0  0  0
    3.8698   -0.2168   -3.5119 C   0  0  0  0  0  0  0  0  0  0  0  0
    4.5407   -1.0190   -2.6870 N   0  0  0  0  0  0  0  0  0  0  0  0
    4.0459   -4.5943    0.1664 C   0  0  0  0  0  0  0  0  0  0  0  0
    5.4256   -4.7768    0.4322 C   0  0  0  0  0  0  0  0  0  0  0  0
    5.8933   -5.8990    1.1558 C   0  0  0  0  0  0  0  0  0  0  0  0
    4.9798   -6.8530    1.6319 C   0  0  0  0  0  0  0  0  0  0  0  0
    5.4208   -7.9297    2.3211 F   0  0  0  0  0  0  0  0  0  0  0  0
    3.6073   -6.6889    1.3887 C   0  0  0  0  0  0  0  0  0  0  0  0
    3.1357   -5.5684    0.6669 C   0  0  0  0  0  0  0  0  0  0  0  0
    1.7952   -5.4712    0.4845 F   0  0  0  0  0  0  0  0  0  0  0  0
    4.4289   -0.8160    2.1238 C   0  0  0  0  0  0  0  0  0  0  0  0
    1.4720    1.6254    8.6675 H   0  0  0  0  0  0  0  0  0  0  0  0
    0.9207    1.3246    7.0185 H   0  0  0  0  0  0  0  0  0  0  0  0
    2.3030    2.3807    7.3084 H   0  0  0  0  0  0  0  0  0  0  0  0
    3.6063    0.4271    8.2045 H   0  0  0  0  0  0  0  0  0  0  0  0
    2.2433   -0.6319    7.9215 H   0  0  0  0  0  0  0  0  0  0  0  0
    5.1831    0.9347    6.4197 H   0  0  0  0  0  0  0  0  0  0  0  0
    5.9113    0.4575    4.0784 H   0  0  0  0  0  0  0  0  0  0  0  0
    1.7864   -2.6832    3.4868 H   0  0  0  0  0  0  0  0  0  0  0  0
    0.7887   -1.2473    3.2962 H   0  0  0  0  0  0  0  0  0  0  0  0
    1.5724   -2.2612    1.1796 H   0  0  0  0  0  0  0  0  0  0  0  0
    2.0076   -0.5786    1.3103 H   0  0  0  0  0  0  0  0  0  0  0  0
    3.5479   -1.1683   -0.3772 H   0  0  0  0  0  0  0  0  0  0  0  0
    5.0621   -1.9305    0.0145 H   0  0  0  0  0  0  0  0  0  0  0  0
    1.9364   -2.4148   -1.0744 H   0  0  0  0  0  0  0  0  0  0  0  0
    5.3172   -3.4635   -2.0015 H   0  0  0  0  0  0  0  0  0  0  0  0
    3.8848   -4.2494   -2.5825 H   0  0  0  0  0  0  0  0  0  0  0  0
    2.4950   -2.8984   -4.2923 H   0  0  0  0  0  0  0  0  0  0  0  0
    4.0312    0.8485   -3.5388 H   0  0  0  0  0  0  0  0  0  0  0  0
    6.1462   -4.0557    0.0833 H   0  0  0  0  0  0  0  0  0  0  0  0
    6.9499   -6.0296    1.3408 H   0  0  0  0  0  0  0  0  0  0  0  0
    2.9021   -7.4231    1.7586 H   0  0  0  0  0  0  0  0  0  0  0  0
    4.3033    0.1070    1.5519 H   0  0  0  0  0  0  0  0  0  0  0  0
    5.4918   -1.0638    2.0814 H   0  0  0  0  0  0  0  0  0  0  0  0
  1  2  1  0
  1 30  1  0
  1 31  1  0
  1 32  1  0
  2  3  1  0
  2 33  1  0
  2 34  1  0
  3  8  2  0
  3  4  1  0
  4  5  2  0
  4 35  1  0
  5  6  1  0
  5 36  1  0
  6 29  1  0
  6  7  2  0
  7  8  1  0
  7  9  1  0
  9 10  1  0
  9 37  1  0
  9 38  1  0
 10 11  1  0
 10 39  1  0
 10 40  1  0
 11 12  1  0
 11 29  1  0
 12 13  1  0
 12 41  1  0
 12 42  1  0
 13 14  1  6
 13 15  1  0
 13 21  1  0
 14 43  1  0
 15 16  1  0
 15 44  1  0
 15 45  1  0
 16 20  1  0
 16 17  1  0
 17 18  2  0
 17 46  1  0
 18 19  1  0
 19 20  2  0
 19 47  1  0
 21 27  1  0
 21 22  2  0
 22 23  1  0
 22 48  1  0
 23 24  2  0
 23 49  1  0
 24 25  1  0
 24 26  1  0
 26 27  2  0
 26 50  1  0
 27 28  1  0
 29 51  1  0
 29 52  1  0
M  END
>  <i_m_ct_stereo_status>  (237) 
1

>  <s_m_source_file>  (237) 
/var/tmp/pbs.5076255.sched01/tmp2672eyar/80wl2hclo4.sdf

>  <i_m_source_file_index>  (237) 
14

>  <i_lp_mmshare_version>  (237) 
48012

>  <i_f3d_flags>  (237) 
0

>  <s_epik_input>  (237) 
W0NIM11bQ0gyXWMoW2NIXVtjSF0xKW5jKGMxMilbQ0gyXVtDSDJdTihbQ0gyXTIpW0NIMl1bQ0BAXShbT0hdKShbQ0gyXW4zW2NIXW5bY0hdbjMpYzRbY0hdW2NIXWMoRilbY0hdYzRG

>  <s_epik_cmdline>  (237) 
J2VwaWtfcHl0aG9uJywgJy1waHQnLCAnMi4wJywgJy1waCcsICc3LjAnLCAnLXRuJywgJzgnLCAnLW1hJywgJzIwMCcsICctaW1hZScsICc8aW5maWxlLm1hZT4nLCAnLW9tYWUnLCAnPG91dGZpbGUubWFlPic=

>  <r_lp_tautomer_probability>  (237) 
1

>  <r_epik_Ionization_Penalty>  (237) 
2.0662

>  <r_epik_Ionization_Penalty_Charging>  (237) 
0

>  <r_epik_Ionization_Penalty_Neutral>  (237) 
2.0662

>  <r_epik_State_Penalty>  (237) 
2.70161

>  <r_epik_Charging_Adjusted_Penalty>  (237) 
2.70161

>  <i_epik_Tot_Q>  (237) 
0

>  <i_epik_Tot_abs_Q>  (237) 
0

>  <s_lp_Force_Field>  (237) 
OPLS3e

>  <r_lp_Energy>  (237) 
30.3409

>  <b_lp_Chiralities_Consistent>  (237) 
1

>  <s_lp_Variant>  (237) 
68:0-2

>  <s_i_glide_gridfile>  (237) 
pfpi4k_grid

>  <i_i_glide_lignum>  (237) 
14

>  <i_i_glide_rotatable_bonds>  (237) 
7

>  <r_i_docking_score>  (237) 
-3.69911

>  <r_i_glide_ligand_efficiency>  (237) 
-0.127555

>  <r_i_glide_ligand_efficiency_sa>  (237) 
-0.391891

>  <r_i_glide_ligand_efficiency_ln>  (237) 
-0.847002

>  <r_i_glide_gscore>  (237) 
-3.69911

>  <r_i_glide_lipo>  (237) 
-0.537842

>  <r_i_glide_hbond>  (237) 
-0.16

>  <r_i_glide_metal>  (237) 
-0

>  <r_i_glide_rewards>  (237) 
-1.23453

>  <r_i_glide_evdw>  (237) 
-28.4932

>  <r_i_glide_ecoul>  (237) 
-5.72403

>  <r_i_glide_erotb>  (237) 
0.614055

>  <r_i_glide_esite>  (237) 
-0.0975213

>  <r_i_glide_emodel>  (237) 
-40.5033

>  <r_i_glide_energy>  (237) 
-34.2172

>  <r_i_glide_einternal>  (237) 
3.15711

>  <r_i_glide_intrahb_reward>  (237) 
-0

>  <i_i_glide_confnum>  (237) 
2

>  <i_i_glide_posenum>  (237) 
26

>  <r_i_glide_eff_state_penalty>  (237) 
0

>  <ligand_id>  (237) 
68

>  <original_smiles>  (237) 
CCc1ccc2c(n1)CCN(CC(O)(Cn1cncn1)c1ccc(F)cc1F)C2

>  <smiles>  (237) 
[H]OC(c1c([H])c([H])c(F)c([H])c1F)(C([H])([H])N1C([H])([H])c2c(nc(C([H])([H])C([H])([H])[H])c([H])c2[H])C([H])([H])C1([H])[H])C([H])([H])n1nc([H])nc1[H]

$$$$
68:1:1
     RDKit          3D

 52 55  0  0  1  0  0  0  0  0999 V2000
   -0.7380    3.5877    6.3753 C   0  0  0  0  0  0  0  0  0  0  0  0
    0.2913    2.5591    6.8575 C   0  0  0  0  0  0  0  0  0  0  0  0
    1.1426    2.0110    5.7311 C   0  0  0  0  0  0  0  0  0  0  0  0
    2.4585    2.4794    5.5350 C   0  0  0  0  0  0  0  0  0  0  0  0
    3.2119    1.9405    4.4786 C   0  0  0  0  0  0  0  0  0  0  0  0
    2.6297    0.9524    3.6671 C   0  0  0  0  0  0  0  0  0  0  0  0
    1.3013    0.5575    3.9430 C   0  0  0  0  0  0  0  0  0  0  0  0
    0.5682    1.0635    4.9579 N   0  0  0  0  0  0  0  0  0  0  0  0
    0.6469   -0.5180    3.1039 C   0  0  0  0  0  0  0  0  0  0  0  0
    1.4246   -0.7631    1.8112 C   0  0  0  0  0  0  0  0  0  0  0  0
    2.8585   -0.9225    2.0462 N   0  0  0  0  0  0  0  0  0  0  0  0
    3.5703   -1.3705    0.8470 C   0  0  0  0  0  0  0  0  0  0  0  0
    3.4812   -2.8786    0.4631 C   0  0  1  0  0  0  0  0  0  0  0  0
    2.2245   -3.0578   -0.1464 O   0  0  0  0  0  0  0  0  0  0  0  0
    4.4996   -3.2253   -0.6577 C   0  0  0  0  0  0  0  0  0  0  0  0
    4.3160   -2.4637   -1.8907 N   0  0  0  0  0  0  0  0  0  0  0  0
    3.7785   -2.8291   -3.0588 C   0  0  0  0  0  0  0  0  0  0  0  0
    3.7079   -1.8483   -3.9494 N   0  0  0  0  0  0  0  0  0  0  0  0
    4.2133   -0.8234   -3.2001 C   0  0  0  0  0  0  0  0  0  0  0  0
    4.6834   -1.1625   -1.9968 N   0  0  0  0  0  0  0  0  0  0  0  0
    3.7296   -3.8074    1.6770 C   0  0  0  0  0  0  0  0  0  0  0  0
    4.7715   -3.4881    2.5908 C   0  0  0  0  0  0  0  0  0  0  0  0
    5.0235   -4.2848    3.7234 C   0  0  0  0  0  0  0  0  0  0  0  0
    4.2536   -5.4333    3.9633 C   0  0  0  0  0  0  0  0  0  0  0  0
    4.5036   -6.2064    5.0439 F   0  0  0  0  0  0  0  0  0  0  0  0
    3.2246   -5.7801    3.0667 C   0  0  0  0  0  0  0  0  0  0  0  0
    2.9624   -4.9795    1.9326 C   0  0  0  0  0  0  0  0  0  0  0  0
    1.9597   -5.3756    1.1058 F   0  0  0  0  0  0  0  0  0  0  0  0
    3.3925    0.3647    2.4895 C   0  0  0  0  0  0  0  0  0  0  0  0
   -1.3337    3.9568    7.2110 H   0  0  0  0  0  0  0  0  0  0  0  0
   -1.4179    3.1512    5.6433 H   0  0  0  0  0  0  0  0  0  0  0  0
   -0.2477    4.4439    5.9096 H   0  0  0  0  0  0  0  0  0  0  0  0
    0.9414    3.0175    7.6030 H   0  0  0  0  0  0  0  0  0  0  0  0
   -0.2123    1.7289    7.3526 H   0  0  0  0  0  0  0  0  0  0  0  0
    2.8857    3.2375    6.1721 H   0  0  0  0  0  0  0  0  0  0  0  0
    4.2179    2.2806    4.2914 H   0  0  0  0  0  0  0  0  0  0  0  0
    0.6176   -1.4419    3.6814 H   0  0  0  0  0  0  0  0  0  0  0  0
   -0.3833   -0.2401    2.8762 H   0  0  0  0  0  0  0  0  0  0  0  0
    0.9970   -1.6463    1.3508 H   0  0  0  0  0  0  0  0  0  0  0  0
    1.2610    0.0731    1.1291 H   0  0  0  0  0  0  0  0  0  0  0  0
    3.2355   -0.7447    0.0226 H   0  0  0  0  0  0  0  0  0  0  0  0
    4.6333   -1.1444    0.9686 H   0  0  0  0  0  0  0  0  0  0  0  0
    1.9123   -2.2079   -0.4764 H   0  0  0  0  0  0  0  0  0  0  0  0
    5.5211   -3.0676   -0.3105 H   0  0  0  0  0  0  0  0  0  0  0  0
    4.4221   -4.2883   -0.9048 H   0  0  0  0  0  0  0  0  0  0  0  0
    3.4295   -3.8330   -3.2493 H   0  0  0  0  0  0  0  0  0  0  0  0
    4.2733    0.1968   -3.5622 H   0  0  0  0  0  0  0  0  0  0  0  0
    5.3828   -2.6104    2.4378 H   0  0  0  0  0  0  0  0  0  0  0  0
    5.8131   -4.0168    4.4123 H   0  0  0  0  0  0  0  0  0  0  0  0
    2.6348   -6.6680    3.2527 H   0  0  0  0  0  0  0  0  0  0  0  0
    3.3615    1.0871    1.6713 H   0  0  0  0  0  0  0  0  0  0  0  0
    4.4400    0.2496    2.7689 H   0  0  0  0  0  0  0  0  0  0  0  0
  1  2  1  0
  1 30  1  0
  1 31  1  0
  1 32  1  0
  2  3  1  0
  2 33  1  0
  2 34  1  0
  3  8  2  0
  3  4  1  0
  4  5  2  0
  4 35  1  0
  5  6  1  0
  5 36  1  0
  6 29  1  0
  6  7  2  0
  7  8  1  0
  7  9  1  0
  9 10  1  0
  9 37  1  0
  9 38  1  0
 10 11  1  0
 10 39  1  0
 10 40  1  0
 11 12  1  0
 11 29  1  0
 12 13  1  0
 12 41  1  0
 12 42  1  0
 13 14  1  6
 13 15  1  0
 13 21  1  0
 14 43  1  0
 15 16  1  0
 15 44  1  0
 15 45  1  0
 16 20  1  0
 16 17  1  0
 17 18  2  0
 17 46  1  0
 18 19  1  0
 19 20  2  0
 19 47  1  0
 21 27  1  0
 21 22  2  0
 22 23  1  0
 22 48  1  0
 23 24  2  0
 23 49  1  0
 24 25  1  0
 24 26  1  0
 26 27  2  0
 26 50  1  0
 27 28  1  0
 29 51  1  0
 29 52  1  0
M  END
>  <i_m_ct_stereo_status>  (238) 
1

>  <s_m_source_file>  (238) 
/var/tmp/pbs.5076255.sched01/tmp2672eyar/80wl2hclo4.sdf

>  <i_m_source_file_index>  (238) 
14

>  <i_lp_mmshare_version>  (238) 
48012

>  <i_f3d_flags>  (238) 
0

>  <s_epik_input>  (238) 
W0NIM11bQ0gyXWMoW2NIXVtjSF0xKW5jKGMxMilbQ0gyXVtDSDJdTihbQ0gyXTIpW0NIMl1bQ0BAXShbT0hdKShbQ0gyXW4zW2NIXW5bY0hdbjMpYzRbY0hdW2NIXWMoRilbY0hdYzRG

>  <s_epik_cmdline>  (238) 
J2VwaWtfcHl0aG9uJywgJy1waHQnLCAnMi4wJywgJy1waCcsICc3LjAnLCAnLXRuJywgJzgnLCAnLW1hJywgJzIwMCcsICctaW1hZScsICc8aW5maWxlLm1hZT4nLCAnLW9tYWUnLCAnPG91dGZpbGUubWFlPic=

>  <r_lp_tautomer_probability>  (238) 
1

>  <r_epik_Ionization_Penalty>  (238) 
2.0662

>  <r_epik_Ionization_Penalty_Charging>  (238) 
0

>  <r_epik_Ionization_Penalty_Neutral>  (238) 
2.0662

>  <r_epik_State_Penalty>  (238) 
2.70161

>  <r_epik_Charging_Adjusted_Penalty>  (238) 
2.70161

>  <i_epik_Tot_Q>  (238) 
0

>  <i_epik_Tot_abs_Q>  (238) 
0

>  <s_lp_Force_Field>  (238) 
OPLS3e

>  <r_lp_Energy>  (238) 
30.3409

>  <b_lp_Chiralities_Consistent>  (238) 
1

>  <s_lp_Variant>  (238) 
68:0-2

>  <s_i_glide_gridfile>  (238) 
pfpi4k_grid

>  <i_i_glide_lignum>  (238) 
14

>  <i_i_glide_rotatable_bonds>  (238) 
7

>  <r_i_docking_score>  (238) 
-3.48203

>  <r_i_glide_ligand_efficiency>  (238) 
-0.12007

>  <r_i_glide_ligand_efficiency_sa>  (238) 
-0.368893

>  <r_i_glide_ligand_efficiency_ln>  (238) 
-0.797296

>  <r_i_glide_gscore>  (238) 
-3.48203

>  <r_i_glide_lipo>  (238) 
-0.117063

>  <r_i_glide_hbond>  (238) 
-0.279781

>  <r_i_glide_metal>  (238) 
-0

>  <r_i_glide_rewards>  (238) 
-0.98288

>  <r_i_glide_evdw>  (238) 
-25.1543

>  <r_i_glide_ecoul>  (238) 
-8.00958

>  <r_i_glide_erotb>  (238) 
0.429838

>  <r_i_glide_esite>  (238) 
-0.0729874

>  <r_i_glide_emodel>  (238) 
-38.5774

>  <r_i_glide_energy>  (238) 
-33.1639

>  <r_i_glide_einternal>  (238) 
4.11599

>  <r_i_glide_intrahb_reward>  (238) 
-0

>  <i_i_glide_confnum>  (238) 
2

>  <i_i_glide_posenum>  (238) 
32

>  <r_i_glide_eff_state_penalty>  (238) 
0

>  <ligand_id>  (238) 
68

>  <original_smiles>  (238) 
CCc1ccc2c(n1)CCN(CC(O)(Cn1cncn1)c1ccc(F)cc1F)C2

>  <smiles>  (238) 
[H]OC(c1c([H])c([H])c(F)c([H])c1F)(C([H])([H])N1C([H])([H])c2c(nc(C([H])([H])C([H])([H])[H])c([H])c2[H])C([H])([H])C1([H])[H])C([H])([H])n1nc([H])nc1[H]

$$$$
68:1:2
     RDKit          3D

 52 55  0  0  1  0  0  0  0  0999 V2000
   -0.5681   -8.7908    5.6154 C   0  0  0  0  0  0  0  0  0  0  0  0
   -1.2237   -7.9971    4.4808 C   0  0  0  0  0  0  0  0  0  0  0  0
   -0.2065   -7.3178    3.5915 C   0  0  0  0  0  0  0  0  0  0  0  0
    0.0296   -7.7889    2.2844 C   0  0  0  0  0  0  0  0  0  0  0  0
    0.9824   -7.1232    1.4983 C   0  0  0  0  0  0  0  0  0  0  0  0
    1.6401   -6.0039    2.0366 C   0  0  0  0  0  0  0  0  0  0  0  0
    1.3430   -5.6117    3.3560 C   0  0  0  0  0  0  0  0  0  0  0  0
    0.4201   -6.2389    4.1173 N   0  0  0  0  0  0  0  0  0  0  0  0
    2.0986   -4.4509    3.9824 C   0  0  0  0  0  0  0  0  0  0  0  0
    2.8600   -3.6207    2.9265 C   0  0  0  0  0  0  0  0  0  0  0  0
    3.6150   -4.4618    1.9984 N   0  0  0  0  0  0  0  0  0  0  0  0
    4.5244   -3.6564    1.1637 C   0  0  0  0  0  0  0  0  0  0  0  0
    5.5702   -4.3977    0.2764 C   0  0  1  0  0  0  0  0  0  0  0  0
    4.8783   -5.1241   -0.7049 O   0  0  0  0  0  0  0  0  0  0  0  0
    6.3959   -3.3626   -0.5541 C   0  0  0  0  0  0  0  0  0  0  0  0
    5.6240   -2.6110   -1.5302 N   0  0  0  0  0  0  0  0  0  0  0  0
    5.1534   -2.9341   -2.7326 C   0  0  0  0  0  0  0  0  0  0  0  0
    4.4564   -1.9720   -3.3230 N   0  0  0  0  0  0  0  0  0  0  0  0
    4.5407   -1.0123   -2.3453 C   0  0  0  0  0  0  0  0  0  0  0  0
    5.2575   -1.3329   -1.2747 N   0  0  0  0  0  0  0  0  0  0  0  0
    6.4360   -5.3781    1.0950 C   0  0  0  0  0  0  0  0  0  0  0  0
    5.9286   -6.6739    1.4056 C   0  0  0  0  0  0  0  0  0  0  0  0
    6.6774   -7.6006    2.1498 C   0  0  0  0  0  0  0  0  0  0  0  0
    7.9586   -7.2585    2.6008 C   0  0  0  0  0  0  0  0  0  0  0  0
    8.6781   -8.1399    3.3327 F   0  0  0  0  0  0  0  0  0  0  0  0
    8.4898   -5.9924    2.2917 C   0  0  0  0  0  0  0  0  0  0  0  0
    7.7461   -5.0700    1.5409 C   0  0  0  0  0  0  0  0  0  0  0  0
    8.3459   -3.8865    1.2631 F   0  0  0  0  0  0  0  0  0  0  0  0
    2.6600   -5.2527    1.2104 C   0  0  0  0  0  0  0  0  0  0  0  0
   -1.3199   -9.2824    6.2286 H   0  0  0  0  0  0  0  0  0  0  0  0
    0.0281   -8.1461    6.2615 H   0  0  0  0  0  0  0  0  0  0  0  0
    0.0764   -9.5765    5.2210 H   0  0  0  0  0  0  0  0  0  0  0  0
   -1.8410   -8.6680    3.8802 H   0  0  0  0  0  0  0  0  0  0  0  0
   -1.8869   -7.2287    4.8809 H   0  0  0  0  0  0  0  0  0  0  0  0
   -0.4819   -8.6553    1.8872 H   0  0  0  0  0  0  0  0  0  0  0  0
    1.1955   -7.4637    0.4973 H   0  0  0  0  0  0  0  0  0  0  0  0
    1.4047   -3.8119    4.5325 H   0  0  0  0  0  0  0  0  0  0  0  0
    2.8133   -4.8521    4.7046 H   0  0  0  0  0  0  0  0  0  0  0  0
    2.1471   -3.0231    2.3569 H   0  0  0  0  0  0  0  0  0  0  0  0
    3.5183   -2.9133    3.4366 H   0  0  0  0  0  0  0  0  0  0  0  0
    3.9204   -2.9817    0.5601 H   0  0  0  0  0  0  0  0  0  0  0  0
    5.0995   -2.9977    1.8167 H   0  0  0  0  0  0  0  0  0  0  0  0
    4.2465   -4.5543   -1.1133 H   0  0  0  0  0  0  0  0  0  0  0  0
    6.8554   -2.6246    0.1014 H   0  0  0  0  0  0  0  0  0  0  0  0
    7.1967   -3.8472   -1.1061 H   0  0  0  0  0  0  0  0  0  0  0  0
    5.3076   -3.9122   -3.1744 H   0  0  0  0  0  0  0  0  0  0  0  0
    4.0931   -0.0267   -2.4441 H   0  0  0  0  0  0  0  0  0  0  0  0
    4.9562   -6.9865    1.0663 H   0  0  0  0  0  0  0  0  0  0  0  0
    6.2657   -8.5752    2.3800 H   0  0  0  0  0  0  0  0  0  0  0  0
    9.4839   -5.7238    2.6266 H   0  0  0  0  0  0  0  0  0  0  0  0
    3.1523   -6.0338    0.6421 H   0  0  0  0  0  0  0  0  0  0  0  0
    2.1313   -4.6184    0.5021 H   0  0  0  0  0  0  0  0  0  0  0  0
  1  2  1  0
  1 30  1  0
  1 31  1  0
  1 32  1  0
  2  3  1  0
  2 33  1  0
  2 34  1  0
  3  8  2  0
  3  4  1  0
  4  5  2  0
  4 35  1  0
  5  6  1  0
  5 36  1  0
  6 29  1  0
  6  7  2  0
  7  8  1  0
  7  9  1  0
  9 10  1  0
  9 37  1  0
  9 38  1  0
 10 11  1  0
 10 39  1  0
 10 40  1  0
 11 12  1  0
 11 29  1  0
 12 13  1  0
 12 41  1  0
 12 42  1  0
 13 14  1  6
 13 15  1  0
 13 21  1  0
 14 43  1  0
 15 16  1  0
 15 44  1  0
 15 45  1  0
 16 20  1  0
 16 17  1  0
 17 18  2  0
 17 46  1  0
 18 19  1  0
 19 20  2  0
 19 47  1  0
 21 27  1  0
 21 22  2  0
 22 23  1  0
 22 48  1  0
 23 24  2  0
 23 49  1  0
 24 25  1  0
 24 26  1  0
 26 27  2  0
 26 50  1  0
 27 28  1  0
 29 51  1  0
 29 52  1  0
M  END
>  <i_m_ct_stereo_status>  (239) 
1

>  <s_m_source_file>  (239) 
/var/tmp/pbs.5076255.sched01/tmp2672eyar/80wl2hclo4.sdf

>  <i_m_source_file_index>  (239) 
14

>  <i_lp_mmshare_version>  (239) 
48012

>  <i_f3d_flags>  (239) 
0

>  <s_epik_input>  (239) 
W0NIM11bQ0gyXWMoW2NIXVtjSF0xKW5jKGMxMilbQ0gyXVtDSDJdTihbQ0gyXTIpW0NIMl1bQ0BAXShbT0hdKShbQ0gyXW4zW2NIXW5bY0hdbjMpYzRbY0hdW2NIXWMoRilbY0hdYzRG

>  <s_epik_cmdline>  (239) 
J2VwaWtfcHl0aG9uJywgJy1waHQnLCAnMi4wJywgJy1waCcsICc3LjAnLCAnLXRuJywgJzgnLCAnLW1hJywgJzIwMCcsICctaW1hZScsICc8aW5maWxlLm1hZT4nLCAnLW9tYWUnLCAnPG91dGZpbGUubWFlPic=

>  <r_lp_tautomer_probability>  (239) 
1

>  <r_epik_Ionization_Penalty>  (239) 
2.0662

>  <r_epik_Ionization_Penalty_Charging>  (239) 
0

>  <r_epik_Ionization_Penalty_Neutral>  (239) 
2.0662

>  <r_epik_State_Penalty>  (239) 
2.70161

>  <r_epik_Charging_Adjusted_Penalty>  (239) 
2.70161

>  <i_epik_Tot_Q>  (239) 
0

>  <i_epik_Tot_abs_Q>  (239) 
0

>  <s_lp_Force_Field>  (239) 
OPLS3e

>  <r_lp_Energy>  (239) 
30.3409

>  <b_lp_Chiralities_Consistent>  (239) 
1

>  <s_lp_Variant>  (239) 
68:0-2

>  <s_i_glide_gridfile>  (239) 
pfpi4k_grid

>  <i_i_glide_lignum>  (239) 
14

>  <i_i_glide_rotatable_bonds>  (239) 
7

>  <r_i_docking_score>  (239) 
-3.23854

>  <r_i_glide_ligand_efficiency>  (239) 
-0.111674

>  <r_i_glide_ligand_efficiency_sa>  (239) 
-0.343098

>  <r_i_glide_ligand_efficiency_ln>  (239) 
-0.741544

>  <r_i_glide_gscore>  (239) 
-3.23854

>  <r_i_glide_lipo>  (239) 
-0.554818

>  <r_i_glide_hbond>  (239) 
0

>  <r_i_glide_metal>  (239) 
-0

>  <r_i_glide_rewards>  (239) 
-1.00988

>  <r_i_glide_evdw>  (239) 
-31.8056

>  <r_i_glide_ecoul>  (239) 
-4.06196

>  <r_i_glide_erotb>  (239) 
0.614055

>  <r_i_glide_esite>  (239) 
-0.0883265

>  <r_i_glide_emodel>  (239) 
-39.9672

>  <r_i_glide_energy>  (239) 
-35.8676

>  <r_i_glide_einternal>  (239) 
5.96301

>  <r_i_glide_intrahb_reward>  (239) 
-0

>  <i_i_glide_confnum>  (239) 
3

>  <i_i_glide_posenum>  (239) 
2

>  <r_i_glide_eff_state_penalty>  (239) 
0

>  <ligand_id>  (239) 
68

>  <original_smiles>  (239) 
CCc1ccc2c(n1)CCN(CC(O)(Cn1cncn1)c1ccc(F)cc1F)C2

>  <smiles>  (239) 
[H]OC(c1c([H])c([H])c(F)c([H])c1F)(C([H])([H])N1C([H])([H])c2c(nc(C([H])([H])C([H])([H])[H])c([H])c2[H])C([H])([H])C1([H])[H])C([H])([H])n1nc([H])nc1[H]

$$$$
69:0:0
     RDKit          3D

 61 67  0  0  1  0  0  0  0  0999 V2000
    5.1977   -0.4297    2.2958 O   0  0  0  0  0  0  0  0  0  0  0  0
    5.0855   -1.6169    2.0023 C   0  0  0  0  0  0  0  0  0  0  0  0
    4.2040   -2.5294    2.8804 C   0  0  2  0  0  0  0  0  0  0  0  0
    5.0352   -3.6076    3.6354 C   0  0  0  0  0  0  0  0  0  0  0  0
    4.1405   -4.6176    4.4087 C   0  0  0  0  0  0  0  0  0  0  0  0
    3.0496   -5.2093    3.4920 C   0  0  1  0  0  0  0  0  0  0  0  0
    2.1648   -4.0856    2.9326 C   0  0  0  0  0  0  0  0  0  0  0  0
    2.9696   -3.0562    2.0926 C   0  0  0  0  0  0  0  0  0  0  0  0
    3.6854   -5.8994    2.4282 O   0  0  0  0  0  0  0  0  0  0  0  0
    3.7200   -7.2997    2.9170 O   0  0  0  0  0  0  0  0  0  0  0  0
    2.5028   -7.4126    3.6068 C   0  0  1  0  0  0  0  0  0  0  0  0
    1.4104   -7.6664    2.5340 C   0  0  0  0  0  0  0  0  0  0  0  0
    0.2416   -8.5656    3.0266 C   0  0  1  0  0  0  0  0  0  0  0  0
    0.5220  -10.0921    2.8578 C   0  0  0  0  0  0  0  0  0  0  0  0
    1.4908  -10.6725    3.9180 C   0  0  2  0  0  0  0  0  0  0  0  0
    0.9777  -10.3592    5.3121 C   0  0  0  0  0  0  0  0  0  0  0  0
    1.1313   -8.8361    5.3446 C   0  0  2  0  0  0  0  0  0  0  0  0
   -0.0440   -8.2653    4.5176 C   0  0  0  0  0  0  0  0  0  0  0  0
    2.5112   -8.5715    4.6501 C   0  0  1  0  0  0  0  0  0  0  0  0
    2.8303   -9.9342    3.9469 C   0  0  0  0  0  0  0  0  0  0  0  0
    2.2606   -6.1452    4.2274 O   0  0  0  0  0  0  0  0  0  0  0  0
    5.7039   -2.1423    0.9197 N   0  0  0  0  0  0  0  0  0  0  0  0
    5.7935   -3.4748    0.3614 C   0  0  1  0  0  0  0  0  0  0  0  0
    5.2713   -3.2220   -1.0556 C   0  0  0  0  0  0  0  0  0  0  0  0
    5.8055   -1.8168   -1.3582 C   0  0  0  0  0  0  0  0  0  0  0  0
    6.5389   -1.4591   -0.0449 C   0  0  2  0  0  0  0  0  0  0  0  0
    7.8520   -2.2615    0.0657 C   0  0  0  0  0  0  0  0  0  0  0  0
    7.3175   -3.6699    0.3810 C   0  0  0  0  0  0  0  0  0  0  0  0
    3.8026   -1.8714    3.6578 H   0  0  0  0  0  0  0  0  0  0  0  0
    5.6557   -4.2089    2.9759 H   0  0  0  0  0  0  0  0  0  0  0  0
    5.7037   -3.1005    4.3461 H   0  0  0  0  0  0  0  0  0  0  0  0
    4.7927   -5.3916    4.7906 H   0  0  0  0  0  0  0  0  0  0  0  0
    3.6820   -4.1223    5.2773 H   0  0  0  0  0  0  0  0  0  0  0  0
    1.3961   -4.4943    2.2819 H   0  0  0  0  0  0  0  0  0  0  0  0
    1.6653   -3.5624    3.7577 H   0  0  0  0  0  0  0  0  0  0  0  0
    2.3283   -2.2216    1.8064 H   0  0  0  0  0  0  0  0  0  0  0  0
    3.2269   -3.5542    1.1595 H   0  0  0  0  0  0  0  0  0  0  0  0
    1.0188   -6.7504    2.1026 H   0  0  0  0  0  0  0  0  0  0  0  0
    1.8973   -8.1553    1.6734 H   0  0  0  0  0  0  0  0  0  0  0  0
   -0.6408   -8.3457    2.4326 H   0  0  0  0  0  0  0  0  0  0  0  0
   -0.4248  -10.6234    2.9271 H   0  0  0  0  0  0  0  0  0  0  0  0
    0.9024  -10.2869    1.8562 H   0  0  0  0  0  0  0  0  0  0  0  0
    1.6345  -11.7446    3.7666 H   0  0  0  0  0  0  0  0  0  0  0  0
   -0.0396  -10.7169    5.4710 H   0  0  0  0  0  0  0  0  0  0  0  0
    1.6111  -10.8317    6.0621 H   0  0  0  0  0  0  0  0  0  0  0  0
    1.0750   -8.4795    6.3747 H   0  0  0  0  0  0  0  0  0  0  0  0
   -0.1500   -7.1905    4.6696 H   0  0  0  0  0  0  0  0  0  0  0  0
   -0.9923   -8.7054    4.8265 H   0  0  0  0  0  0  0  0  0  0  0  0
    3.2603   -8.3945    5.4197 H   0  0  0  0  0  0  0  0  0  0  0  0
    3.5380  -10.5029    4.5519 H   0  0  0  0  0  0  0  0  0  0  0  0
    3.2572   -9.8199    2.9584 H   0  0  0  0  0  0  0  0  0  0  0  0
    5.2662   -4.3258    0.7915 H   0  0  0  0  0  0  0  0  0  0  0  0
    5.6185   -3.9807   -1.7544 H   0  0  0  0  0  0  0  0  0  0  0  0
    4.1801   -3.2181   -1.0561 H   0  0  0  0  0  0  0  0  0  0  0  0
    6.4614   -1.8472   -2.2303 H   0  0  0  0  0  0  0  0  0  0  0  0
    4.9823   -1.1199   -1.5487 H   0  0  0  0  0  0  0  0  0  0  0  0
    6.6704   -0.3838    0.1108 H   0  0  0  0  0  0  0  0  0  0  0  0
    8.4391   -2.2502   -0.8569 H   0  0  0  0  0  0  0  0  0  0  0  0
    8.4860   -1.8849    0.8731 H   0  0  0  0  0  0  0  0  0  0  0  0
    7.6399   -3.9808    1.3733 H   0  0  0  0  0  0  0  0  0  0  0  0
    7.6418   -4.4260   -0.3308 H   0  0  0  0  0  0  0  0  0  0  0  0
  1  2  2  0
  2  3  1  0
  2 22  1  0
  3  8  1  0
  3  4  1  0
  3 29  1  1
  4  5  1  0
  4 30  1  0
  4 31  1  0
  5  6  1  0
  5 32  1  0
  5 33  1  0
  6 21  1  1
  6  7  1  0
  6  9  1  0
  7  8  1  0
  7 34  1  0
  7 35  1  0
  8 36  1  0
  8 37  1  0
  9 10  1  0
 11 10  1  6
 11 19  1  0
 11 12  1  0
 11 21  1  0
 12 13  1  0
 12 38  1  0
 12 39  1  0
 13 18  1  0
 13 14  1  0
 13 40  1  6
 14 15  1  0
 14 41  1  0
 14 42  1  0
 15 20  1  0
 15 16  1  0
 15 43  1  1
 16 17  1  0
 16 44  1  0
 16 45  1  0
 17 18  1  0
 17 19  1  0
 17 46  1  1
 18 47  1  0
 18 48  1  0
 19 20  1  0
 19 49  1  1
 20 50  1  0
 20 51  1  0
 22 26  1  0
 22 23  1  0
 23 28  1  0
 23 24  1  0
 23 52  1  1
 24 25  1  0
 24 53  1  0
 24 54  1  0
 25 26  1  0
 25 55  1  0
 25 56  1  0
 26 27  1  0
 26 57  1  1
 27 28  1  0
 27 58  1  0
 27 59  1  0
 28 60  1  0
 28 61  1  0
M  END
>  <i_m_ct_stereo_status>  (240) 
1

>  <s_m_source_file>  (240) 
/var/tmp/pbs.5076255.sched01/tmp2672eyar/80wl2hclo4.sdf

>  <i_m_source_file_index>  (240) 
15

>  <i_lp_mmshare_version>  (240) 
48012

>  <i_f3d_flags>  (240) 
0

>  <s_epik_input>  (240) 
W0NIMl0xW0NIMl1bQ0BASF0oW0NIMl1bQ0gyXTIpTihbQ0BIXTEyKUMoPU8pW0NAQEhdKFtDSDJdW0NIMl0zKVtDSDJdW0NIMl1bQ0BdMzRPT1tDQF01KE80KVtDQEhdNltDQEBIXTdbQ0gyXVtDQEhdKFtDSDJdNilbQ0gyXVtDQEhdKFtDSDJdNSlbQ0gyXTc=

>  <s_epik_cmdline>  (240) 
J2VwaWtfcHl0aG9uJywgJy1waHQnLCAnMi4wJywgJy1waCcsICc3LjAnLCAnLXRuJywgJzgnLCAnLW1hJywgJzIwMCcsICctaW1hZScsICc8aW5maWxlLm1hZT4nLCAnLW9tYWUnLCAnPG91dGZpbGUubWFlPic=

>  <r_lp_tautomer_probability>  (240) 
1

>  <r_epik_Ionization_Penalty>  (240) 
1.73911e-07

>  <r_epik_Ionization_Penalty_Charging>  (240) 
0

>  <r_epik_Ionization_Penalty_Neutral>  (240) 
1.73911e-07

>  <r_epik_State_Penalty>  (240) 
-0

>  <r_epik_Charging_Adjusted_Penalty>  (240) 
0

>  <i_epik_Tot_Q>  (240) 
0

>  <i_epik_Tot_abs_Q>  (240) 
0

>  <s_lp_Force_Field>  (240) 
OPLS3e

>  <r_lp_Energy>  (240) 
72.6255

>  <b_lp_Chiralities_Consistent>  (240) 
1

>  <s_lp_Variant>  (240) 
69:0-1

>  <s_i_glide_gridfile>  (240) 
pfpi4k_grid

>  <i_i_glide_lignum>  (240) 
15

>  <i_i_glide_rotatable_bonds>  (240) 
2

>  <r_i_docking_score>  (240) 
-2.86664

>  <r_i_glide_ligand_efficiency>  (240) 
-0.10238

>  <r_i_glide_ligand_efficiency_sa>  (240) 
-0.310886

>  <r_i_glide_ligand_efficiency_ln>  (240) 
-0.661705

>  <r_i_glide_gscore>  (240) 
-2.86664

>  <r_i_glide_lipo>  (240) 
-0.487964

>  <r_i_glide_hbond>  (240) 
-0.0420791

>  <r_i_glide_metal>  (240) 
-0

>  <r_i_glide_rewards>  (240) 
-0.99284

>  <r_i_glide_evdw>  (240) 
-28.4118

>  <r_i_glide_ecoul>  (240) 
-1.20511

>  <r_i_glide_erotb>  (240) 
0.259373

>  <r_i_glide_esite>  (240) 
-0.00177383

>  <r_i_glide_emodel>  (240) 
-32.7633

>  <r_i_glide_energy>  (240) 
-29.6169

>  <r_i_glide_einternal>  (240) 
5.22549

>  <r_i_glide_intrahb_reward>  (240) 
-0

>  <i_i_glide_confnum>  (240) 
3

>  <i_i_glide_posenum>  (240) 
30

>  <r_i_glide_eff_state_penalty>  (240) 
0

>  <ligand_id>  (240) 
69

>  <original_smiles>  (240) 
O=C(C1CCC2(CC1)OOC1(CC3CC4CC(C3)C1C4)O2)N1C2CCC1CC2

>  <smiles>  (240) 
[H]C1([H])C([H])([H])C([H])(C(=O)N2C3([H])C([H])([H])C([H])([H])C2([H])C([H])([H])C3([H])[H])C([H])([H])C([H])([H])C12OOC1(O2)C([H])([H])C2([H])C([H])([H])C3([H])C([H])([H])C([H])(C2([H])[H])C1([H])C3([H])[H]

$$$$
69:0:1
     RDKit          3D

 61 67  0  0  1  0  0  0  0  0999 V2000
    4.6840  -11.4401    4.0687 O   0  0  0  0  0  0  0  0  0  0  0  0
    4.0783  -10.4333    3.7276 C   0  0  0  0  0  0  0  0  0  0  0  0
    4.8821   -9.2748    3.0705 C   0  0  2  0  0  0  0  0  0  0  0  0
    4.9160   -8.0357    3.9967 C   0  0  0  0  0  0  0  0  0  0  0  0
    5.6355   -6.8291    3.3622 C   0  0  0  0  0  0  0  0  0  0  0  0
    5.0210   -6.4891    1.9841 C   0  0  1  0  0  0  0  0  0  0  0  0
    5.1366   -7.7202    1.0493 C   0  0  0  0  0  0  0  0  0  0  0  0
    4.4248   -8.9686    1.6132 C   0  0  0  0  0  0  0  0  0  0  0  0
    3.6585   -6.1467    2.2013 O   0  0  0  0  0  0  0  0  0  0  0  0
    3.6958   -4.6765    2.3062 O   0  0  0  0  0  0  0  0  0  0  0  0
    4.6828   -4.3316    1.3514 C   0  0  1  0  0  0  0  0  0  0  0  0
    3.9674   -4.3688   -0.0326 C   0  0  0  0  0  0  0  0  0  0  0  0
    4.5283   -3.3383   -1.0503 C   0  0  1  0  0  0  0  0  0  0  0  0
    3.8345   -1.9432   -0.9585 C   0  0  0  0  0  0  0  0  0  0  0  0
    4.3202   -1.1005    0.2501 C   0  0  2  0  0  0  0  0  0  0  0  0
    5.8298   -0.9627    0.2169 C   0  0  0  0  0  0  0  0  0  0  0  0
    6.2563   -2.4133    0.4939 C   0  0  2  0  0  0  0  0  0  0  0  0
    6.0495   -3.1825   -0.8296 C   0  0  0  0  0  0  0  0  0  0  0  0
    5.2663   -2.8975    1.6074 C   0  0  1  0  0  0  0  0  0  0  0  0
    4.1405   -1.8360    1.5831 C   0  0  0  0  0  0  0  0  0  0  0  0
    5.6924   -5.3553    1.4247 O   0  0  0  0  0  0  0  0  0  0  0  0
    2.7743  -10.2643    3.9421 N   0  0  0  0  0  0  0  0  0  0  0  0
    1.8167   -9.2366    3.5659 C   0  0  1  0  0  0  0  0  0  0  0  0
    0.7971  -10.0821    2.7924 C   0  0  0  0  0  0  0  0  0  0  0  0
    0.8060  -11.4179    3.5658 C   0  0  0  0  0  0  0  0  0  0  0  0
    1.8484  -11.1503    4.6541 C   0  0  2  0  0  0  0  0  0  0  0  0
    1.2596  -10.1731    5.6879 C   0  0  0  0  0  0  0  0  0  0  0  0
    1.2482   -8.8347    4.9273 C   0  0  0  0  0  0  0  0  0  0  0  0
    5.9138   -9.6350    3.0261 H   0  0  0  0  0  0  0  0  0  0  0  0
    3.9047   -7.7098    4.2496 H   0  0  0  0  0  0  0  0  0  0  0  0
    5.3843   -8.3002    4.9478 H   0  0  0  0  0  0  0  0  0  0  0  0
    5.5452   -5.9837    4.0497 H   0  0  0  0  0  0  0  0  0  0  0  0
    6.7001   -7.0412    3.2681 H   0  0  0  0  0  0  0  0  0  0  0  0
    4.7053   -7.5008    0.0771 H   0  0  0  0  0  0  0  0  0  0  0  0
    6.2002   -7.9359    0.8846 H   0  0  0  0  0  0  0  0  0  0  0  0
    4.6839   -9.8239    0.9690 H   0  0  0  0  0  0  0  0  0  0  0  0
    3.3500   -8.8114    1.5320 H   0  0  0  0  0  0  0  0  0  0  0  0
    3.9940   -5.3679   -0.4633 H   0  0  0  0  0  0  0  0  0  0  0  0
    2.9146   -4.1786    0.1239 H   0  0  0  0  0  0  0  0  0  0  0  0
    4.3420   -3.7316   -2.0576 H   0  0  0  0  0  0  0  0  0  0  0  0
    4.0226   -1.3744   -1.8714 H   0  0  0  0  0  0  0  0  0  0  0  0
    2.7504   -2.0652   -0.9286 H   0  0  0  0  0  0  0  0  0  0  0  0
    3.8218   -0.1287    0.2659 H   0  0  0  0  0  0  0  0  0  0  0  0
    6.1754   -0.5692   -0.7344 H   0  0  0  0  0  0  0  0  0  0  0  0
    6.1776   -0.2800    1.0010 H   0  0  0  0  0  0  0  0  0  0  0  0
    7.3066   -2.4557    0.7932 H   0  0  0  0  0  0  0  0  0  0  0  0
    6.5200   -4.1565   -0.7854 H   0  0  0  0  0  0  0  0  0  0  0  0
    6.5119   -2.6641   -1.6765 H   0  0  0  0  0  0  0  0  0  0  0  0
    5.7690   -2.8673    2.5673 H   0  0  0  0  0  0  0  0  0  0  0  0
    4.2781   -1.1284    2.4011 H   0  0  0  0  0  0  0  0  0  0  0  0
    3.1343   -2.2529    1.6841 H   0  0  0  0  0  0  0  0  0  0  0  0
    2.1613   -8.3647    3.0124 H   0  0  0  0  0  0  0  0  0  0  0  0
   -0.1931   -9.6253    2.7474 H   0  0  0  0  0  0  0  0  0  0  0  0
    1.1462  -10.2412    1.7764 H   0  0  0  0  0  0  0  0  0  0  0  0
   -0.1649  -11.6408    4.0115 H   0  0  0  0  0  0  0  0  0  0  0  0
    1.0975  -12.2535    2.9203 H   0  0  0  0  0  0  0  0  0  0  0  0
    2.2640  -12.0601    5.1005 H   0  0  0  0  0  0  0  0  0  0  0  0
    0.2621  -10.4652    6.0308 H   0  0  0  0  0  0  0  0  0  0  0  0
    1.9088  -10.1094    6.5658 H   0  0  0  0  0  0  0  0  0  0  0  0
    1.9038   -8.1204    5.4230 H   0  0  0  0  0  0  0  0  0  0  0  0
    0.2505   -8.3990    4.8511 H   0  0  0  0  0  0  0  0  0  0  0  0
  1  2  2  0
  2  3  1  0
  2 22  1  0
  3  8  1  0
  3  4  1  0
  3 29  1  6
  4  5  1  0
  4 30  1  0
  4 31  1  0
  5  6  1  0
  5 32  1  0
  5 33  1  0
  6 21  1  6
  6  7  1  0
  6  9  1  0
  7  8  1  0
  7 34  1  0
  7 35  1  0
  8 36  1  0
  8 37  1  0
  9 10  1  0
 11 10  1  1
 11 19  1  0
 11 12  1  0
 11 21  1  0
 12 13  1  0
 12 38  1  0
 12 39  1  0
 13 18  1  0
 13 14  1  0
 13 40  1  6
 14 15  1  0
 14 41  1  0
 14 42  1  0
 15 20  1  0
 15 16  1  0
 15 43  1  1
 16 17  1  0
 16 44  1  0
 16 45  1  0
 17 18  1  0
 17 19  1  0
 17 46  1  1
 18 47  1  0
 18 48  1  0
 19 20  1  0
 19 49  1  1
 20 50  1  0
 20 51  1  0
 22 26  1  0
 22 23  1  0
 23 28  1  0
 23 24  1  0
 23 52  1  6
 24 25  1  0
 24 53  1  0
 24 54  1  0
 25 26  1  0
 25 55  1  0
 25 56  1  0
 26 27  1  0
 26 57  1  1
 27 28  1  0
 27 58  1  0
 27 59  1  0
 28 60  1  0
 28 61  1  0
M  END
>  <i_m_ct_stereo_status>  (241) 
1

>  <s_m_source_file>  (241) 
/var/tmp/pbs.5076255.sched01/tmp2672eyar/80wl2hclo4.sdf

>  <i_m_source_file_index>  (241) 
15

>  <i_lp_mmshare_version>  (241) 
48012

>  <i_f3d_flags>  (241) 
0

>  <s_epik_input>  (241) 
W0NIMl0xW0NIMl1bQ0BASF0oW0NIMl1bQ0gyXTIpTihbQ0BIXTEyKUMoPU8pW0NAQEhdKFtDSDJdW0NIMl0zKVtDSDJdW0NIMl1bQ0BdMzRPT1tDQF01KE80KVtDQEhdNltDQEBIXTdbQ0gyXVtDQEhdKFtDSDJdNilbQ0gyXVtDQEhdKFtDSDJdNSlbQ0gyXTc=

>  <s_epik_cmdline>  (241) 
J2VwaWtfcHl0aG9uJywgJy1waHQnLCAnMi4wJywgJy1waCcsICc3LjAnLCAnLXRuJywgJzgnLCAnLW1hJywgJzIwMCcsICctaW1hZScsICc8aW5maWxlLm1hZT4nLCAnLW9tYWUnLCAnPG91dGZpbGUubWFlPic=

>  <r_lp_tautomer_probability>  (241) 
1

>  <r_epik_Ionization_Penalty>  (241) 
1.73911e-07

>  <r_epik_Ionization_Penalty_Charging>  (241) 
0

>  <r_epik_Ionization_Penalty_Neutral>  (241) 
1.73911e-07

>  <r_epik_State_Penalty>  (241) 
-0

>  <r_epik_Charging_Adjusted_Penalty>  (241) 
0

>  <i_epik_Tot_Q>  (241) 
0

>  <i_epik_Tot_abs_Q>  (241) 
0

>  <s_lp_Force_Field>  (241) 
OPLS3e

>  <r_lp_Energy>  (241) 
72.6255

>  <b_lp_Chiralities_Consistent>  (241) 
1

>  <s_lp_Variant>  (241) 
69:0-1

>  <s_i_glide_gridfile>  (241) 
pfpi4k_grid

>  <i_i_glide_lignum>  (241) 
15

>  <i_i_glide_rotatable_bonds>  (241) 
2

>  <r_i_docking_score>  (241) 
-2.78378

>  <r_i_glide_ligand_efficiency>  (241) 
-0.0994206

>  <r_i_glide_ligand_efficiency_sa>  (241) 
-0.301899

>  <r_i_glide_ligand_efficiency_ln>  (241) 
-0.642577

>  <r_i_glide_gscore>  (241) 
-2.78378

>  <r_i_glide_lipo>  (241) 
-0.579867

>  <r_i_glide_hbond>  (241) 
0

>  <r_i_glide_metal>  (241) 
-0

>  <r_i_glide_rewards>  (241) 
-0.847748

>  <r_i_glide_evdw>  (241) 
-29.7818

>  <r_i_glide_ecoul>  (241) 
-0.649261

>  <r_i_glide_erotb>  (241) 
0.259373

>  <r_i_glide_esite>  (241) 
-0.0290572

>  <r_i_glide_emodel>  (241) 
-33.1848

>  <r_i_glide_energy>  (241) 
-30.431

>  <r_i_glide_einternal>  (241) 
5.26557

>  <r_i_glide_intrahb_reward>  (241) 
-0

>  <i_i_glide_confnum>  (241) 
3

>  <i_i_glide_posenum>  (241) 
3

>  <r_i_glide_eff_state_penalty>  (241) 
0

>  <ligand_id>  (241) 
69

>  <original_smiles>  (241) 
O=C(C1CCC2(CC1)OOC1(CC3CC4CC(C3)C1C4)O2)N1C2CCC1CC2

>  <smiles>  (241) 
[H]C1([H])C([H])([H])C([H])(C(=O)N2C3([H])C([H])([H])C([H])([H])C2([H])C([H])([H])C3([H])[H])C([H])([H])C([H])([H])C12OOC1(O2)C([H])([H])C2([H])C([H])([H])C3([H])C([H])([H])C([H])(C2([H])[H])C1([H])C3([H])[H]

$$$$
69:0:2
     RDKit          3D

 61 67  0  0  1  0  0  0  0  0999 V2000
    5.1822   -0.5821    0.9141 O   0  0  0  0  0  0  0  0  0  0  0  0
    4.6698   -1.6497    0.6024 C   0  0  0  0  0  0  0  0  0  0  0  0
    4.1341   -2.5724    1.7241 C   0  0  2  0  0  0  0  0  0  0  0  0
    4.9473   -3.8902    1.8036 C   0  0  0  0  0  0  0  0  0  0  0  0
    4.3995   -4.8883    2.8487 C   0  0  0  0  0  0  0  0  0  0  0  0
    2.8973   -5.1569    2.5940 C   0  0  1  0  0  0  0  0  0  0  0  0
    2.1207   -3.8200    2.6992 C   0  0  0  0  0  0  0  0  0  0  0  0
    2.5928   -2.7700    1.6512 C   0  0  0  0  0  0  0  0  0  0  0  0
    2.7683   -5.7172    1.2982 O   0  0  0  0  0  0  0  0  0  0  0  0
    2.7602   -7.1756    1.5658 O   0  0  0  0  0  0  0  0  0  0  0  0
    2.0465   -7.2452    2.7839 C   0  0  1  0  0  0  0  0  0  0  0  0
    0.5433   -7.1605    2.3754 C   0  0  0  0  0  0  0  0  0  0  0  0
   -0.3987   -7.9675    3.3167 C   0  0  1  0  0  0  0  0  0  0  0  0
   -0.5672   -9.4513    2.8748 C   0  0  0  0  0  0  0  0  0  0  0  0
    0.6444  -10.3474    3.2632 C   0  0  2  0  0  0  0  0  0  0  0  0
    0.9470  -10.2411    4.7506 C   0  0  0  0  0  0  0  0  0  0  0  0
    1.4228   -8.7806    4.8285 C   0  0  2  0  0  0  0  0  0  0  0  0
    0.1471   -7.9104    4.7628 C   0  0  0  0  0  0  0  0  0  0  0  0
    2.3136   -8.5880    3.5532 C   0  0  1  0  0  0  0  0  0  0  0  0
    1.9578   -9.8189    2.6736 C   0  0  0  0  0  0  0  0  0  0  0  0
    2.4141   -6.0990    3.5441 O   0  0  0  0  0  0  0  0  0  0  0  0
    4.6092   -2.0664   -0.6673 N   0  0  0  0  0  0  0  0  0  0  0  0
    3.9961   -3.2050   -1.3249 C   0  0  1  0  0  0  0  0  0  0  0  0
    3.1596   -2.4847   -2.3906 C   0  0  0  0  0  0  0  0  0  0  0  0
    4.0426   -1.2729   -2.7682 C   0  0  0  0  0  0  0  0  0  0  0  0
    5.2469   -1.4664   -1.8340 C   0  0  2  0  0  0  0  0  0  0  0  0
    6.1128   -2.6566   -2.3253 C   0  0  0  0  0  0  0  0  0  0  0  0
    5.2192   -3.8559   -1.9720 C   0  0  0  0  0  0  0  0  0  0  0  0
    4.3459   -2.0408    2.6578 H   0  0  0  0  0  0  0  0  0  0  0  0
    4.9352   -4.4226    0.8493 H   0  0  0  0  0  0  0  0  0  0  0  0
    5.9938   -3.6570    2.0168 H   0  0  0  0  0  0  0  0  0  0  0  0
    4.9870   -5.8048    2.7679 H   0  0  0  0  0  0  0  0  0  0  0  0
    4.5579   -4.5021    3.8584 H   0  0  0  0  0  0  0  0  0  0  0  0
    1.0633   -4.0065    2.5422 H   0  0  0  0  0  0  0  0  0  0  0  0
    2.2223   -3.4281    3.7230 H   0  0  0  0  0  0  0  0  0  0  0  0
    2.0949   -1.8102    1.8752 H   0  0  0  0  0  0  0  0  0  0  0  0
    2.2572   -3.0973    0.6619 H   0  0  0  0  0  0  0  0  0  0  0  0
    0.2039   -6.1350    2.3046 H   0  0  0  0  0  0  0  0  0  0  0  0
    0.4386   -7.5421    1.3615 H   0  0  0  0  0  0  0  0  0  0  0  0
   -1.3947   -7.5129    3.2871 H   0  0  0  0  0  0  0  0  0  0  0  0
   -1.4669   -9.8425    3.3374 H   0  0  0  0  0  0  0  0  0  0  0  0
   -0.7741   -9.5225    1.8006 H   0  0  0  0  0  0  0  0  0  0  0  0
    0.4759  -11.3821    2.9573 H   0  0  0  0  0  0  0  0  0  0  0  0
    0.0828  -10.4659    5.3755 H   0  0  0  0  0  0  0  0  0  0  0  0
    1.7351  -10.9450    5.0444 H   0  0  0  0  0  0  0  0  0  0  0  0
    1.9476   -8.6050    5.7706 H   0  0  0  0  0  0  0  0  0  0  0  0
    0.3529   -6.8834    5.0494 H   0  0  0  0  0  0  0  0  0  0  0  0
   -0.6033   -8.2686    5.4729 H   0  0  0  0  0  0  0  0  0  0  0  0
    3.3549   -8.6489    3.8442 H   0  0  0  0  0  0  0  0  0  0  0  0
    2.7339  -10.5818    2.7674 H   0  0  0  0  0  0  0  0  0  0  0  0
    1.8618   -9.5814    1.6137 H   0  0  0  0  0  0  0  0  0  0  0  0
    3.4207   -3.9298   -0.7442 H   0  0  0  0  0  0  0  0  0  0  0  0
    2.9138   -3.1177   -3.2452 H   0  0  0  0  0  0  0  0  0  0  0  0
    2.2311   -2.1454   -1.9389 H   0  0  0  0  0  0  0  0  0  0  0  0
    4.3248   -1.2707   -3.8241 H   0  0  0  0  0  0  0  0  0  0  0  0
    3.5433   -0.3238   -2.5511 H   0  0  0  0  0  0  0  0  0  0  0  0
    5.7850   -0.5266   -1.6608 H   0  0  0  0  0  0  0  0  0  0  0  0
    6.2904   -2.6654   -3.3969 H   0  0  0  0  0  0  0  0  0  0  0  0
    7.0791   -2.7292   -1.8039 H   0  0  0  0  0  0  0  0  0  0  0  0
    5.7330   -4.5059   -1.2654 H   0  0  0  0  0  0  0  0  0  0  0  0
    4.9503   -4.4482   -2.8523 H   0  0  0  0  0  0  0  0  0  0  0  0
  1  2  2  0
  2  3  1  0
  2 22  1  0
  3  8  1  0
  3  4  1  0
  3 29  1  1
  4  5  1  0
  4 30  1  0
  4 31  1  0
  5  6  1  0
  5 32  1  0
  5 33  1  0
  6 21  1  1
  6  7  1  0
  6  9  1  0
  7  8  1  0
  7 34  1  0
  7 35  1  0
  8 36  1  0
  8 37  1  0
  9 10  1  0
 11 10  1  6
 11 19  1  0
 11 12  1  0
 11 21  1  0
 12 13  1  0
 12 38  1  0
 12 39  1  0
 13 18  1  0
 13 14  1  0
 13 40  1  1
 14 15  1  0
 14 41  1  0
 14 42  1  0
 15 20  1  0
 15 16  1  0
 15 43  1  6
 16 17  1  0
 16 44  1  0
 16 45  1  0
 17 18  1  0
 17 19  1  0
 17 46  1  1
 18 47  1  0
 18 48  1  0
 19 20  1  0
 19 49  1  1
 20 50  1  0
 20 51  1  0
 22 26  1  0
 22 23  1  0
 23 28  1  0
 23 24  1  0
 23 52  1  1
 24 25  1  0
 24 53  1  0
 24 54  1  0
 25 26  1  0
 25 55  1  0
 25 56  1  0
 26 27  1  0
 26 57  1  1
 27 28  1  0
 27 58  1  0
 27 59  1  0
 28 60  1  0
 28 61  1  0
M  END
>  <i_m_ct_stereo_status>  (242) 
1

>  <s_m_source_file>  (242) 
/var/tmp/pbs.5076255.sched01/tmp2672eyar/80wl2hclo4.sdf

>  <i_m_source_file_index>  (242) 
15

>  <i_lp_mmshare_version>  (242) 
48012

>  <i_f3d_flags>  (242) 
0

>  <s_epik_input>  (242) 
W0NIMl0xW0NIMl1bQ0BASF0oW0NIMl1bQ0gyXTIpTihbQ0BIXTEyKUMoPU8pW0NAQEhdKFtDSDJdW0NIMl0zKVtDSDJdW0NIMl1bQ0BdMzRPT1tDQF01KE80KVtDQEhdNltDQEBIXTdbQ0gyXVtDQEhdKFtDSDJdNilbQ0gyXVtDQEhdKFtDSDJdNSlbQ0gyXTc=

>  <s_epik_cmdline>  (242) 
J2VwaWtfcHl0aG9uJywgJy1waHQnLCAnMi4wJywgJy1waCcsICc3LjAnLCAnLXRuJywgJzgnLCAnLW1hJywgJzIwMCcsICctaW1hZScsICc8aW5maWxlLm1hZT4nLCAnLW9tYWUnLCAnPG91dGZpbGUubWFlPic=

>  <r_lp_tautomer_probability>  (242) 
1

>  <r_epik_Ionization_Penalty>  (242) 
1.73911e-07

>  <r_epik_Ionization_Penalty_Charging>  (242) 
0

>  <r_epik_Ionization_Penalty_Neutral>  (242) 
1.73911e-07

>  <r_epik_State_Penalty>  (242) 
-0

>  <r_epik_Charging_Adjusted_Penalty>  (242) 
0

>  <i_epik_Tot_Q>  (242) 
0

>  <i_epik_Tot_abs_Q>  (242) 
0

>  <s_lp_Force_Field>  (242) 
OPLS3e

>  <r_lp_Energy>  (242) 
72.6255

>  <b_lp_Chiralities_Consistent>  (242) 
1

>  <s_lp_Variant>  (242) 
69:0-1

>  <s_i_glide_gridfile>  (242) 
pfpi4k_grid

>  <i_i_glide_lignum>  (242) 
15

>  <i_i_glide_rotatable_bonds>  (242) 
2

>  <r_i_docking_score>  (242) 
-2.58461

>  <r_i_glide_ligand_efficiency>  (242) 
-0.0923074

>  <r_i_glide_ligand_efficiency_sa>  (242) 
-0.2803

>  <r_i_glide_ligand_efficiency_ln>  (242) 
-0.596603

>  <r_i_glide_gscore>  (242) 
-2.58461

>  <r_i_glide_lipo>  (242) 
-0.15987

>  <r_i_glide_hbond>  (242) 
0

>  <r_i_glide_metal>  (242) 
-0

>  <r_i_glide_rewards>  (242) 
-0.776364

>  <r_i_glide_evdw>  (242) 
-34.7346

>  <r_i_glide_ecoul>  (242) 
-0.905817

>  <r_i_glide_erotb>  (242) 
0.259373

>  <r_i_glide_esite>  (242) 
-0.0351426

>  <r_i_glide_emodel>  (242) 
-37.6042

>  <r_i_glide_energy>  (242) 
-35.6404

>  <r_i_glide_einternal>  (242) 
5.86063

>  <r_i_glide_intrahb_reward>  (242) 
-0

>  <i_i_glide_confnum>  (242) 
3

>  <i_i_glide_posenum>  (242) 
9

>  <r_i_glide_eff_state_penalty>  (242) 
0

>  <ligand_id>  (242) 
69

>  <original_smiles>  (242) 
O=C(C1CCC2(CC1)OOC1(CC3CC4CC(C3)C1C4)O2)N1C2CCC1CC2

>  <smiles>  (242) 
[H]C1([H])C([H])([H])C([H])(C(=O)N2C3([H])C([H])([H])C([H])([H])C2([H])C([H])([H])C3([H])[H])C([H])([H])C([H])([H])C12OOC1(O2)C([H])([H])C2([H])C([H])([H])C3([H])C([H])([H])C([H])(C2([H])[H])C1([H])C3([H])[H]

$$$$
70:0:0
     RDKit          3D

 46 50  0  0  1  0  0  0  0  0999 V2000
    3.7507    0.4695   -4.0416 C   0  0  0  0  0  0  0  0  0  0  0  0
    3.0191   -0.7287   -3.5918 N   0  0  0  0  0  0  0  0  0  0  0  0
    3.8841   -1.7727   -2.9960 C   0  0  2  0  0  0  0  0  0  0  0  0
    3.1878   -3.1553   -3.0785 C   0  0  0  0  0  0  0  0  0  0  0  0
    2.2876   -3.5391   -1.8689 C   0  0  0  0  0  0  0  0  0  0  0  0
    2.8453   -4.2053   -0.5680 C   0  0  0  0  0  0  0  0  0  0  0  0
    2.2168   -5.2320    0.1682 C   0  0  0  0  0  0  0  0  0  0  0  0
    1.0721   -5.8158   -0.3112 O   0  0  0  0  0  0  0  0  0  0  0  0
    2.7191   -5.6590    1.4152 C   0  0  0  0  0  0  0  0  0  0  0  0
    3.8719   -5.0481    1.9716 C   0  0  0  0  0  0  0  0  0  0  0  0
    4.5454   -4.0325    1.2732 C   0  0  0  0  0  0  0  0  0  0  0  0
    4.0307   -3.6478   -0.0046 C   0  0  0  0  0  0  0  0  0  0  0  0
    4.8284   -2.6406   -0.7761 C   0  0  2  0  0  0  0  0  0  0  0  0
    5.9802   -3.3483   -1.5449 C   0  0  0  0  0  0  0  0  0  0  0  0
    7.2153   -3.6900   -0.7063 C   0  0  0  0  0  0  0  0  0  0  0  0
    7.6095   -2.5566    0.2343 C   0  0  0  0  0  0  0  0  0  0  0  0
    6.3932   -2.0465    1.0116 C   0  0  2  0  0  0  0  0  0  0  0  0
    5.7774   -3.2458    1.8217 C   0  0  0  0  0  0  0  0  0  0  0  0
    5.2859   -1.5034    0.1250 C   0  0  2  0  0  0  0  0  0  0  0  0
    4.3824   -0.9432    1.0754 O   0  0  0  0  0  0  0  0  0  0  0  0
    5.3859   -0.7088   -1.1103 O   0  0  0  0  0  0  0  0  0  0  0  0
    4.2117   -1.4796   -1.5363 C   0  0  1  0  0  0  0  0  0  0  0  0
    3.0666    1.1693   -4.5220 H   0  0  0  0  0  0  0  0  0  0  0  0
    4.5155    0.2275   -4.7796 H   0  0  0  0  0  0  0  0  0  0  0  0
    4.2214    0.9736   -3.1997 H   0  0  0  0  0  0  0  0  0  0  0  0
    2.3161   -0.4572   -2.9165 H   0  0  0  0  0  0  0  0  0  0  0  0
    4.7918   -1.8449   -3.5968 H   0  0  0  0  0  0  0  0  0  0  0  0
    2.5636   -3.1571   -3.9739 H   0  0  0  0  0  0  0  0  0  0  0  0
    3.9068   -3.9373   -3.2850 H   0  0  0  0  0  0  0  0  0  0  0  0
    1.6099   -2.7296   -1.6263 H   0  0  0  0  0  0  0  0  0  0  0  0
    1.6086   -4.2654   -2.2964 H   0  0  0  0  0  0  0  0  0  0  0  0
    0.8756   -5.4397   -1.1536 H   0  0  0  0  0  0  0  0  0  0  0  0
    2.2011   -6.4291    1.9703 H   0  0  0  0  0  0  0  0  0  0  0  0
    4.2218   -5.3659    2.9450 H   0  0  0  0  0  0  0  0  0  0  0  0
    5.6393   -4.2262   -2.0939 H   0  0  0  0  0  0  0  0  0  0  0  0
    6.3806   -2.6723   -2.2997 H   0  0  0  0  0  0  0  0  0  0  0  0
    7.0192   -4.6060   -0.1498 H   0  0  0  0  0  0  0  0  0  0  0  0
    8.0779   -3.8593   -1.3462 H   0  0  0  0  0  0  0  0  0  0  0  0
    8.4001   -2.9135    0.8876 H   0  0  0  0  0  0  0  0  0  0  0  0
    8.0449   -1.7350   -0.3316 H   0  0  0  0  0  0  0  0  0  0  0  0
    6.7650   -1.2842    1.7112 H   0  0  0  0  0  0  0  0  0  0  0  0
    5.4241   -2.8369    2.7640 H   0  0  0  0  0  0  0  0  0  0  0  0
    6.5449   -3.9620    2.0988 H   0  0  0  0  0  0  0  0  0  0  0  0
    3.6124   -0.6264    0.6228 H   0  0  0  0  0  0  0  0  0  0  0  0
    3.3063   -1.1138   -1.0386 H   0  0  0  0  0  0  0  0  0  0  0  0
    2.5765   -1.1234   -4.4068 H   0  0  0  0  0  0  0  0  0  0  0  0
  1  2  1  0
  1 23  1  0
  1 24  1  0
  1 25  1  0
  2  3  1  0
  2 26  1  0
  2 46  1  0
  3 22  1  0
  3  4  1  0
  3 27  1  6
  4  5  1  0
  4 28  1  0
  4 29  1  0
  5  6  1  0
  5 30  1  0
  5 31  1  0
  6 12  2  0
  6  7  1  0
  7  8  1  0
  7  9  2  0
  8 32  1  0
  9 10  1  0
  9 33  1  0
 10 11  2  0
 10 34  1  0
 11 18  1  0
 11 12  1  0
 12 13  1  0
 13 19  1  0
 13 22  1  0
 13 14  1  6
 14 15  1  0
 14 35  1  0
 14 36  1  0
 15 16  1  0
 15 37  1  0
 15 38  1  0
 16 17  1  0
 16 39  1  0
 16 40  1  0
 17 18  1  0
 17 19  1  0
 17 41  1  1
 18 42  1  0
 18 43  1  0
 19 20  1  1
 19 21  1  0
 20 44  1  0
 21 22  1  0
 22 45  1  1
M  CHG  1   2   1
M  END
>  <i_m_ct_stereo_status>  (243) 
1

>  <s_m_source_file>  (243) 
/var/tmp/pbs.5076255.sched01/tmp2672eyar/80wl2hclo4.sdf

>  <i_m_source_file_index>  (243) 
16

>  <i_lp_mmshare_version>  (243) 
48012

>  <i_f3d_flags>  (243) 
0

>  <s_epik_input>  (243) 
W0NIM11bTkhdW0NASF0oW0NIMl1bQ0gyXTEpW0NAQEhdMk9bQ0BdMyhbT0hdKVtDQEhdKFtDSDJdW0NIMl1bQ0gyXTQpW0NIMl1jNVtjSF1bY0hdYyhbT0hdKWMxYzVbQ0BAXTIzNA==

>  <s_epik_cmdline>  (243) 
J2VwaWtfcHl0aG9uJywgJy1waHQnLCAnMi4wJywgJy1waCcsICc3LjAnLCAnLXRuJywgJzgnLCAnLW1hJywgJzIwMCcsICctaW1hZScsICc8aW5maWxlLm1hZT4nLCAnLW9tYWUnLCAnPG91dGZpbGUubWFlPic=

>  <r_lp_tautomer_probability>  (243) 
1

>  <r_epik_Ionization_Penalty>  (243) 
0.0016626

>  <r_epik_Ionization_Penalty_Charging>  (243) 
0.00158507

>  <r_epik_Ionization_Penalty_Neutral>  (243) 
7.75298e-05

>  <r_epik_State_Penalty>  (243) 
0.00106587

>  <r_epik_Charging_Adjusted_Penalty>  (243) 
0.00265094

>  <i_epik_Tot_Q>  (243) 
1

>  <i_epik_Tot_abs_Q>  (243) 
1

>  <s_lp_Force_Field>  (243) 
OPLS3e

>  <r_lp_Energy>  (243) 
71.3625

>  <b_lp_Chiralities_Consistent>  (243) 
1

>  <s_lp_Variant>  (243) 
70:0-1

>  <s_i_glide_gridfile>  (243) 
pfpi4k_grid

>  <i_i_glide_lignum>  (243) 
16

>  <i_i_glide_rotatable_bonds>  (243) 
3

>  <r_i_docking_score>  (243) 
-4.48904

>  <r_i_glide_ligand_efficiency>  (243) 
-0.204047

>  <r_i_glide_ligand_efficiency_sa>  (243) 
-0.571748

>  <r_i_glide_ligand_efficiency_ln>  (243) 
-1.09728

>  <r_i_glide_gscore>  (243) 
-4.48904

>  <r_i_glide_lipo>  (243) 
-0.806664

>  <r_i_glide_hbond>  (243) 
-0.4575

>  <r_i_glide_metal>  (243) 
-0

>  <r_i_glide_rewards>  (243) 
-1.37484

>  <r_i_glide_evdw>  (243) 
-19.4705

>  <r_i_glide_ecoul>  (243) 
-5.84338

>  <r_i_glide_erotb>  (243) 
0

>  <r_i_glide_esite>  (243) 
0

>  <r_i_glide_emodel>  (243) 
-34.1257

>  <r_i_glide_energy>  (243) 
-25.3139

>  <r_i_glide_einternal>  (243) 
0.358647

>  <r_i_glide_intrahb_reward>  (243) 
-0

>  <i_i_glide_confnum>  (243) 
1

>  <i_i_glide_posenum>  (243) 
23

>  <r_i_glide_eff_state_penalty>  (243) 
0

>  <ligand_id>  (243) 
70

>  <original_smiles>  (243) 
CNC1CCc2c(O)ccc3c2C24CCCC(C3)C2(O)OC14

>  <smiles>  (243) 
[H]Oc1c([H])c([H])c2c3c1C([H])([H])C([H])([H])C([H])([N+]([H])([H])C([H])([H])[H])C1([H])OC4(O[H])C([H])(C2([H])[H])C([H])([H])C([H])([H])C([H])([H])C314

$$$$
70:0:1
     RDKit          3D

 46 50  0  0  1  0  0  0  0  0999 V2000
    3.7457    0.2138   -3.9427 C   0  0  0  0  0  0  0  0  0  0  0  0
    3.0235   -0.9690   -3.4345 N   0  0  0  0  0  0  0  0  0  0  0  0
    3.8802   -1.9952   -2.8020 C   0  0  2  0  0  0  0  0  0  0  0  0
    3.1749   -3.3849   -2.8158 C   0  0  0  0  0  0  0  0  0  0  0  0
    2.2822   -3.7423   -1.5823 C   0  0  0  0  0  0  0  0  0  0  0  0
    2.8682   -4.3075   -0.2613 C   0  0  0  0  0  0  0  0  0  0  0  0
    2.2314   -5.2850    0.5386 C   0  0  0  0  0  0  0  0  0  0  0  0
    1.0680   -5.8714    0.1287 O   0  0  0  0  0  0  0  0  0  0  0  0
    2.7580   -5.6551    1.7937 C   0  0  0  0  0  0  0  0  0  0  0  0
    3.9122   -5.0344    2.3004 C   0  0  0  0  0  0  0  0  0  0  0  0
    4.5848   -4.0493    1.5511 C   0  0  0  0  0  0  0  0  0  0  0  0
    4.0588   -3.7305    0.2649 C   0  0  0  0  0  0  0  0  0  0  0  0
    4.8533   -2.7517   -0.5530 C   0  0  2  0  0  0  0  0  0  0  0  0
    6.0006   -3.4932   -1.3081 C   0  0  0  0  0  0  0  0  0  0  0  0
    7.2367   -3.8312   -0.4660 C   0  0  0  0  0  0  0  0  0  0  0  0
    7.6480   -2.6538    0.4143 C   0  0  0  0  0  0  0  0  0  0  0  0
    6.4422   -2.1028    1.1934 C   0  0  2  0  0  0  0  0  0  0  0  0
    5.8199   -3.2551    2.0690 C   0  0  0  0  0  0  0  0  0  0  0  0
    5.3262   -1.5846    0.2949 C   0  0  2  0  0  0  0  0  0  0  0  0
    4.4407   -0.9548    1.2221 O   0  0  0  0  0  0  0  0  0  0  0  0
    5.4089   -0.8411   -0.9683 O   0  0  0  0  0  0  0  0  0  0  0  0
    4.2284   -1.6320   -1.3582 C   0  0  1  0  0  0  0  0  0  0  0  0
    3.0482    0.8955   -4.4368 H   0  0  0  0  0  0  0  0  0  0  0  0
    4.5024   -0.0729   -4.6811 H   0  0  0  0  0  0  0  0  0  0  0  0
    4.2304    0.7578   -3.1271 H   0  0  0  0  0  0  0  0  0  0  0  0
    2.3155   -0.6758   -2.7678 H   0  0  0  0  0  0  0  0  0  0  0  0
    4.7827   -2.0907   -3.4133 H   0  0  0  0  0  0  0  0  0  0  0  0
    2.5387   -3.4228   -3.7038 H   0  0  0  0  0  0  0  0  0  0  0  0
    3.8994   -4.1704   -2.9975 H   0  0  0  0  0  0  0  0  0  0  0  0
    1.6021   -2.9330   -1.3549 H   0  0  0  0  0  0  0  0  0  0  0  0
    1.5965   -4.5127   -1.9338 H   0  0  0  0  0  0  0  0  0  0  0  0
    0.9209   -6.6961    0.5668 H   0  0  0  0  0  0  0  0  0  0  0  0
    2.2506   -6.3936    2.3978 H   0  0  0  0  0  0  0  0  0  0  0  0
    4.2769   -5.3035    3.2791 H   0  0  0  0  0  0  0  0  0  0  0  0
    5.6423   -4.3860   -1.8133 H   0  0  0  0  0  0  0  0  0  0  0  0
    6.3956   -2.8503   -2.0968 H   0  0  0  0  0  0  0  0  0  0  0  0
    7.0292   -4.7136    0.1383 H   0  0  0  0  0  0  0  0  0  0  0  0
    8.0843   -4.0838   -1.1014 H   0  0  0  0  0  0  0  0  0  0  0  0
    8.4398   -2.9910    1.0802 H   0  0  0  0  0  0  0  0  0  0  0  0
    8.0749   -1.8563   -0.1972 H   0  0  0  0  0  0  0  0  0  0  0  0
    6.8231   -1.3120    1.8489 H   0  0  0  0  0  0  0  0  0  0  0  0
    5.4785   -2.7993    2.9988 H   0  0  0  0  0  0  0  0  0  0  0  0
    6.5805   -3.9723    2.3716 H   0  0  0  0  0  0  0  0  0  0  0  0
    3.6884   -0.6380    0.7481 H   0  0  0  0  0  0  0  0  0  0  0  0
    3.3246   -1.2328   -0.8835 H   0  0  0  0  0  0  0  0  0  0  0  0
    2.5577   -1.3979   -4.2236 H   0  0  0  0  0  0  0  0  0  0  0  0
  1  2  1  0
  1 23  1  0
  1 24  1  0
  1 25  1  0
  2  3  1  0
  2 26  1  0
  2 46  1  0
  3 22  1  0
  3  4  1  0
  3 27  1  6
  4  5  1  0
  4 28  1  0
  4 29  1  0
  5  6  1  0
  5 30  1  0
  5 31  1  0
  6 12  2  0
  6  7  1  0
  7  8  1  0
  7  9  2  0
  8 32  1  0
  9 10  1  0
  9 33  1  0
 10 11  2  0
 10 34  1  0
 11 18  1  0
 11 12  1  0
 12 13  1  0
 13 19  1  0
 13 22  1  0
 13 14  1  6
 14 15  1  0
 14 35  1  0
 14 36  1  0
 15 16  1  0
 15 37  1  0
 15 38  1  0
 16 17  1  0
 16 39  1  0
 16 40  1  0
 17 18  1  0
 17 19  1  0
 17 41  1  1
 18 42  1  0
 18 43  1  0
 19 20  1  1
 19 21  1  0
 20 44  1  0
 21 22  1  0
 22 45  1  1
M  CHG  1   2   1
M  END
>  <i_m_ct_stereo_status>  (244) 
1

>  <s_m_source_file>  (244) 
/var/tmp/pbs.5076255.sched01/tmp2672eyar/80wl2hclo4.sdf

>  <i_m_source_file_index>  (244) 
16

>  <i_lp_mmshare_version>  (244) 
48012

>  <i_f3d_flags>  (244) 
0

>  <s_epik_input>  (244) 
W0NIM11bTkhdW0NASF0oW0NIMl1bQ0gyXTEpW0NAQEhdMk9bQ0BdMyhbT0hdKVtDQEhdKFtDSDJdW0NIMl1bQ0gyXTQpW0NIMl1jNVtjSF1bY0hdYyhbT0hdKWMxYzVbQ0BAXTIzNA==

>  <s_epik_cmdline>  (244) 
J2VwaWtfcHl0aG9uJywgJy1waHQnLCAnMi4wJywgJy1waCcsICc3LjAnLCAnLXRuJywgJzgnLCAnLW1hJywgJzIwMCcsICctaW1hZScsICc8aW5maWxlLm1hZT4nLCAnLW9tYWUnLCAnPG91dGZpbGUubWFlPic=

>  <r_lp_tautomer_probability>  (244) 
1

>  <r_epik_Ionization_Penalty>  (244) 
0.0016626

>  <r_epik_Ionization_Penalty_Charging>  (244) 
0.00158507

>  <r_epik_Ionization_Penalty_Neutral>  (244) 
7.75298e-05

>  <r_epik_State_Penalty>  (244) 
0.00106587

>  <r_epik_Charging_Adjusted_Penalty>  (244) 
0.00265094

>  <i_epik_Tot_Q>  (244) 
1

>  <i_epik_Tot_abs_Q>  (244) 
1

>  <s_lp_Force_Field>  (244) 
OPLS3e

>  <r_lp_Energy>  (244) 
71.3625

>  <b_lp_Chiralities_Consistent>  (244) 
1

>  <s_lp_Variant>  (244) 
70:0-1

>  <s_i_glide_gridfile>  (244) 
pfpi4k_grid

>  <i_i_glide_lignum>  (244) 
16

>  <i_i_glide_rotatable_bonds>  (244) 
3

>  <r_i_docking_score>  (244) 
-4.38334

>  <r_i_glide_ligand_efficiency>  (244) 
-0.199243

>  <r_i_glide_ligand_efficiency_sa>  (244) 
-0.558286

>  <r_i_glide_ligand_efficiency_ln>  (244) 
-1.07145

>  <r_i_glide_gscore>  (244) 
-4.38334

>  <r_i_glide_lipo>  (244) 
-0.67495

>  <r_i_glide_hbond>  (244) 
-0.333773

>  <r_i_glide_metal>  (244) 
-0

>  <r_i_glide_rewards>  (244) 
-1.41495

>  <r_i_glide_evdw>  (244) 
-19.0262

>  <r_i_glide_ecoul>  (244) 
-6.7224

>  <r_i_glide_erotb>  (244) 
0

>  <r_i_glide_esite>  (244) 
0

>  <r_i_glide_emodel>  (244) 
-33.85

>  <r_i_glide_energy>  (244) 
-25.7486

>  <r_i_glide_einternal>  (244) 
0.812882

>  <r_i_glide_intrahb_reward>  (244) 
-0

>  <i_i_glide_confnum>  (244) 
1

>  <i_i_glide_posenum>  (244) 
37

>  <r_i_glide_eff_state_penalty>  (244) 
0

>  <ligand_id>  (244) 
70

>  <original_smiles>  (244) 
CNC1CCc2c(O)ccc3c2C24CCCC(C3)C2(O)OC14

>  <smiles>  (244) 
[H]Oc1c([H])c([H])c2c3c1C([H])([H])C([H])([H])C([H])([N+]([H])([H])C([H])([H])[H])C1([H])OC4(O[H])C([H])(C2([H])[H])C([H])([H])C([H])([H])C([H])([H])C314

$$$$
70:0:2
     RDKit          3D

 46 50  0  0  1  0  0  0  0  0999 V2000
    3.6933    0.3342   -3.9978 C   0  0  0  0  0  0  0  0  0  0  0  0
    3.0254   -0.8619   -3.4540 N   0  0  0  0  0  0  0  0  0  0  0  0
    3.9413   -1.8726   -2.8912 C   0  0  2  0  0  0  0  0  0  0  0  0
    3.2722   -3.2745   -2.8765 C   0  0  0  0  0  0  0  0  0  0  0  0
    2.4695   -3.6446   -1.5907 C   0  0  0  0  0  0  0  0  0  0  0  0
    3.1434   -4.2414   -0.3184 C   0  0  0  0  0  0  0  0  0  0  0  0
    2.5866   -5.2454    0.5013 C   0  0  0  0  0  0  0  0  0  0  0  0
    1.4157   -5.8663    0.1585 O   0  0  0  0  0  0  0  0  0  0  0  0
    3.1984   -5.6176    1.7192 C   0  0  0  0  0  0  0  0  0  0  0  0
    4.3699   -4.9676    2.1610 C   0  0  0  0  0  0  0  0  0  0  0  0
    4.9603   -3.9554    1.3812 C   0  0  0  0  0  0  0  0  0  0  0  0
    4.3457   -3.6335    0.1355 C   0  0  0  0  0  0  0  0  0  0  0  0
    5.0652   -2.6357   -0.7201 C   0  0  2  0  0  0  0  0  0  0  0  0
    6.1754   -3.3488   -1.5521 C   0  0  0  0  0  0  0  0  0  0  0  0
    7.4785   -3.6486   -0.7981 C   0  0  0  0  0  0  0  0  0  0  0  0
    7.9204   -2.4750    0.0742 C   0  0  0  0  0  0  0  0  0  0  0  0
    6.7475   -1.9539    0.9193 C   0  0  2  0  0  0  0  0  0  0  0  0
    6.2174   -3.1389    1.8027 C   0  0  0  0  0  0  0  0  0  0  0  0
    5.5662   -1.4609    0.1019 C   0  0  2  0  0  0  0  0  0  0  0  0
    4.7075   -0.8520    1.0616 O   0  0  0  0  0  0  0  0  0  0  0  0
    5.5613   -0.7259   -1.1667 O   0  0  0  0  0  0  0  0  0  0  0  0
    4.3673   -1.5227   -1.4710 C   0  0  1  0  0  0  0  0  0  0  0  0
    2.9535    0.9968   -4.4463 H   0  0  0  0  0  0  0  0  0  0  0  0
    4.4045    0.0784   -4.7867 H   0  0  0  0  0  0  0  0  0  0  0  0
    4.2216    0.8911   -3.2180 H   0  0  0  0  0  0  0  0  0  0  0  0
    2.3618   -0.5859   -2.7409 H   0  0  0  0  0  0  0  0  0  0  0  0
    4.8056   -1.9444   -3.5547 H   0  0  0  0  0  0  0  0  0  0  0  0
    2.5808   -3.3160   -3.7219 H   0  0  0  0  0  0  0  0  0  0  0  0
    3.9939   -4.0468   -3.1156 H   0  0  0  0  0  0  0  0  0  0  0  0
    1.8231   -2.8245   -1.3022 H   0  0  0  0  0  0  0  0  0  0  0  0
    1.7676   -4.4092   -1.9158 H   0  0  0  0  0  0  0  0  0  0  0  0
    1.2973   -6.6717    0.6390 H   0  0  0  0  0  0  0  0  0  0  0  0
    2.7503   -6.3773    2.3442 H   0  0  0  0  0  0  0  0  0  0  0  0
    4.8066   -5.2453    3.1073 H   0  0  0  0  0  0  0  0  0  0  0  0
    5.8067   -4.2471   -2.0451 H   0  0  0  0  0  0  0  0  0  0  0  0
    6.5063   -2.6960   -2.3610 H   0  0  0  0  0  0  0  0  0  0  0  0
    7.3408   -4.5473   -0.1984 H   0  0  0  0  0  0  0  0  0  0  0  0
    8.2806   -3.8521   -1.5045 H   0  0  0  0  0  0  0  0  0  0  0  0
    8.7581   -2.7872    0.6994 H   0  0  0  0  0  0  0  0  0  0  0  0
    8.3124   -1.6792   -0.5548 H   0  0  0  0  0  0  0  0  0  0  0  0
    7.1510   -1.1622    1.5610 H   0  0  0  0  0  0  0  0  0  0  0  0
    5.9442   -2.7230    2.7715 H   0  0  0  0  0  0  0  0  0  0  0  0
    7.0121   -3.8556    1.9810 H   0  0  0  0  0  0  0  0  0  0  0  0
    4.3192   -1.5562    1.5651 H   0  0  0  0  0  0  0  0  0  0  0  0
    3.4939   -1.1453   -0.9252 H   0  0  0  0  0  0  0  0  0  0  0  0
    2.5247   -1.2913   -4.2171 H   0  0  0  0  0  0  0  0  0  0  0  0
  1  2  1  0
  1 23  1  0
  1 24  1  0
  1 25  1  0
  2  3  1  0
  2 26  1  0
  2 46  1  0
  3 22  1  0
  3  4  1  0
  3 27  1  6
  4  5  1  0
  4 28  1  0
  4 29  1  0
  5  6  1  0
  5 30  1  0
  5 31  1  0
  6 12  2  0
  6  7  1  0
  7  8  1  0
  7  9  2  0
  8 32  1  0
  9 10  1  0
  9 33  1  0
 10 11  2  0
 10 34  1  0
 11 18  1  0
 11 12  1  0
 12 13  1  0
 13 19  1  0
 13 22  1  0
 13 14  1  6
 14 15  1  0
 14 35  1  0
 14 36  1  0
 15 16  1  0
 15 37  1  0
 15 38  1  0
 16 17  1  0
 16 39  1  0
 16 40  1  0
 17 18  1  0
 17 19  1  0
 17 41  1  1
 18 42  1  0
 18 43  1  0
 19 20  1  1
 19 21  1  0
 20 44  1  0
 21 22  1  0
 22 45  1  1
M  CHG  1   2   1
M  END
>  <i_m_ct_stereo_status>  (245) 
1

>  <s_m_source_file>  (245) 
/var/tmp/pbs.5076255.sched01/tmp2672eyar/80wl2hclo4.sdf

>  <i_m_source_file_index>  (245) 
16

>  <i_lp_mmshare_version>  (245) 
48012

>  <i_f3d_flags>  (245) 
0

>  <s_epik_input>  (245) 
W0NIM11bTkhdW0NASF0oW0NIMl1bQ0gyXTEpW0NAQEhdMk9bQ0BdMyhbT0hdKVtDQEhdKFtDSDJdW0NIMl1bQ0gyXTQpW0NIMl1jNVtjSF1bY0hdYyhbT0hdKWMxYzVbQ0BAXTIzNA==

>  <s_epik_cmdline>  (245) 
J2VwaWtfcHl0aG9uJywgJy1waHQnLCAnMi4wJywgJy1waCcsICc3LjAnLCAnLXRuJywgJzgnLCAnLW1hJywgJzIwMCcsICctaW1hZScsICc8aW5maWxlLm1hZT4nLCAnLW9tYWUnLCAnPG91dGZpbGUubWFlPic=

>  <r_lp_tautomer_probability>  (245) 
1

>  <r_epik_Ionization_Penalty>  (245) 
0.0016626

>  <r_epik_Ionization_Penalty_Charging>  (245) 
0.00158507

>  <r_epik_Ionization_Penalty_Neutral>  (245) 
7.75298e-05

>  <r_epik_State_Penalty>  (245) 
0.00106587

>  <r_epik_Charging_Adjusted_Penalty>  (245) 
0.00265094

>  <i_epik_Tot_Q>  (245) 
1

>  <i_epik_Tot_abs_Q>  (245) 
1

>  <s_lp_Force_Field>  (245) 
OPLS3e

>  <r_lp_Energy>  (245) 
71.3625

>  <b_lp_Chiralities_Consistent>  (245) 
1

>  <s_lp_Variant>  (245) 
70:0-1

>  <s_i_glide_gridfile>  (245) 
pfpi4k_grid

>  <i_i_glide_lignum>  (245) 
16

>  <i_i_glide_rotatable_bonds>  (245) 
3

>  <r_i_docking_score>  (245) 
-4.04462

>  <r_i_glide_ligand_efficiency>  (245) 
-0.183846

>  <r_i_glide_ligand_efficiency_sa>  (245) 
-0.515144

>  <r_i_glide_ligand_efficiency_ln>  (245) 
-0.988652

>  <r_i_glide_gscore>  (245) 
-4.04462

>  <r_i_glide_lipo>  (245) 
-0.659989

>  <r_i_glide_hbond>  (245) 
-0.220426

>  <r_i_glide_metal>  (245) 
-0

>  <r_i_glide_rewards>  (245) 
-1.36678

>  <r_i_glide_evdw>  (245) 
-21.2153

>  <r_i_glide_ecoul>  (245) 
-4.91103

>  <r_i_glide_erotb>  (245) 
0

>  <r_i_glide_esite>  (245) 
0

>  <r_i_glide_emodel>  (245) 
-33.2605

>  <r_i_glide_energy>  (245) 
-26.1263

>  <r_i_glide_einternal>  (245) 
1.65504

>  <r_i_glide_intrahb_reward>  (245) 
-0

>  <i_i_glide_confnum>  (245) 
1

>  <i_i_glide_posenum>  (245) 
22

>  <r_i_glide_eff_state_penalty>  (245) 
0

>  <ligand_id>  (245) 
70

>  <original_smiles>  (245) 
CNC1CCc2c(O)ccc3c2C24CCCC(C3)C2(O)OC14

>  <smiles>  (245) 
[H]Oc1c([H])c([H])c2c3c1C([H])([H])C([H])([H])C([H])([N+]([H])([H])C([H])([H])[H])C1([H])OC4(O[H])C([H])(C2([H])[H])C([H])([H])C([H])([H])C([H])([H])C314

$$$$
71:0:0
     RDKit          3D

 16 18  0  0  1  0  0  0  0  0999 V2000
    2.3316  -11.4482    4.1069 C   0  0  0  0  0  0  0  0  0  0  0  0
    3.3991  -10.7277    3.5118 C   0  0  0  0  0  0  0  0  0  0  0  0
    3.1832   -9.5438    2.7592 C   0  0  0  0  0  0  0  0  0  0  0  0
    1.8479   -9.1004    2.6182 C   0  0  0  0  0  0  0  0  0  0  0  0
    0.8003   -9.8489    3.2236 C   0  0  0  0  0  0  0  0  0  0  0  0
    0.9920  -11.0186    3.9746 C   0  0  0  0  0  0  0  0  0  0  0  0
   -0.7906   -9.1023    2.9060 S   0  0  0  0  0  0  0  0  0  0  0  0
    0.0451   -7.8201    1.9941 C   0  0  0  0  0  0  0  0  0  0  0  0
   -0.1435   -6.7194    1.3133 N   0  0  0  0  0  0  0  0  0  0  0  0
    1.1475   -6.3180    0.8953 N   0  0  0  0  0  0  0  0  0  0  0  0
    2.0893   -7.1211    1.3218 N   0  0  0  0  0  0  0  0  0  0  0  0
    1.3897   -8.0429    1.9857 N   0  0  0  0  0  0  0  0  0  0  0  0
    2.5346  -12.3464    4.6777 H   0  0  0  0  0  0  0  0  0  0  0  0
    4.4044  -11.1029    3.6367 H   0  0  0  0  0  0  0  0  0  0  0  0
    4.0155   -9.0132    2.3146 H   0  0  0  0  0  0  0  0  0  0  0  0
    0.1700  -11.5556    4.4259 H   0  0  0  0  0  0  0  0  0  0  0  0
  1  6  2  0
  1  2  1  0
  1 13  1  0
  2  3  2  0
  2 14  1  0
  3  4  1  0
  3 15  1  0
  4 12  1  0
  4  5  2  0
  5  6  1  0
  5  7  1  0
  6 16  1  0
  7  8  1  0
  8 12  1  0
  8  9  2  0
  9 10  1  0
 10 11  2  0
 11 12  1  0
M  END
>  <i_m_ct_stereo_status>  (246) 
1

>  <s_m_source_file>  (246) 
/var/tmp/pbs.5076255.sched01/tmp2672eyar/80wl2hclo4.sdf

>  <i_m_source_file_index>  (246) 
17

>  <i_lp_mmshare_version>  (246) 
48012

>  <i_f3d_flags>  (246) 
0

>  <s_epik_input>  (246) 
W2NIXTFbY0hdW2NIXVtjSF1jKGMxMilzYzNuMm5ubjM=

>  <s_epik_cmdline>  (246) 
J2VwaWtfcHl0aG9uJywgJy1waHQnLCAnMi4wJywgJy1waCcsICc3LjAnLCAnLXRuJywgJzgnLCAnLW1hJywgJzIwMCcsICctaW1hZScsICc8aW5maWxlLm1hZT4nLCAnLW9tYWUnLCAnPG91dGZpbGUubWFlPic=

>  <r_lp_tautomer_probability>  (246) 
1

>  <r_epik_Ionization_Penalty>  (246) 
1.40826e-06

>  <r_epik_Ionization_Penalty_Charging>  (246) 
0

>  <r_epik_Ionization_Penalty_Neutral>  (246) 
1.40826e-06

>  <r_epik_State_Penalty>  (246) 
-0

>  <r_epik_Charging_Adjusted_Penalty>  (246) 
0

>  <i_epik_Tot_Q>  (246) 
0

>  <i_epik_Tot_abs_Q>  (246) 
0

>  <s_lp_Force_Field>  (246) 
OPLS3e

>  <r_lp_Energy>  (246) 
11.1558

>  <b_lp_Chiralities_Consistent>  (246) 
1

>  <s_lp_Variant>  (246) 
71:0-1

>  <s_i_glide_gridfile>  (246) 
pfpi4k_grid

>  <i_i_glide_lignum>  (246) 
17

>  <i_i_glide_rotatable_bonds>  (246) 
0

>  <r_i_docking_score>  (246) 
-4.19185

>  <r_i_glide_ligand_efficiency>  (246) 
-0.349321

>  <r_i_glide_ligand_efficiency_sa>  (246) 
-0.799745

>  <r_i_glide_ligand_efficiency_ln>  (246) 
-1.20286

>  <r_i_glide_gscore>  (246) 
-4.19185

>  <r_i_glide_lipo>  (246) 
-0.132939

>  <r_i_glide_hbond>  (246) 
0

>  <r_i_glide_metal>  (246) 
-0

>  <r_i_glide_rewards>  (246) 
-2.20773

>  <r_i_glide_evdw>  (246) 
-19.8963

>  <r_i_glide_ecoul>  (246) 
-3.64283

>  <r_i_glide_erotb>  (246) 
0

>  <r_i_glide_esite>  (246) 
-0.30994

>  <r_i_glide_emodel>  (246) 
-30.7086

>  <r_i_glide_energy>  (246) 
-23.5392

>  <r_i_glide_einternal>  (246) 
0

>  <r_i_glide_intrahb_reward>  (246) 
-0

>  <i_i_glide_confnum>  (246) 
1

>  <i_i_glide_posenum>  (246) 
8

>  <r_i_glide_eff_state_penalty>  (246) 
0

>  <ligand_id>  (246) 
71

>  <original_smiles>  (246) 
c1ccc2c(c1)sc1nnnn12

>  <smiles>  (246) 
[H]c1c([H])c([H])c2c(sc3nnnn32)c1[H]

$$$$
71:0:1
     RDKit          3D

 16 18  0  0  1  0  0  0  0  0999 V2000
    3.5870   -1.1488   -3.8427 C   0  0  0  0  0  0  0  0  0  0  0  0
    2.8155   -2.3369   -3.7966 C   0  0  0  0  0  0  0  0  0  0  0  0
    2.6390   -3.0733   -2.6015 C   0  0  0  0  0  0  0  0  0  0  0  0
    3.2849   -2.6039   -1.4383 C   0  0  0  0  0  0  0  0  0  0  0  0
    4.0574   -1.4116   -1.5171 C   0  0  0  0  0  0  0  0  0  0  0  0
    4.2285   -0.6546   -2.6857 C   0  0  0  0  0  0  0  0  0  0  0  0
    4.7570   -0.9979    0.0689 S   0  0  0  0  0  0  0  0  0  0  0  0
    3.9712   -2.4531    0.7448 C   0  0  0  0  0  0  0  0  0  0  0  0
    3.8060   -3.1527    1.8357 N   0  0  0  0  0  0  0  0  0  0  0  0
    2.9916   -4.2438    1.4609 N   0  0  0  0  0  0  0  0  0  0  0  0
    2.6624   -4.2174    0.1953 N   0  0  0  0  0  0  0  0  0  0  0  0
    3.2766   -3.1099   -0.2263 N   0  0  0  0  0  0  0  0  0  0  0  0
    3.6816   -0.5947   -4.7650 H   0  0  0  0  0  0  0  0  0  0  0  0
    2.3339   -2.6890   -4.6924 H   0  0  0  0  0  0  0  0  0  0  0  0
    2.0316   -3.9673   -2.6016 H   0  0  0  0  0  0  0  0  0  0  0  0
    4.8042    0.2560   -2.6871 H   0  0  0  0  0  0  0  0  0  0  0  0
  1  6  2  0
  1  2  1  0
  1 13  1  0
  2  3  2  0
  2 14  1  0
  3  4  1  0
  3 15  1  0
  4 12  1  0
  4  5  2  0
  5  6  1  0
  5  7  1  0
  6 16  1  0
  7  8  1  0
  8 12  1  0
  8  9  2  0
  9 10  1  0
 10 11  2  0
 11 12  1  0
M  END
>  <i_m_ct_stereo_status>  (247) 
1

>  <s_m_source_file>  (247) 
/var/tmp/pbs.5076255.sched01/tmp2672eyar/80wl2hclo4.sdf

>  <i_m_source_file_index>  (247) 
17

>  <i_lp_mmshare_version>  (247) 
48012

>  <i_f3d_flags>  (247) 
0

>  <s_epik_input>  (247) 
W2NIXTFbY0hdW2NIXVtjSF1jKGMxMilzYzNuMm5ubjM=

>  <s_epik_cmdline>  (247) 
J2VwaWtfcHl0aG9uJywgJy1waHQnLCAnMi4wJywgJy1waCcsICc3LjAnLCAnLXRuJywgJzgnLCAnLW1hJywgJzIwMCcsICctaW1hZScsICc8aW5maWxlLm1hZT4nLCAnLW9tYWUnLCAnPG91dGZpbGUubWFlPic=

>  <r_lp_tautomer_probability>  (247) 
1

>  <r_epik_Ionization_Penalty>  (247) 
1.40826e-06

>  <r_epik_Ionization_Penalty_Charging>  (247) 
0

>  <r_epik_Ionization_Penalty_Neutral>  (247) 
1.40826e-06

>  <r_epik_State_Penalty>  (247) 
-0

>  <r_epik_Charging_Adjusted_Penalty>  (247) 
0

>  <i_epik_Tot_Q>  (247) 
0

>  <i_epik_Tot_abs_Q>  (247) 
0

>  <s_lp_Force_Field>  (247) 
OPLS3e

>  <r_lp_Energy>  (247) 
11.1558

>  <b_lp_Chiralities_Consistent>  (247) 
1

>  <s_lp_Variant>  (247) 
71:0-1

>  <s_i_glide_gridfile>  (247) 
pfpi4k_grid

>  <i_i_glide_lignum>  (247) 
17

>  <i_i_glide_rotatable_bonds>  (247) 
0

>  <r_i_docking_score>  (247) 
-3.90468

>  <r_i_glide_ligand_efficiency>  (247) 
-0.32539

>  <r_i_glide_ligand_efficiency_sa>  (247) 
-0.744957

>  <r_i_glide_ligand_efficiency_ln>  (247) 
-1.12045

>  <r_i_glide_gscore>  (247) 
-3.90468

>  <r_i_glide_lipo>  (247) 
-0.463005

>  <r_i_glide_hbond>  (247) 
0

>  <r_i_glide_metal>  (247) 
-0

>  <r_i_glide_rewards>  (247) 
-2.20773

>  <r_i_glide_evdw>  (247) 
-19.2475

>  <r_i_glide_ecoul>  (247) 
-1.43534

>  <r_i_glide_erotb>  (247) 
0

>  <r_i_glide_esite>  (247) 
-0.0562642

>  <r_i_glide_emodel>  (247) 
-27.3621

>  <r_i_glide_energy>  (247) 
-20.6829

>  <r_i_glide_einternal>  (247) 
0

>  <r_i_glide_intrahb_reward>  (247) 
-0

>  <i_i_glide_confnum>  (247) 
1

>  <i_i_glide_posenum>  (247) 
6

>  <r_i_glide_eff_state_penalty>  (247) 
0

>  <ligand_id>  (247) 
71

>  <original_smiles>  (247) 
c1ccc2c(c1)sc1nnnn12

>  <smiles>  (247) 
[H]c1c([H])c([H])c2c(sc3nnnn32)c1[H]

$$$$
71:0:2
     RDKit          3D

 16 18  0  0  1  0  0  0  0  0999 V2000
    2.7374   -9.8543    6.2946 C   0  0  0  0  0  0  0  0  0  0  0  0
    1.9959   -8.7281    6.7445 C   0  0  0  0  0  0  0  0  0  0  0  0
    0.8819   -8.2213    6.0263 C   0  0  0  0  0  0  0  0  0  0  0  0
    0.5261   -8.8858    4.8299 C   0  0  0  0  0  0  0  0  0  0  0  0
    1.2915  -10.0087    4.4084 C   0  0  0  0  0  0  0  0  0  0  0  0
    2.3950  -10.5284    5.0982 C   0  0  0  0  0  0  0  0  0  0  0  0
    0.6714  -10.6736    2.8814 S   0  0  0  0  0  0  0  0  0  0  0  0
   -0.5886   -9.4102    2.8932 C   0  0  0  0  0  0  0  0  0  0  0  0
   -1.6104   -8.9345    2.2380 N   0  0  0  0  0  0  0  0  0  0  0  0
   -2.0565   -7.8318    2.9946 N   0  0  0  0  0  0  0  0  0  0  0  0
   -1.3393   -7.6287    4.0685 N   0  0  0  0  0  0  0  0  0  0  0  0
   -0.4480   -8.6179    3.9925 N   0  0  0  0  0  0  0  0  0  0  0  0
    3.5697  -10.2189    6.8785 H   0  0  0  0  0  0  0  0  0  0  0  0
    2.2932   -8.2556    7.6710 H   0  0  0  0  0  0  0  0  0  0  0  0
    0.3309   -7.3616    6.3894 H   0  0  0  0  0  0  0  0  0  0  0  0
    2.9382  -11.3958    4.7491 H   0  0  0  0  0  0  0  0  0  0  0  0
  1  6  2  0
  1  2  1  0
  1 13  1  0
  2  3  2  0
  2 14  1  0
  3  4  1  0
  3 15  1  0
  4 12  1  0
  4  5  2  0
  5  6  1  0
  5  7  1  0
  6 16  1  0
  7  8  1  0
  8 12  1  0
  8  9  2  0
  9 10  1  0
 10 11  2  0
 11 12  1  0
M  END
>  <i_m_ct_stereo_status>  (248) 
1

>  <s_m_source_file>  (248) 
/var/tmp/pbs.5076255.sched01/tmp2672eyar/80wl2hclo4.sdf

>  <i_m_source_file_index>  (248) 
17

>  <i_lp_mmshare_version>  (248) 
48012

>  <i_f3d_flags>  (248) 
0

>  <s_epik_input>  (248) 
W2NIXTFbY0hdW2NIXVtjSF1jKGMxMilzYzNuMm5ubjM=

>  <s_epik_cmdline>  (248) 
J2VwaWtfcHl0aG9uJywgJy1waHQnLCAnMi4wJywgJy1waCcsICc3LjAnLCAnLXRuJywgJzgnLCAnLW1hJywgJzIwMCcsICctaW1hZScsICc8aW5maWxlLm1hZT4nLCAnLW9tYWUnLCAnPG91dGZpbGUubWFlPic=

>  <r_lp_tautomer_probability>  (248) 
1

>  <r_epik_Ionization_Penalty>  (248) 
1.40826e-06

>  <r_epik_Ionization_Penalty_Charging>  (248) 
0

>  <r_epik_Ionization_Penalty_Neutral>  (248) 
1.40826e-06

>  <r_epik_State_Penalty>  (248) 
-0

>  <r_epik_Charging_Adjusted_Penalty>  (248) 
0

>  <i_epik_Tot_Q>  (248) 
0

>  <i_epik_Tot_abs_Q>  (248) 
0

>  <s_lp_Force_Field>  (248) 
OPLS3e

>  <r_lp_Energy>  (248) 
11.1558

>  <b_lp_Chiralities_Consistent>  (248) 
1

>  <s_lp_Variant>  (248) 
71:0-1

>  <s_i_glide_gridfile>  (248) 
pfpi4k_grid

>  <i_i_glide_lignum>  (248) 
17

>  <i_i_glide_rotatable_bonds>  (248) 
0

>  <r_i_docking_score>  (248) 
-3.67667

>  <r_i_glide_ligand_efficiency>  (248) 
-0.306389

>  <r_i_glide_ligand_efficiency_sa>  (248) 
-0.701455

>  <r_i_glide_ligand_efficiency_ln>  (248) 
-1.05503

>  <r_i_glide_gscore>  (248) 
-3.67667

>  <r_i_glide_lipo>  (248) 
-0.108919

>  <r_i_glide_hbond>  (248) 
0

>  <r_i_glide_metal>  (248) 
-0

>  <r_i_glide_rewards>  (248) 
-2.20773

>  <r_i_glide_evdw>  (248) 
-19.1723

>  <r_i_glide_ecoul>  (248) 
-1.40706

>  <r_i_glide_erotb>  (248) 
0

>  <r_i_glide_esite>  (248) 
-0.19034

>  <r_i_glide_emodel>  (248) 
-26.868

>  <r_i_glide_energy>  (248) 
-20.5794

>  <r_i_glide_einternal>  (248) 
0

>  <r_i_glide_intrahb_reward>  (248) 
-0

>  <i_i_glide_confnum>  (248) 
2

>  <i_i_glide_posenum>  (248) 
19

>  <r_i_glide_eff_state_penalty>  (248) 
0

>  <ligand_id>  (248) 
71

>  <original_smiles>  (248) 
c1ccc2c(c1)sc1nnnn12

>  <smiles>  (248) 
[H]c1c([H])c([H])c2c(sc3nnnn32)c1[H]

$$$$
72:0:0
     RDKit          3D

 51 54  0  0  1  0  0  0  0  0999 V2000
    7.5942   -3.9858    0.2900 C   0  0  0  0  0  0  0  0  0  0  0  0
    7.2780   -2.8060   -0.6394 C   0  0  0  0  0  0  0  0  0  0  0  0
    7.8590   -2.6480   -1.6827 O   0  0  0  0  0  0  0  0  0  0  0  0
    6.1821   -1.8078   -0.2331 C   0  0  2  0  0  0  0  0  0  0  0  0
    6.3104   -1.3311    1.2151 C   0  0  0  0  0  0  0  0  0  0  0  0
    5.1826   -2.0478    1.9309 C   0  0  0  0  0  0  0  0  0  0  0  0
    4.0370   -1.9819    0.9292 C   0  0  2  0  0  0  0  0  0  0  0  0
    2.8110   -2.8894    1.2173 C   0  0  2  0  0  0  0  0  0  0  0  0
    2.0071   -2.4363    2.4538 C   0  0  0  0  0  0  0  0  0  0  0  0
    2.1625   -3.3015    3.7003 C   0  0  0  0  0  0  0  0  0  0  0  0
    1.9934   -4.7635    3.3263 C   0  0  0  0  0  0  0  0  0  0  0  0
    0.9656   -5.5030    3.7905 C   0  0  0  0  0  0  0  0  0  0  0  0
    0.7477   -6.8837    3.3906 C   0  0  0  0  0  0  0  0  0  0  0  0
   -0.2025   -7.5160    3.8211 O   0  0  0  0  0  0  0  0  0  0  0  0
    1.6869   -7.4705    2.4287 C   0  0  0  0  0  0  0  0  0  0  0  0
    2.7302   -6.7537    1.9567 C   0  0  0  0  0  0  0  0  0  0  0  0
    3.0534   -5.3168    2.3444 C   0  0  2  0  0  0  0  0  0  0  0  0
    4.3976   -5.3820    3.1161 C   0  0  0  0  0  0  0  0  0  0  0  0
    3.0006   -4.4285    1.0537 C   0  0  2  0  0  0  0  0  0  0  0  0
    4.1543   -4.7242    0.0674 C   0  0  0  0  0  0  0  0  0  0  0  0
    4.3717   -3.6287   -1.0154 C   0  0  0  0  0  0  0  0  0  0  0  0
    4.6827   -2.2021   -0.4730 C   0  0  2  0  0  0  0  0  0  0  0  0
    4.0915   -1.1979   -1.5054 C   0  0  0  0  0  0  0  0  0  0  0  0
    6.7703   -4.6638    0.2948 H   0  0  0  0  0  0  0  0  0  0  0  0
    7.8131   -3.6576    1.3093 H   0  0  0  0  0  0  0  0  0  0  0  0
    8.4748   -4.5510   -0.0582 H   0  0  0  0  0  0  0  0  0  0  0  0
    6.3907   -0.9192   -0.8373 H   0  0  0  0  0  0  0  0  0  0  0  0
    7.2802   -1.5330    1.6571 H   0  0  0  0  0  0  0  0  0  0  0  0
    6.1749   -0.2474    1.2786 H   0  0  0  0  0  0  0  0  0  0  0  0
    5.4797   -3.0768    2.0855 H   0  0  0  0  0  0  0  0  0  0  0  0
    4.9352   -1.5986    2.8923 H   0  0  0  0  0  0  0  0  0  0  0  0
    3.6900   -0.9407    0.9514 H   0  0  0  0  0  0  0  0  0  0  0  0
    2.1898   -2.6121    0.3953 H   0  0  0  0  0  0  0  0  0  0  0  0
    2.1848   -1.3845    2.6918 H   0  0  0  0  0  0  0  0  0  0  0  0
    0.9409   -2.4642    2.1693 H   0  0  0  0  0  0  0  0  0  0  0  0
    3.1313   -3.1284    4.1512 H   0  0  0  0  0  0  0  0  0  0  0  0
    1.4124   -3.0238    4.4266 H   0  0  0  0  0  0  0  0  0  0  0  0
    0.2296   -5.0459    4.4559 H   0  0  0  0  0  0  0  0  0  0  0  0
    1.5326   -8.4999    2.1165 H   0  0  0  0  0  0  0  0  0  0  0  0
    3.4151   -7.2160    1.2640 H   0  0  0  0  0  0  0  0  0  0  0  0
    4.3098   -6.0480    3.9767 H   0  0  0  0  0  0  0  0  0  0  0  0
    4.7355   -4.4311    3.5278 H   0  0  0  0  0  0  0  0  0  0  0  0
    5.2195   -5.7976    2.5384 H   0  0  0  0  0  0  0  0  0  0  0  0
    2.0861   -4.7413    0.5201 H   0  0  0  0  0  0  0  0  0  0  0  0
    5.0569   -4.8735    0.6673 H   0  0  0  0  0  0  0  0  0  0  0  0
    3.9628   -5.6594   -0.4497 H   0  0  0  0  0  0  0  0  0  0  0  0
    5.1088   -3.9373   -1.7296 H   0  0  0  0  0  0  0  0  0  0  0  0
    3.4505   -3.5815   -1.6145 H   0  0  0  0  0  0  0  0  0  0  0  0
    3.0144   -1.3296   -1.6141 H   0  0  0  0  0  0  0  0  0  0  0  0
    4.5446   -1.3077   -2.4971 H   0  0  0  0  0  0  0  0  0  0  0  0
    4.2518   -0.1633   -1.1941 H   0  0  0  0  0  0  0  0  0  0  0  0
  1  2  1  0
  1 24  1  0
  1 25  1  0
  1 26  1  0
  2  3  2  0
  2  4  1  0
  4 22  1  0
  4  5  1  0
  4 27  1  6
  5  6  1  0
  5 28  1  0
  5 29  1  0
  6  7  1  0
  6 30  1  0
  6 31  1  0
  7 22  1  0
  7  8  1  0
  7 32  1  6
  8 19  1  0
  8  9  1  0
  8 33  1  6
  9 10  1  0
  9 34  1  0
  9 35  1  0
 10 11  1  0
 10 36  1  0
 10 37  1  0
 11 17  1  0
 11 12  2  0
 12 13  1  0
 12 38  1  0
 13 14  2  0
 13 15  1  0
 15 16  2  0
 15 39  1  0
 16 17  1  0
 16 40  1  0
 17 18  1  1
 17 19  1  0
 18 41  1  0
 18 42  1  0
 18 43  1  0
 19 20  1  0
 19 44  1  6
 20 21  1  0
 20 45  1  0
 20 46  1  0
 21 22  1  0
 21 47  1  0
 21 48  1  0
 22 23  1  6
 23 49  1  0
 23 50  1  0
 23 51  1  0
M  END
>  <i_m_ct_stereo_status>  (249) 
1

>  <s_m_source_file>  (249) 
/var/tmp/pbs.5076255.sched01/tmp2672eyar/80wl2hclo4.sdf

>  <i_m_source_file_index>  (249) 
18

>  <i_lp_mmshare_version>  (249) 
48012

>  <i_f3d_flags>  (249) 
0

>  <s_epik_input>  (249) 
W0NIM11DKD1PKVtDQEhdKFtDSDJdW0NIMl0xKVtDQEBdKFtDSDNdKShbQ0gyXVtDSDJdW0NASF0yMylbQ0BIXTFbQ0BASF0yW0NIMl1bQ0gyXUMoW0NAXTM0W0NIM10pPVtDSF1DKD1PKVtDSF09W0NIXTQ=

>  <s_epik_cmdline>  (249) 
J2VwaWtfcHl0aG9uJywgJy1waHQnLCAnMi4wJywgJy1waCcsICc3LjAnLCAnLXRuJywgJzgnLCAnLW1hJywgJzIwMCcsICctaW1hZScsICc8aW5maWxlLm1hZT4nLCAnLW9tYWUnLCAnPG91dGZpbGUubWFlPic=

>  <r_lp_tautomer_probability>  (249) 
1

>  <r_epik_Ionization_Penalty>  (249) 
1.13798e-13

>  <r_epik_Ionization_Penalty_Charging>  (249) 
0

>  <r_epik_Ionization_Penalty_Neutral>  (249) 
1.13798e-13

>  <r_epik_State_Penalty>  (249) 
-0

>  <r_epik_Charging_Adjusted_Penalty>  (249) 
0

>  <i_epik_Tot_Q>  (249) 
0

>  <i_epik_Tot_abs_Q>  (249) 
0

>  <s_lp_Force_Field>  (249) 
OPLS3e

>  <r_lp_Energy>  (249) 
42.7073

>  <b_lp_Chiralities_Consistent>  (249) 
1

>  <s_lp_Variant>  (249) 
72:0-1

>  <s_i_glide_gridfile>  (249) 
pfpi4k_grid

>  <i_i_glide_lignum>  (249) 
18

>  <i_i_glide_rotatable_bonds>  (249) 
1

>  <r_i_docking_score>  (249) 
-3.15194

>  <r_i_glide_ligand_efficiency>  (249) 
-0.137041

>  <r_i_glide_ligand_efficiency_sa>  (249) 
-0.389726

>  <r_i_glide_ligand_efficiency_ln>  (249) 
-0.762168

>  <r_i_glide_gscore>  (249) 
-3.15194

>  <r_i_glide_lipo>  (249) 
-0.383813

>  <r_i_glide_hbond>  (249) 
-0.16

>  <r_i_glide_metal>  (249) 
-0

>  <r_i_glide_rewards>  (249) 
-1.27878

>  <r_i_glide_evdw>  (249) 
-24.9989

>  <r_i_glide_ecoul>  (249) 
-0.287948

>  <r_i_glide_erotb>  (249) 
0

>  <r_i_glide_esite>  (249) 
-0.0362153

>  <r_i_glide_emodel>  (249) 
-28.4501

>  <r_i_glide_energy>  (249) 
-25.2868

>  <r_i_glide_einternal>  (249) 
1.41266

>  <r_i_glide_intrahb_reward>  (249) 
-0

>  <i_i_glide_confnum>  (249) 
1

>  <i_i_glide_posenum>  (249) 
1

>  <r_i_glide_eff_state_penalty>  (249) 
0

>  <ligand_id>  (249) 
72

>  <original_smiles>  (249) 
CC(=O)C1CCC2C3CCC4=CC(=O)C=CC4(C)C3CCC12C

>  <smiles>  (249) 
[H]C1=C([H])C2(C([H])([H])[H])C(=C([H])C1=O)C([H])([H])C([H])([H])C1([H])C2([H])C([H])([H])C([H])([H])C2(C([H])([H])[H])C([H])(C(=O)C([H])([H])[H])C([H])([H])C([H])([H])C12[H]

$$$$
72:0:1
     RDKit          3D

 51 54  0  0  1  0  0  0  0  0999 V2000
    7.2679   -3.9887    0.5893 C   0  0  0  0  0  0  0  0  0  0  0  0
    7.0831   -2.9717   -0.5287 C   0  0  0  0  0  0  0  0  0  0  0  0
    7.7833   -3.0042   -1.5538 O   0  0  0  0  0  0  0  0  0  0  0  0
    5.9987   -1.8970   -0.4160 C   0  0  2  0  0  0  0  0  0  0  0  0
    6.1531   -1.0541    0.8674 C   0  0  0  0  0  0  0  0  0  0  0  0
    5.0278   -1.5324    1.7698 C   0  0  0  0  0  0  0  0  0  0  0  0
    3.8606   -1.7388    0.8171 C   0  0  2  0  0  0  0  0  0  0  0  0
    2.6415   -2.5318    1.3814 C   0  0  2  0  0  0  0  0  0  0  0  0
    1.8256   -1.7678    2.4480 C   0  0  0  0  0  0  0  0  0  0  0  0
    2.0385   -2.2442    3.8821 C   0  0  0  0  0  0  0  0  0  0  0  0
    1.8801   -3.7529    3.9434 C   0  0  0  0  0  0  0  0  0  0  0  0
    0.8552   -4.3195    4.6200 C   0  0  0  0  0  0  0  0  0  0  0  0
    0.6539   -5.7686    4.6199 C   0  0  0  0  0  0  0  0  0  0  0  0
   -0.2827   -6.2631    5.2469 O   0  0  0  0  0  0  0  0  0  0  0  0
    1.5695   -6.6003    3.8414 C   0  0  0  0  0  0  0  0  0  0  0  0
    2.5979   -6.0425    3.1680 C   0  0  0  0  0  0  0  0  0  0  0  0
    2.9126   -4.5453    3.1354 C   0  0  2  0  0  0  0  0  0  0  0  0
    4.2854   -4.4016    3.8670 C   0  0  0  0  0  0  0  0  0  0  0  0
    2.8307   -4.0661    1.6406 C   0  0  2  0  0  0  0  0  0  0  0  0
    3.9830   -4.6123    0.7663 C   0  0  0  0  0  0  0  0  0  0  0  0
    4.1539   -3.8607   -0.5940 C   0  0  0  0  0  0  0  0  0  0  0  0
    4.4764   -2.3339   -0.4842 C   0  0  2  0  0  0  0  0  0  0  0  0
    3.8517   -1.6561   -1.7372 C   0  0  0  0  0  0  0  0  0  0  0  0
    6.4599   -4.6475    0.5679 H   0  0  0  0  0  0  0  0  0  0  0  0
    7.3528   -3.4759    1.5685 H   0  0  0  0  0  0  0  0  0  0  0  0
    8.1834   -4.5883    0.4575 H   0  0  0  0  0  0  0  0  0  0  0  0
    6.1999   -1.2070   -1.2470 H   0  0  0  0  0  0  0  0  0  0  0  0
    7.1288   -1.1557    1.3396 H   0  0  0  0  0  0  0  0  0  0  0  0
    6.0146    0.0048    0.6432 H   0  0  0  0  0  0  0  0  0  0  0  0
    5.3254   -2.4771    2.2086 H   0  0  0  0  0  0  0  0  0  0  0  0
    4.7999   -0.8327    2.5748 H   0  0  0  0  0  0  0  0  0  0  0  0
    3.5058   -0.7348    0.5629 H   0  0  0  0  0  0  0  0  0  0  0  0
    1.9933   -2.5021    0.5190 H   0  0  0  0  0  0  0  0  0  0  0  0
    2.0134   -0.6922    2.3799 H   0  0  0  0  0  0  0  0  0  0  0  0
    0.7608   -1.8883    2.2109 H   0  0  0  0  0  0  0  0  0  0  0  0
    3.0220   -1.9492    4.2481 H   0  0  0  0  0  0  0  0  0  0  0  0
    1.3114   -1.7721    4.5279 H   0  0  0  0  0  0  0  0  0  0  0  0
    0.1323   -3.7075    5.1368 H   0  0  0  0  0  0  0  0  0  0  0  0
    1.4170   -7.6751    3.8322 H   0  0  0  0  0  0  0  0  0  0  0  0
    3.2665   -6.6794    2.6202 H   0  0  0  0  0  0  0  0  0  0  0  0
    4.2192   -4.8028    4.8796 H   0  0  0  0  0  0  0  0  0  0  0  0
    4.6262   -3.3750    3.9882 H   0  0  0  0  0  0  0  0  0  0  0  0
    5.0974   -4.9634    3.4120 H   0  0  0  0  0  0  0  0  0  0  0  0
    1.9070   -4.5118    1.2407 H   0  0  0  0  0  0  0  0  0  0  0  0
    4.8681   -4.5677    1.3589 H   0  0  0  0  0  0  0  0  0  0  0  0
    3.7862   -5.6622    0.5305 H   0  0  0  0  0  0  0  0  0  0  0  0
    4.8814   -4.3601   -1.2203 H   0  0  0  0  0  0  0  0  0  0  0  0
    3.2288   -3.9825   -1.1614 H   0  0  0  0  0  0  0  0  0  0  0  0
    2.7732   -1.8249   -1.7825 H   0  0  0  0  0  0  0  0  0  0  0  0
    4.2781   -2.0436   -2.6679 H   0  0  0  0  0  0  0  0  0  0  0  0
    4.0006   -0.5741   -1.7402 H   0  0  0  0  0  0  0  0  0  0  0  0
  1  2  1  0
  1 24  1  0
  1 25  1  0
  1 26  1  0
  2  3  2  0
  2  4  1  0
  4 22  1  0
  4  5  1  0
  4 27  1  6
  5  6  1  0
  5 28  1  0
  5 29  1  0
  6  7  1  0
  6 30  1  0
  6 31  1  0
  7 22  1  0
  7  8  1  0
  7 32  1  6
  8 19  1  0
  8  9  1  0
  8 33  1  6
  9 10  1  0
  9 34  1  0
  9 35  1  0
 10 11  1  0
 10 36  1  0
 10 37  1  0
 11 17  1  0
 11 12  2  0
 12 13  1  0
 12 38  1  0
 13 14  2  0
 13 15  1  0
 15 16  2  0
 15 39  1  0
 16 17  1  0
 16 40  1  0
 17 18  1  1
 17 19  1  0
 18 41  1  0
 18 42  1  0
 18 43  1  0
 19 20  1  0
 19 44  1  6
 20 21  1  0
 20 45  1  0
 20 46  1  0
 21 22  1  0
 21 47  1  0
 21 48  1  0
 22 23  1  6
 23 49  1  0
 23 50  1  0
 23 51  1  0
M  END
>  <i_m_ct_stereo_status>  (250) 
1

>  <s_m_source_file>  (250) 
/var/tmp/pbs.5076255.sched01/tmp2672eyar/80wl2hclo4.sdf

>  <i_m_source_file_index>  (250) 
18

>  <i_lp_mmshare_version>  (250) 
48012

>  <i_f3d_flags>  (250) 
0

>  <s_epik_input>  (250) 
W0NIM11DKD1PKVtDQEhdKFtDSDJdW0NIMl0xKVtDQEBdKFtDSDNdKShbQ0gyXVtDSDJdW0NASF0yMylbQ0BIXTFbQ0BASF0yW0NIMl1bQ0gyXUMoW0NAXTM0W0NIM10pPVtDSF1DKD1PKVtDSF09W0NIXTQ=

>  <s_epik_cmdline>  (250) 
J2VwaWtfcHl0aG9uJywgJy1waHQnLCAnMi4wJywgJy1waCcsICc3LjAnLCAnLXRuJywgJzgnLCAnLW1hJywgJzIwMCcsICctaW1hZScsICc8aW5maWxlLm1hZT4nLCAnLW9tYWUnLCAnPG91dGZpbGUubWFlPic=

>  <r_lp_tautomer_probability>  (250) 
1

>  <r_epik_Ionization_Penalty>  (250) 
1.13798e-13

>  <r_epik_Ionization_Penalty_Charging>  (250) 
0

>  <r_epik_Ionization_Penalty_Neutral>  (250) 
1.13798e-13

>  <r_epik_State_Penalty>  (250) 
-0

>  <r_epik_Charging_Adjusted_Penalty>  (250) 
0

>  <i_epik_Tot_Q>  (250) 
0

>  <i_epik_Tot_abs_Q>  (250) 
0

>  <s_lp_Force_Field>  (250) 
OPLS3e

>  <r_lp_Energy>  (250) 
42.7073

>  <b_lp_Chiralities_Consistent>  (250) 
1

>  <s_lp_Variant>  (250) 
72:0-1

>  <s_i_glide_gridfile>  (250) 
pfpi4k_grid

>  <i_i_glide_lignum>  (250) 
18

>  <i_i_glide_rotatable_bonds>  (250) 
1

>  <r_i_docking_score>  (250) 
-3.12924

>  <r_i_glide_ligand_efficiency>  (250) 
-0.136054

>  <r_i_glide_ligand_efficiency_sa>  (250) 
-0.38692

>  <r_i_glide_ligand_efficiency_ln>  (250) 
-0.756679

>  <r_i_glide_gscore>  (250) 
-3.12924

>  <r_i_glide_lipo>  (250) 
-0.363735

>  <r_i_glide_hbond>  (250) 
-0.0202312

>  <r_i_glide_metal>  (250) 
-0

>  <r_i_glide_rewards>  (250) 
-1.34849

>  <r_i_glide_evdw>  (250) 
-26.1151

>  <r_i_glide_ecoul>  (250) 
-0.525902

>  <r_i_glide_erotb>  (250) 
0

>  <r_i_glide_esite>  (250) 
-0.0121477

>  <r_i_glide_emodel>  (250) 
-29.7997

>  <r_i_glide_energy>  (250) 
-26.641

>  <r_i_glide_einternal>  (250) 
1.55571

>  <r_i_glide_intrahb_reward>  (250) 
-0

>  <i_i_glide_confnum>  (250) 
1

>  <i_i_glide_posenum>  (250) 
39

>  <r_i_glide_eff_state_penalty>  (250) 
0

>  <ligand_id>  (250) 
72

>  <original_smiles>  (250) 
CC(=O)C1CCC2C3CCC4=CC(=O)C=CC4(C)C3CCC12C

>  <smiles>  (250) 
[H]C1=C([H])C2(C([H])([H])[H])C(=C([H])C1=O)C([H])([H])C([H])([H])C1([H])C2([H])C([H])([H])C([H])([H])C2(C([H])([H])[H])C([H])(C(=O)C([H])([H])[H])C([H])([H])C([H])([H])C12[H]

$$$$
72:0:2
     RDKit          3D

 51 54  0  0  1  0  0  0  0  0999 V2000
    2.5777   -2.7585   -2.2522 C   0  0  0  0  0  0  0  0  0  0  0  0
    3.7951   -1.8179   -2.2510 C   0  0  0  0  0  0  0  0  0  0  0  0
    3.7690   -0.7050   -2.7608 O   0  0  0  0  0  0  0  0  0  0  0  0
    5.0845   -2.3026   -1.5672 C   0  0  2  0  0  0  0  0  0  0  0  0
    5.4399   -3.7439   -1.9604 C   0  0  0  0  0  0  0  0  0  0  0  0
    5.1171   -4.5582   -0.7207 C   0  0  0  0  0  0  0  0  0  0  0  0
    5.5814   -3.6697    0.4314 C   0  0  2  0  0  0  0  0  0  0  0  0
    5.1207   -4.0703    1.8635 C   0  0  2  0  0  0  0  0  0  0  0  0
    5.7784   -5.3552    2.3996 C   0  0  0  0  0  0  0  0  0  0  0  0
    4.8952   -6.6022    2.3929 C   0  0  0  0  0  0  0  0  0  0  0  0
    3.5643   -6.2611    3.0544 C   0  0  0  0  0  0  0  0  0  0  0  0
    3.1955   -6.8272    4.2243 C   0  0  0  0  0  0  0  0  0  0  0  0
    1.9558   -6.4626    4.8991 C   0  0  0  0  0  0  0  0  0  0  0  0
    1.6282   -6.9867    5.9538 O   0  0  0  0  0  0  0  0  0  0  0  0
    1.1270   -5.4268    4.2861 C   0  0  0  0  0  0  0  0  0  0  0  0
    1.4835   -4.8535    3.1227 C   0  0  0  0  0  0  0  0  0  0  0  0
    2.7308   -5.2010    2.3166 C   0  0  2  0  0  0  0  0  0  0  0  0
    2.2172   -5.8476    0.9993 C   0  0  0  0  0  0  0  0  0  0  0  0
    3.6036   -3.9056    2.1954 C   0  0  2  0  0  0  0  0  0  0  0  0
    2.9661   -2.8328    1.2617 C   0  0  0  0  0  0  0  0  0  0  0  0
    3.9632   -1.7213    0.8140 C   0  0  0  0  0  0  0  0  0  0  0  0
    5.2026   -2.2170    0.0062 C   0  0  2  0  0  0  0  0  0  0  0  0
    6.3713   -1.2474    0.3410 C   0  0  0  0  0  0  0  0  0  0  0  0
    2.2009   -2.8711   -1.3012 H   0  0  0  0  0  0  0  0  0  0  0  0
    2.8006   -3.7385   -2.7092 H   0  0  0  0  0  0  0  0  0  0  0  0
    1.7684   -2.3327   -2.8918 H   0  0  0  0  0  0  0  0  0  0  0  0
    5.8620   -1.6741   -2.0137 H   0  0  0  0  0  0  0  0  0  0  0  0
    4.9257   -4.1208   -2.8446 H   0  0  0  0  0  0  0  0  0  0  0  0
    6.5091   -3.8112   -2.1822 H   0  0  0  0  0  0  0  0  0  0  0  0
    4.0458   -4.6968   -0.6732 H   0  0  0  0  0  0  0  0  0  0  0  0
    5.5998   -5.5321   -0.7058 H   0  0  0  0  0  0  0  0  0  0  0  0
    6.6793   -3.7198    0.4114 H   0  0  0  0  0  0  0  0  0  0  0  0
    5.6027   -3.2995    2.4233 H   0  0  0  0  0  0  0  0  0  0  0  0
    6.7046   -5.5750    1.8615 H   0  0  0  0  0  0  0  0  0  0  0  0
    6.0857   -5.1588    3.4477 H   0  0  0  0  0  0  0  0  0  0  0  0
    4.7419   -6.9516    1.3796 H   0  0  0  0  0  0  0  0  0  0  0  0
    5.3791   -7.3950    2.9406 H   0  0  0  0  0  0  0  0  0  0  0  0
    3.8501   -7.5440    4.7147 H   0  0  0  0  0  0  0  0  0  0  0  0
    0.2154   -5.1345    4.7974 H   0  0  0  0  0  0  0  0  0  0  0  0
    0.8576   -4.0816    2.7051 H   0  0  0  0  0  0  0  0  0  0  0  0
    1.5959   -6.7185    1.2215 H   0  0  0  0  0  0  0  0  0  0  0  0
    3.0010   -6.2228    0.3423 H   0  0  0  0  0  0  0  0  0  0  0  0
    1.5825   -5.2053    0.3953 H   0  0  0  0  0  0  0  0  0  0  0  0
    3.6201   -3.4670    3.2165 H   0  0  0  0  0  0  0  0  0  0  0  0
    2.5309   -3.3187    0.4250 H   0  0  0  0  0  0  0  0  0  0  0  0
    2.1685   -2.3210    1.8155 H   0  0  0  0  0  0  0  0  0  0  0  0
    3.4433   -0.9557    0.2719 H   0  0  0  0  0  0  0  0  0  0  0  0
    4.3233   -1.1882    1.7125 H   0  0  0  0  0  0  0  0  0  0  0  0
    6.5866   -1.2277    1.4106 H   0  0  0  0  0  0  0  0  0  0  0  0
    6.1347   -0.2211    0.0424 H   0  0  0  0  0  0  0  0  0  0  0  0
    7.3019   -1.5322   -0.1609 H   0  0  0  0  0  0  0  0  0  0  0  0
  1  2  1  0
  1 24  1  0
  1 25  1  0
  1 26  1  0
  2  3  2  0
  2  4  1  0
  4 22  1  0
  4  5  1  0
  4 27  1  6
  5  6  1  0
  5 28  1  0
  5 29  1  0
  6  7  1  0
  6 30  1  0
  6 31  1  0
  7 22  1  0
  7  8  1  0
  7 32  1  1
  8 19  1  0
  8  9  1  0
  8 33  1  1
  9 10  1  0
  9 34  1  0
  9 35  1  0
 10 11  1  0
 10 36  1  0
 10 37  1  0
 11 17  1  0
 11 12  2  0
 12 13  1  0
 12 38  1  0
 13 14  2  0
 13 15  1  0
 15 16  2  0
 15 39  1  0
 16 17  1  0
 16 40  1  0
 17 18  1  6
 17 19  1  0
 18 41  1  0
 18 42  1  0
 18 43  1  0
 19 20  1  0
 19 44  1  1
 20 21  1  0
 20 45  1  0
 20 46  1  0
 21 22  1  0
 21 47  1  0
 21 48  1  0
 22 23  1  6
 23 49  1  0
 23 50  1  0
 23 51  1  0
M  END
>  <i_m_ct_stereo_status>  (251) 
1

>  <s_m_source_file>  (251) 
/var/tmp/pbs.5076255.sched01/tmp2672eyar/80wl2hclo4.sdf

>  <i_m_source_file_index>  (251) 
18

>  <i_lp_mmshare_version>  (251) 
48012

>  <i_f3d_flags>  (251) 
0

>  <s_epik_input>  (251) 
W0NIM11DKD1PKVtDQEhdKFtDSDJdW0NIMl0xKVtDQEBdKFtDSDNdKShbQ0gyXVtDSDJdW0NASF0yMylbQ0BIXTFbQ0BASF0yW0NIMl1bQ0gyXUMoW0NAXTM0W0NIM10pPVtDSF1DKD1PKVtDSF09W0NIXTQ=

>  <s_epik_cmdline>  (251) 
J2VwaWtfcHl0aG9uJywgJy1waHQnLCAnMi4wJywgJy1waCcsICc3LjAnLCAnLXRuJywgJzgnLCAnLW1hJywgJzIwMCcsICctaW1hZScsICc8aW5maWxlLm1hZT4nLCAnLW9tYWUnLCAnPG91dGZpbGUubWFlPic=

>  <r_lp_tautomer_probability>  (251) 
1

>  <r_epik_Ionization_Penalty>  (251) 
1.13798e-13

>  <r_epik_Ionization_Penalty_Charging>  (251) 
0

>  <r_epik_Ionization_Penalty_Neutral>  (251) 
1.13798e-13

>  <r_epik_State_Penalty>  (251) 
-0

>  <r_epik_Charging_Adjusted_Penalty>  (251) 
0

>  <i_epik_Tot_Q>  (251) 
0

>  <i_epik_Tot_abs_Q>  (251) 
0

>  <s_lp_Force_Field>  (251) 
OPLS3e

>  <r_lp_Energy>  (251) 
42.7073

>  <b_lp_Chiralities_Consistent>  (251) 
1

>  <s_lp_Variant>  (251) 
72:0-1

>  <s_i_glide_gridfile>  (251) 
pfpi4k_grid

>  <i_i_glide_lignum>  (251) 
18

>  <i_i_glide_rotatable_bonds>  (251) 
1

>  <r_i_docking_score>  (251) 
-2.98415

>  <r_i_glide_ligand_efficiency>  (251) 
-0.129746

>  <r_i_glide_ligand_efficiency_sa>  (251) 
-0.36898

>  <r_i_glide_ligand_efficiency_ln>  (251) 
-0.721595

>  <r_i_glide_gscore>  (251) 
-2.98415

>  <r_i_glide_lipo>  (251) 
-0.22976

>  <r_i_glide_hbond>  (251) 
0

>  <r_i_glide_metal>  (251) 
-0

>  <r_i_glide_rewards>  (251) 
-1.27878

>  <r_i_glide_evdw>  (251) 
-25.1307

>  <r_i_glide_ecoul>  (251) 
-1.21784

>  <r_i_glide_erotb>  (251) 
0

>  <r_i_glide_esite>  (251) 
-0.0364035

>  <r_i_glide_emodel>  (251) 
-29.3029

>  <r_i_glide_energy>  (251) 
-26.3485

>  <r_i_glide_einternal>  (251) 
1.46177

>  <r_i_glide_intrahb_reward>  (251) 
-0

>  <i_i_glide_confnum>  (251) 
1

>  <i_i_glide_posenum>  (251) 
2

>  <r_i_glide_eff_state_penalty>  (251) 
0

>  <ligand_id>  (251) 
72

>  <original_smiles>  (251) 
CC(=O)C1CCC2C3CCC4=CC(=O)C=CC4(C)C3CCC12C

>  <smiles>  (251) 
[H]C1=C([H])C2(C([H])([H])[H])C(=C([H])C1=O)C([H])([H])C([H])([H])C1([H])C2([H])C([H])([H])C([H])([H])C2(C([H])([H])[H])C([H])(C(=O)C([H])([H])[H])C([H])([H])C([H])([H])C12[H]

$$$$
73:0:0
     RDKit          3D

 32 35  0  0  1  0  0  0  0  0999 V2000
    2.7699   -2.3614   -2.7937 C   0  0  0  0  0  0  0  0  0  0  0  0
    3.9718   -2.6347   -2.0329 N   0  0  0  0  0  0  0  0  0  0  0  0
    5.1282   -1.9348   -2.2453 N   0  0  0  0  0  0  0  0  0  0  0  0
    5.9687   -2.5190   -1.3922 C   0  0  0  0  0  0  0  0  0  0  0  0
    7.2705   -2.2545   -1.1557 N   0  0  0  0  0  0  0  0  0  0  0  0
    7.8817   -3.0346   -0.2591 C   0  0  0  0  0  0  0  0  0  0  0  0
    7.3353   -4.0309    0.4382 N   0  0  0  0  0  0  0  0  0  0  0  0
    6.0289   -4.3136    0.2224 C   0  0  0  0  0  0  0  0  0  0  0  0
    5.5143   -5.4413    0.8978 N   0  0  0  0  0  0  0  0  0  0  0  0
    6.0764   -6.0759    2.0767 C   0  0  2  0  0  0  0  0  0  0  0  0
    5.7989   -7.5635    1.7988 C   0  0  0  0  0  0  0  0  0  0  0  0
    4.5449   -7.5455    0.8986 C   0  0  0  0  0  0  0  0  0  0  0  0
    4.2151   -6.0538    0.7465 C   0  0  1  0  0  0  0  0  0  0  0  0
    3.3171   -5.5461    1.8995 C   0  0  0  0  0  0  0  0  0  0  0  0
    3.8875   -5.8812    3.1684 O   0  0  0  0  0  0  0  0  0  0  0  0
    5.2803   -5.5862    3.3124 C   0  0  0  0  0  0  0  0  0  0  0  0
    5.3031   -3.5298   -0.7126 C   0  0  0  0  0  0  0  0  0  0  0  0
    4.0246   -3.6089   -1.0814 N   0  0  0  0  0  0  0  0  0  0  0  0
    3.0354   -2.0585   -3.8045 H   0  0  0  0  0  0  0  0  0  0  0  0
    2.2230   -1.5489   -2.3212 H   0  0  0  0  0  0  0  0  0  0  0  0
    2.1318   -3.2465   -2.8485 H   0  0  0  0  0  0  0  0  0  0  0  0
    8.9275   -2.8450   -0.0808 H   0  0  0  0  0  0  0  0  0  0  0  0
    7.1430   -5.8845    2.2060 H   0  0  0  0  0  0  0  0  0  0  0  0
    6.6401   -7.9980    1.2582 H   0  0  0  0  0  0  0  0  0  0  0  0
    5.6492   -8.1473    2.7071 H   0  0  0  0  0  0  0  0  0  0  0  0
    4.7835   -7.9590   -0.0802 H   0  0  0  0  0  0  0  0  0  0  0  0
    3.7152   -8.1202    1.3086 H   0  0  0  0  0  0  0  0  0  0  0  0
    3.7590   -5.8809   -0.2278 H   0  0  0  0  0  0  0  0  0  0  0  0
    3.1475   -4.4688    1.8170 H   0  0  0  0  0  0  0  0  0  0  0  0
    2.3421   -6.0268    1.8390 H   0  0  0  0  0  0  0  0  0  0  0  0
    5.6282   -6.1035    4.2063 H   0  0  0  0  0  0  0  0  0  0  0  0
    5.4428   -4.5194    3.4844 H   0  0  0  0  0  0  0  0  0  0  0  0
  1  2  1  0
  1 19  1  0
  1 20  1  0
  1 21  1  0
  2 18  1  0
  2  3  1  0
  3  4  2  0
  4 17  1  0
  4  5  1  0
  5  6  2  0
  6  7  1  0
  6 22  1  0
  7  8  2  0
  8  9  1  0
  8 17  1  0
  9 13  1  0
  9 10  1  0
 10 16  1  0
 10 11  1  0
 10 23  1  1
 11 12  1  0
 11 24  1  0
 11 25  1  0
 12 13  1  0
 12 26  1  0
 12 27  1  0
 13 14  1  0
 13 28  1  6
 14 15  1  0
 14 29  1  0
 14 30  1  0
 15 16  1  0
 16 31  1  0
 16 32  1  0
 17 18  2  0
M  END
>  <i_m_ct_stereo_status>  (252) 
1

>  <s_m_source_file>  (252) 
/var/tmp/pbs.5076255.sched01/tmp2672eyar/80wl2hclo4.sdf

>  <i_m_source_file_index>  (252) 
19

>  <i_lp_mmshare_version>  (252) 
48012

>  <i_f3d_flags>  (252) 
0

>  <s_epik_input>  (252) 
W0NIM11uKG4xKW5jKGMxMiljKG5bY0hdbjIpTihbQ0BIXTM0KVtDQEBIXShbQ0gyXVtDSDJdMylbQ0gyXU9bQ0gyXTQ=

>  <s_epik_cmdline>  (252) 
J2VwaWtfcHl0aG9uJywgJy1waHQnLCAnMi4wJywgJy1waCcsICc3LjAnLCAnLXRuJywgJzgnLCAnLW1hJywgJzIwMCcsICctaW1hZScsICc8aW5maWxlLm1hZT4nLCAnLW9tYWUnLCAnPG91dGZpbGUubWFlPic=

>  <r_lp_tautomer_probability>  (252) 
1

>  <r_epik_Ionization_Penalty>  (252) 
0.00596225

>  <r_epik_Ionization_Penalty_Charging>  (252) 
0

>  <r_epik_Ionization_Penalty_Neutral>  (252) 
0.00596225

>  <r_epik_State_Penalty>  (252) 
-0

>  <r_epik_Charging_Adjusted_Penalty>  (252) 
0

>  <i_epik_Tot_Q>  (252) 
0

>  <i_epik_Tot_abs_Q>  (252) 
0

>  <s_lp_Force_Field>  (252) 
OPLS3e

>  <r_lp_Energy>  (252) 
31.5991

>  <b_lp_Chiralities_Consistent>  (252) 
1

>  <s_lp_Variant>  (252) 
73:0-1

>  <s_i_glide_gridfile>  (252) 
pfpi4k_grid

>  <i_i_glide_lignum>  (252) 
19

>  <i_i_glide_rotatable_bonds>  (252) 
1

>  <r_i_docking_score>  (252) 
-3.98535

>  <r_i_glide_ligand_efficiency>  (252) 
-0.221408

>  <r_i_glide_ligand_efficiency_sa>  (252) 
-0.580253

>  <r_i_glide_ligand_efficiency_ln>  (252) 
-1.02441

>  <r_i_glide_gscore>  (252) 
-3.98535

>  <r_i_glide_lipo>  (252) 
-0.437346

>  <r_i_glide_hbond>  (252) 
-0.16

>  <r_i_glide_metal>  (252) 
-0

>  <r_i_glide_rewards>  (252) 
-2.03171

>  <r_i_glide_evdw>  (252) 
-20.769

>  <r_i_glide_ecoul>  (252) 
-3.79309

>  <r_i_glide_erotb>  (252) 
0.287306

>  <r_i_glide_esite>  (252) 
-0.0361853

>  <r_i_glide_emodel>  (252) 
-30.9328

>  <r_i_glide_energy>  (252) 
-24.5621

>  <r_i_glide_einternal>  (252) 
0.24398

>  <r_i_glide_intrahb_reward>  (252) 
-0

>  <i_i_glide_confnum>  (252) 
4

>  <i_i_glide_posenum>  (252) 
21

>  <r_i_glide_eff_state_penalty>  (252) 
0

>  <ligand_id>  (252) 
73

>  <original_smiles>  (252) 
Cn1nc2ncnc(N3C4CCC3COC4)c2n1

>  <smiles>  (252) 
[H]c1nc(N2C3([H])C([H])([H])OC([H])([H])C2([H])C([H])([H])C3([H])[H])c2nn(C([H])([H])[H])nc2n1

$$$$
73:0:1
     RDKit          3D

 32 35  0  0  1  0  0  0  0  0999 V2000
    2.6261   -2.9235   -3.7265 C   0  0  0  0  0  0  0  0  0  0  0  0
    3.4102   -2.6789   -2.5300 N   0  0  0  0  0  0  0  0  0  0  0  0
    4.3457   -1.6812   -2.4960 N   0  0  0  0  0  0  0  0  0  0  0  0
    4.8488   -1.8132   -1.2611 C   0  0  0  0  0  0  0  0  0  0  0  0
    5.8249   -1.1290   -0.6517 N   0  0  0  0  0  0  0  0  0  0  0  0
    6.1054   -1.4758    0.6134 C   0  0  0  0  0  0  0  0  0  0  0  0
    5.5349   -2.4413    1.3147 N   0  0  0  0  0  0  0  0  0  0  0  0
    4.5862   -3.1824    0.7015 C   0  0  0  0  0  0  0  0  0  0  0  0
    4.1049   -4.2714    1.4458 N   0  0  0  0  0  0  0  0  0  0  0  0
    3.6682   -4.2446    2.8263 C   0  0  2  0  0  0  0  0  0  0  0  0
    4.1914   -5.5902    3.3622 C   0  0  0  0  0  0  0  0  0  0  0  0
    4.2455   -6.4866    2.1041 C   0  0  0  0  0  0  0  0  0  0  0  0
    3.7340   -5.5777    0.9635 C   0  0  1  0  0  0  0  0  0  0  0  0
    2.1985   -5.6305    0.8673 C   0  0  0  0  0  0  0  0  0  0  0  0
    1.6117   -5.3582    2.1348 O   0  0  0  0  0  0  0  0  0  0  0  0
    2.1250   -4.2210    2.8247 C   0  0  0  0  0  0  0  0  0  0  0  0
    4.2078   -2.8641   -0.6268 C   0  0  0  0  0  0  0  0  0  0  0  0
    3.2837   -3.4316   -1.3959 N   0  0  0  0  0  0  0  0  0  0  0  0
    3.2331   -2.7142   -4.6053 H   0  0  0  0  0  0  0  0  0  0  0  0
    1.7615   -2.2615   -3.7481 H   0  0  0  0  0  0  0  0  0  0  0  0
    2.2915   -3.9610   -3.7712 H   0  0  0  0  0  0  0  0  0  0  0  0
    6.9030   -0.9365    1.0883 H   0  0  0  0  0  0  0  0  0  0  0  0
    4.0699   -3.3997    3.3837 H   0  0  0  0  0  0  0  0  0  0  0  0
    5.1942   -5.4607    3.7723 H   0  0  0  0  0  0  0  0  0  0  0  0
    3.5649   -6.0088    4.1501 H   0  0  0  0  0  0  0  0  0  0  0  0
    5.2806   -6.7750    1.9149 H   0  0  0  0  0  0  0  0  0  0  0  0
    3.6592   -7.3988    2.2154 H   0  0  0  0  0  0  0  0  0  0  0  0
    4.2132   -5.8047    0.0121 H   0  0  0  0  0  0  0  0  0  0  0  0
    1.8154   -4.9468    0.1168 H   0  0  0  0  0  0  0  0  0  0  0  0
    1.8796   -6.6242    0.5785 H   0  0  0  0  0  0  0  0  0  0  0  0
    1.7419   -4.2832    3.8374 H   0  0  0  0  0  0  0  0  0  0  0  0
    1.7449   -3.2947    2.3988 H   0  0  0  0  0  0  0  0  0  0  0  0
  1  2  1  0
  1 19  1  0
  1 20  1  0
  1 21  1  0
  2 18  1  0
  2  3  1  0
  3  4  2  0
  4 17  1  0
  4  5  1  0
  5  6  2  0
  6  7  1  0
  6 22  1  0
  7  8  2  0
  8  9  1  0
  8 17  1  0
  9 13  1  0
  9 10  1  0
 10 16  1  0
 10 11  1  0
 10 23  1  1
 11 12  1  0
 11 24  1  0
 11 25  1  0
 12 13  1  0
 12 26  1  0
 12 27  1  0
 13 14  1  0
 13 28  1  6
 14 15  1  0
 14 29  1  0
 14 30  1  0
 15 16  1  0
 16 31  1  0
 16 32  1  0
 17 18  2  0
M  END
>  <i_m_ct_stereo_status>  (253) 
1

>  <s_m_source_file>  (253) 
/var/tmp/pbs.5076255.sched01/tmp2672eyar/80wl2hclo4.sdf

>  <i_m_source_file_index>  (253) 
19

>  <i_lp_mmshare_version>  (253) 
48012

>  <i_f3d_flags>  (253) 
0

>  <s_epik_input>  (253) 
W0NIM11uKG4xKW5jKGMxMiljKG5bY0hdbjIpTihbQ0BIXTM0KVtDQEBIXShbQ0gyXVtDSDJdMylbQ0gyXU9bQ0gyXTQ=

>  <s_epik_cmdline>  (253) 
J2VwaWtfcHl0aG9uJywgJy1waHQnLCAnMi4wJywgJy1waCcsICc3LjAnLCAnLXRuJywgJzgnLCAnLW1hJywgJzIwMCcsICctaW1hZScsICc8aW5maWxlLm1hZT4nLCAnLW9tYWUnLCAnPG91dGZpbGUubWFlPic=

>  <r_lp_tautomer_probability>  (253) 
1

>  <r_epik_Ionization_Penalty>  (253) 
0.00596225

>  <r_epik_Ionization_Penalty_Charging>  (253) 
0

>  <r_epik_Ionization_Penalty_Neutral>  (253) 
0.00596225

>  <r_epik_State_Penalty>  (253) 
-0

>  <r_epik_Charging_Adjusted_Penalty>  (253) 
0

>  <i_epik_Tot_Q>  (253) 
0

>  <i_epik_Tot_abs_Q>  (253) 
0

>  <s_lp_Force_Field>  (253) 
OPLS3e

>  <r_lp_Energy>  (253) 
31.5991

>  <b_lp_Chiralities_Consistent>  (253) 
1

>  <s_lp_Variant>  (253) 
73:0-1

>  <s_i_glide_gridfile>  (253) 
pfpi4k_grid

>  <i_i_glide_lignum>  (253) 
19

>  <i_i_glide_rotatable_bonds>  (253) 
1

>  <r_i_docking_score>  (253) 
-3.3404

>  <r_i_glide_ligand_efficiency>  (253) 
-0.185578

>  <r_i_glide_ligand_efficiency_sa>  (253) 
-0.486351

>  <r_i_glide_ligand_efficiency_ln>  (253) 
-0.858632

>  <r_i_glide_gscore>  (253) 
-3.3404

>  <r_i_glide_lipo>  (253) 
-0.271886

>  <r_i_glide_hbond>  (253) 
-0.0607857

>  <r_i_glide_metal>  (253) 
-0

>  <r_i_glide_rewards>  (253) 
-1.92026

>  <r_i_glide_evdw>  (253) 
-21.1403

>  <r_i_glide_ecoul>  (253) 
-1.72533

>  <r_i_glide_erotb>  (253) 
0.287306

>  <r_i_glide_esite>  (253) 
-0.0589584

>  <r_i_glide_emodel>  (253) 
-26.8097

>  <r_i_glide_energy>  (253) 
-22.8657

>  <r_i_glide_einternal>  (253) 
2.76396

>  <r_i_glide_intrahb_reward>  (253) 
-0

>  <i_i_glide_confnum>  (253) 
2

>  <i_i_glide_posenum>  (253) 
3

>  <r_i_glide_eff_state_penalty>  (253) 
0

>  <ligand_id>  (253) 
73

>  <original_smiles>  (253) 
Cn1nc2ncnc(N3C4CCC3COC4)c2n1

>  <smiles>  (253) 
[H]c1nc(N2C3([H])C([H])([H])OC([H])([H])C2([H])C([H])([H])C3([H])[H])c2nn(C([H])([H])[H])nc2n1

$$$$
73:0:2
     RDKit          3D

 32 35  0  0  1  0  0  0  0  0999 V2000
    1.6726   -5.3980    2.9710 C   0  0  0  0  0  0  0  0  0  0  0  0
    2.2094   -4.1373    2.5115 N   0  0  0  0  0  0  0  0  0  0  0  0
    2.1286   -3.0051    3.2727 N   0  0  0  0  0  0  0  0  0  0  0  0
    2.6427   -2.0848    2.4586 C   0  0  0  0  0  0  0  0  0  0  0  0
    2.8491   -0.7697    2.6737 N   0  0  0  0  0  0  0  0  0  0  0  0
    3.4148   -0.0878    1.6776 C   0  0  0  0  0  0  0  0  0  0  0  0
    3.8199   -0.5727    0.5018 N   0  0  0  0  0  0  0  0  0  0  0  0
    3.6087   -1.8866    0.2546 C   0  0  0  0  0  0  0  0  0  0  0  0
    4.0977   -2.4006   -0.9636 N   0  0  0  0  0  0  0  0  0  0  0  0
    3.6127   -3.5528   -1.6920 C   0  0  2  0  0  0  0  0  0  0  0  0
    4.9132   -4.0696   -2.3270 C   0  0  0  0  0  0  0  0  0  0  0  0
    5.7777   -2.8041   -2.4881 C   0  0  0  0  0  0  0  0  0  0  0  0
    4.8906   -1.6732   -1.9348 C   0  0  1  0  0  0  0  0  0  0  0  0
    3.9531   -1.1062   -3.0348 C   0  0  0  0  0  0  0  0  0  0  0  0
    3.2237   -2.1571   -3.6728 O   0  0  0  0  0  0  0  0  0  0  0  0
    2.6023   -3.0774   -2.7703 C   0  0  0  0  0  0  0  0  0  0  0  0
    3.0045   -2.6850    1.2619 C   0  0  0  0  0  0  0  0  0  0  0  0
    2.7504   -3.9933    1.2685 N   0  0  0  0  0  0  0  0  0  0  0  0
    0.7907   -5.2193    3.5857 H   0  0  0  0  0  0  0  0  0  0  0  0
    2.4183   -5.9193    3.5695 H   0  0  0  0  0  0  0  0  0  0  0  0
    1.3840   -6.0313    2.1261 H   0  0  0  0  0  0  0  0  0  0  0  0
    3.5755    0.9650    1.8450 H   0  0  0  0  0  0  0  0  0  0  0  0
    3.1579   -4.3250   -1.0814 H   0  0  0  0  0  0  0  0  0  0  0  0
    5.3951   -4.7526   -1.6232 H   0  0  0  0  0  0  0  0  0  0  0  0
    4.7442   -4.6016   -3.2614 H   0  0  0  0  0  0  0  0  0  0  0  0
    6.6832   -2.8952   -1.8860 H   0  0  0  0  0  0  0  0  0  0  0  0
    6.0749   -2.6586   -3.5205 H   0  0  0  0  0  0  0  0  0  0  0  0
    5.4796   -0.8760   -1.4848 H   0  0  0  0  0  0  0  0  0  0  0  0
    3.2794   -0.3448   -2.6329 H   0  0  0  0  0  0  0  0  0  0  0  0
    4.5445   -0.6284   -3.8112 H   0  0  0  0  0  0  0  0  0  0  0  0
    2.2639   -3.9227   -3.3620 H   0  0  0  0  0  0  0  0  0  0  0  0
    1.7095   -2.6508   -2.3062 H   0  0  0  0  0  0  0  0  0  0  0  0
  1  2  1  0
  1 19  1  0
  1 20  1  0
  1 21  1  0
  2 18  1  0
  2  3  1  0
  3  4  2  0
  4 17  1  0
  4  5  1  0
  5  6  2  0
  6  7  1  0
  6 22  1  0
  7  8  2  0
  8  9  1  0
  8 17  1  0
  9 13  1  0
  9 10  1  0
 10 16  1  0
 10 11  1  0
 10 23  1  1
 11 12  1  0
 11 24  1  0
 11 25  1  0
 12 13  1  0
 12 26  1  0
 12 27  1  0
 13 14  1  0
 13 28  1  1
 14 15  1  0
 14 29  1  0
 14 30  1  0
 15 16  1  0
 16 31  1  0
 16 32  1  0
 17 18  2  0
M  END
>  <i_m_ct_stereo_status>  (254) 
1

>  <s_m_source_file>  (254) 
/var/tmp/pbs.5076255.sched01/tmp2672eyar/80wl2hclo4.sdf

>  <i_m_source_file_index>  (254) 
19

>  <i_lp_mmshare_version>  (254) 
48012

>  <i_f3d_flags>  (254) 
0

>  <s_epik_input>  (254) 
W0NIM11uKG4xKW5jKGMxMiljKG5bY0hdbjIpTihbQ0BIXTM0KVtDQEBIXShbQ0gyXVtDSDJdMylbQ0gyXU9bQ0gyXTQ=

>  <s_epik_cmdline>  (254) 
J2VwaWtfcHl0aG9uJywgJy1waHQnLCAnMi4wJywgJy1waCcsICc3LjAnLCAnLXRuJywgJzgnLCAnLW1hJywgJzIwMCcsICctaW1hZScsICc8aW5maWxlLm1hZT4nLCAnLW9tYWUnLCAnPG91dGZpbGUubWFlPic=

>  <r_lp_tautomer_probability>  (254) 
1

>  <r_epik_Ionization_Penalty>  (254) 
0.00596225

>  <r_epik_Ionization_Penalty_Charging>  (254) 
0

>  <r_epik_Ionization_Penalty_Neutral>  (254) 
0.00596225

>  <r_epik_State_Penalty>  (254) 
-0

>  <r_epik_Charging_Adjusted_Penalty>  (254) 
0

>  <i_epik_Tot_Q>  (254) 
0

>  <i_epik_Tot_abs_Q>  (254) 
0

>  <s_lp_Force_Field>  (254) 
OPLS3e

>  <r_lp_Energy>  (254) 
31.5991

>  <b_lp_Chiralities_Consistent>  (254) 
1

>  <s_lp_Variant>  (254) 
73:0-1

>  <s_i_glide_gridfile>  (254) 
pfpi4k_grid

>  <i_i_glide_lignum>  (254) 
19

>  <i_i_glide_rotatable_bonds>  (254) 
1

>  <r_i_docking_score>  (254) 
-3.0764

>  <r_i_glide_ligand_efficiency>  (254) 
-0.170911

>  <r_i_glide_ligand_efficiency_sa>  (254) 
-0.447914

>  <r_i_glide_ligand_efficiency_ln>  (254) 
-0.790772

>  <r_i_glide_gscore>  (254) 
-3.0764

>  <r_i_glide_lipo>  (254) 
-0.222268

>  <r_i_glide_hbond>  (254) 
0

>  <r_i_glide_metal>  (254) 
-0

>  <r_i_glide_rewards>  (254) 
-1.73219

>  <r_i_glide_evdw>  (254) 
-21.9955

>  <r_i_glide_ecoul>  (254) 
-1.8172

>  <r_i_glide_erotb>  (254) 
0.287306

>  <r_i_glide_esite>  (254) 
-0.0368954

>  <r_i_glide_emodel>  (254) 
-28.2981

>  <r_i_glide_energy>  (254) 
-23.8127

>  <r_i_glide_einternal>  (254) 
0.731726

>  <r_i_glide_intrahb_reward>  (254) 
-0

>  <i_i_glide_confnum>  (254) 
1

>  <i_i_glide_posenum>  (254) 
15

>  <r_i_glide_eff_state_penalty>  (254) 
0

>  <ligand_id>  (254) 
73

>  <original_smiles>  (254) 
Cn1nc2ncnc(N3C4CCC3COC4)c2n1

>  <smiles>  (254) 
[H]c1nc(N2C3([H])C([H])([H])OC([H])([H])C2([H])C([H])([H])C3([H])[H])c2nn(C([H])([H])[H])nc2n1

$$$$
74:0:0
     RDKit          3D

 15 16  0  0  1  0  0  0  0  0999 V2000
    2.7190  -11.5066    3.3834 C   0  0  0  0  0  0  0  0  0  0  0  0
    1.8700  -10.2930    3.0616 C   0  0  0  0  0  0  0  0  0  0  0  0
    0.5582  -10.2047    3.5840 C   0  0  0  0  0  0  0  0  0  0  0  0
   -0.0944   -9.0333    3.1984 N   0  0  0  0  0  0  0  0  0  0  0  0
   -1.3333   -8.5607    3.4698 C   0  0  0  0  0  0  0  0  0  0  0  0
   -1.4838   -7.3724    2.8779 N   0  0  0  0  0  0  0  0  0  0  0  0
   -0.3108   -7.0675    2.1871 N   0  0  0  0  0  0  0  0  0  0  0  0
    0.5396   -8.0834    2.3838 C   0  0  0  0  0  0  0  0  0  0  0  0
    1.8037   -8.2633    1.9387 N   0  0  0  0  0  0  0  0  0  0  0  0
    2.4646   -9.3675    2.2761 N   0  0  0  0  0  0  0  0  0  0  0  0
    2.1805  -12.2084    4.0185 H   0  0  0  0  0  0  0  0  0  0  0  0
    3.6298  -11.2155    3.9076 H   0  0  0  0  0  0  0  0  0  0  0  0
    3.0069  -12.0343    2.4768 H   0  0  0  0  0  0  0  0  0  0  0  0
    0.0636  -10.9288    4.2159 H   0  0  0  0  0  0  0  0  0  0  0  0
   -2.0764   -9.0550    4.0792 H   0  0  0  0  0  0  0  0  0  0  0  0
  1  2  1  0
  1 11  1  0
  1 12  1  0
  1 13  1  0
  2 10  1  0
  2  3  2  0
  3  4  1  0
  3 14  1  0
  4  8  1  0
  4  5  1  0
  5  6  2  0
  5 15  1  0
  6  7  1  0
  7  8  2  0
  8  9  1  0
  9 10  2  0
M  END
>  <i_m_ct_stereo_status>  (255) 
1

>  <s_m_source_file>  (255) 
/var/tmp/pbs.5076255.sched01/tmp2672eyar/80wl2hclo4.sdf

>  <i_m_source_file_index>  (255) 
20

>  <i_lp_mmshare_version>  (255) 
48012

>  <i_f3d_flags>  (255) 
0

>  <s_epik_input>  (255) 
W0NIM11jKFtjSF0xKW5uYyhuMTIpbm5bY0hdMg==

>  <s_epik_cmdline>  (255) 
J2VwaWtfcHl0aG9uJywgJy1waHQnLCAnMi4wJywgJy1waCcsICc3LjAnLCAnLXRuJywgJzgnLCAnLW1hJywgJzIwMCcsICctaW1hZScsICc8aW5maWxlLm1hZT4nLCAnLW9tYWUnLCAnPG91dGZpbGUubWFlPic=

>  <r_lp_tautomer_probability>  (255) 
1

>  <r_epik_Ionization_Penalty>  (255) 
2.62432e-09

>  <r_epik_Ionization_Penalty_Charging>  (255) 
0

>  <r_epik_Ionization_Penalty_Neutral>  (255) 
2.62432e-09

>  <r_epik_State_Penalty>  (255) 
-0

>  <r_epik_Charging_Adjusted_Penalty>  (255) 
0

>  <i_epik_Tot_Q>  (255) 
0

>  <i_epik_Tot_abs_Q>  (255) 
0

>  <s_lp_Force_Field>  (255) 
OPLS3e

>  <r_lp_Energy>  (255) 
13.7003

>  <b_lp_Chiralities_Consistent>  (255) 
1

>  <s_lp_Variant>  (255) 
74:0-1

>  <s_i_glide_gridfile>  (255) 
pfpi4k_grid

>  <i_i_glide_lignum>  (255) 
20

>  <i_i_glide_rotatable_bonds>  (255) 
0

>  <r_i_docking_score>  (255) 
-4.25234

>  <r_i_glide_ligand_efficiency>  (255) 
-0.425234

>  <r_i_glide_ligand_efficiency_sa>  (255) 
-0.91614

>  <r_i_glide_ligand_efficiency_ln>  (255) 
-1.28758

>  <r_i_glide_gscore>  (255) 
-4.25234

>  <r_i_glide_lipo>  (255) 
-0.0770415

>  <r_i_glide_hbond>  (255) 
0

>  <r_i_glide_metal>  (255) 
-0

>  <r_i_glide_rewards>  (255) 
-2.25

>  <r_i_glide_evdw>  (255) 
-16.7558

>  <r_i_glide_ecoul>  (255) 
-4.84187

>  <r_i_glide_erotb>  (255) 
0

>  <r_i_glide_esite>  (255) 
-0.361234

>  <r_i_glide_emodel>  (255) 
-28.9768

>  <r_i_glide_energy>  (255) 
-21.5976

>  <r_i_glide_einternal>  (255) 
0

>  <r_i_glide_intrahb_reward>  (255) 
-0

>  <i_i_glide_confnum>  (255) 
2

>  <i_i_glide_posenum>  (255) 
31

>  <r_i_glide_eff_state_penalty>  (255) 
0

>  <ligand_id>  (255) 
74

>  <original_smiles>  (255) 
Cc1cn2cnnc2nn1

>  <smiles>  (255) 
[H]c1nnc2nnc(C([H])([H])[H])c([H])n12

$$$$
74:0:1
     RDKit          3D

 15 16  0  0  1  0  0  0  0  0999 V2000
    4.5785   -9.9686    2.0879 C   0  0  0  0  0  0  0  0  0  0  0  0
    3.4425   -8.9764    1.9615 C   0  0  0  0  0  0  0  0  0  0  0  0
    2.1340   -9.3599    2.3414 C   0  0  0  0  0  0  0  0  0  0  0  0
    1.2057   -8.3301    2.1785 N   0  0  0  0  0  0  0  0  0  0  0  0
   -0.1267   -8.2711    2.4139 C   0  0  0  0  0  0  0  0  0  0  0  0
   -0.5744   -7.0565    2.0794 N   0  0  0  0  0  0  0  0  0  0  0  0
    0.5067   -6.3022    1.6187 N   0  0  0  0  0  0  0  0  0  0  0  0
    1.5930   -7.0804    1.6803 C   0  0  0  0  0  0  0  0  0  0  0  0
    2.8746   -6.8160    1.3451 N   0  0  0  0  0  0  0  0  0  0  0  0
    3.7964   -7.7637    1.4852 N   0  0  0  0  0  0  0  0  0  0  0  0
    4.2221  -10.9215    2.4800 H   0  0  0  0  0  0  0  0  0  0  0  0
    5.3483   -9.5955    2.7633 H   0  0  0  0  0  0  0  0  0  0  0  0
    5.0365  -10.1543    1.1161 H   0  0  0  0  0  0  0  0  0  0  0  0
    1.8291  -10.3248    2.7218 H   0  0  0  0  0  0  0  0  0  0  0  0
   -0.7343   -9.0812    2.7935 H   0  0  0  0  0  0  0  0  0  0  0  0
  1  2  1  0
  1 11  1  0
  1 12  1  0
  1 13  1  0
  2 10  1  0
  2  3  2  0
  3  4  1  0
  3 14  1  0
  4  8  1  0
  4  5  1  0
  5  6  2  0
  5 15  1  0
  6  7  1  0
  7  8  2  0
  8  9  1  0
  9 10  2  0
M  END
>  <i_m_ct_stereo_status>  (256) 
1

>  <s_m_source_file>  (256) 
/var/tmp/pbs.5076255.sched01/tmp2672eyar/80wl2hclo4.sdf

>  <i_m_source_file_index>  (256) 
20

>  <i_lp_mmshare_version>  (256) 
48012

>  <i_f3d_flags>  (256) 
0

>  <s_epik_input>  (256) 
W0NIM11jKFtjSF0xKW5uYyhuMTIpbm5bY0hdMg==

>  <s_epik_cmdline>  (256) 
J2VwaWtfcHl0aG9uJywgJy1waHQnLCAnMi4wJywgJy1waCcsICc3LjAnLCAnLXRuJywgJzgnLCAnLW1hJywgJzIwMCcsICctaW1hZScsICc8aW5maWxlLm1hZT4nLCAnLW9tYWUnLCAnPG91dGZpbGUubWFlPic=

>  <r_lp_tautomer_probability>  (256) 
1

>  <r_epik_Ionization_Penalty>  (256) 
2.62432e-09

>  <r_epik_Ionization_Penalty_Charging>  (256) 
0

>  <r_epik_Ionization_Penalty_Neutral>  (256) 
2.62432e-09

>  <r_epik_State_Penalty>  (256) 
-0

>  <r_epik_Charging_Adjusted_Penalty>  (256) 
0

>  <i_epik_Tot_Q>  (256) 
0

>  <i_epik_Tot_abs_Q>  (256) 
0

>  <s_lp_Force_Field>  (256) 
OPLS3e

>  <r_lp_Energy>  (256) 
13.7003

>  <b_lp_Chiralities_Consistent>  (256) 
1

>  <s_lp_Variant>  (256) 
74:0-1

>  <s_i_glide_gridfile>  (256) 
pfpi4k_grid

>  <i_i_glide_lignum>  (256) 
20

>  <i_i_glide_rotatable_bonds>  (256) 
0

>  <r_i_docking_score>  (256) 
-4.07254

>  <r_i_glide_ligand_efficiency>  (256) 
-0.407254

>  <r_i_glide_ligand_efficiency_sa>  (256) 
-0.877402

>  <r_i_glide_ligand_efficiency_ln>  (256) 
-1.23314

>  <r_i_glide_gscore>  (256) 
-4.07254

>  <r_i_glide_lipo>  (256) 
-0.0677178

>  <r_i_glide_hbond>  (256) 
0

>  <r_i_glide_metal>  (256) 
-0

>  <r_i_glide_rewards>  (256) 
-2.25

>  <r_i_glide_evdw>  (256) 
-13.0627

>  <r_i_glide_ecoul>  (256) 
-5.24948

>  <r_i_glide_erotb>  (256) 
0

>  <r_i_glide_esite>  (256) 
-0.314264

>  <r_i_glide_emodel>  (256) 
-25.3799

>  <r_i_glide_energy>  (256) 
-18.3122

>  <r_i_glide_einternal>  (256) 
0

>  <r_i_glide_intrahb_reward>  (256) 
-0

>  <i_i_glide_confnum>  (256) 
1

>  <i_i_glide_posenum>  (256) 
36

>  <r_i_glide_eff_state_penalty>  (256) 
0

>  <ligand_id>  (256) 
74

>  <original_smiles>  (256) 
Cc1cn2cnnc2nn1

>  <smiles>  (256) 
[H]c1nnc2nnc(C([H])([H])[H])c([H])n12

$$$$
74:0:2
     RDKit          3D

 15 16  0  0  1  0  0  0  0  0999 V2000
    3.9833  -10.1127    2.4733 C   0  0  0  0  0  0  0  0  0  0  0  0
    2.7203   -9.2837    2.3676 C   0  0  0  0  0  0  0  0  0  0  0  0
    1.4832   -9.8393    2.7751 C   0  0  0  0  0  0  0  0  0  0  0  0
    0.4215   -8.9459    2.6228 N   0  0  0  0  0  0  0  0  0  0  0  0
   -0.9026   -9.0618    2.8799 C   0  0  0  0  0  0  0  0  0  0  0  0
   -1.5084   -7.9114    2.5697 N   0  0  0  0  0  0  0  0  0  0  0  0
   -0.5509   -7.0264    2.0793 N   0  0  0  0  0  0  0  0  0  0  0  0
    0.6268   -7.6582    2.1112 C   0  0  0  0  0  0  0  0  0  0  0  0
    1.8538   -7.2257    1.7465 N   0  0  0  0  0  0  0  0  0  0  0  0
    2.8973   -8.0371    1.8770 N   0  0  0  0  0  0  0  0  0  0  0  0
    3.7681  -11.1064    2.8631 H   0  0  0  0  0  0  0  0  0  0  0  0
    4.7092   -9.6376    3.1340 H   0  0  0  0  0  0  0  0  0  0  0  0
    4.4467  -10.2343    1.4935 H   0  0  0  0  0  0  0  0  0  0  0  0
    1.3200  -10.8337    3.1649 H   0  0  0  0  0  0  0  0  0  0  0  0
   -1.3899   -9.9389    3.2792 H   0  0  0  0  0  0  0  0  0  0  0  0
  1  2  1  0
  1 11  1  0
  1 12  1  0
  1 13  1  0
  2 10  1  0
  2  3  2  0
  3  4  1  0
  3 14  1  0
  4  8  1  0
  4  5  1  0
  5  6  2  0
  5 15  1  0
  6  7  1  0
  7  8  2  0
  8  9  1  0
  9 10  2  0
M  END
>  <i_m_ct_stereo_status>  (257) 
1

>  <s_m_source_file>  (257) 
/var/tmp/pbs.5076255.sched01/tmp2672eyar/80wl2hclo4.sdf

>  <i_m_source_file_index>  (257) 
20

>  <i_lp_mmshare_version>  (257) 
48012

>  <i_f3d_flags>  (257) 
0

>  <s_epik_input>  (257) 
W0NIM11jKFtjSF0xKW5uYyhuMTIpbm5bY0hdMg==

>  <s_epik_cmdline>  (257) 
J2VwaWtfcHl0aG9uJywgJy1waHQnLCAnMi4wJywgJy1waCcsICc3LjAnLCAnLXRuJywgJzgnLCAnLW1hJywgJzIwMCcsICctaW1hZScsICc8aW5maWxlLm1hZT4nLCAnLW9tYWUnLCAnPG91dGZpbGUubWFlPic=

>  <r_lp_tautomer_probability>  (257) 
1

>  <r_epik_Ionization_Penalty>  (257) 
2.62432e-09

>  <r_epik_Ionization_Penalty_Charging>  (257) 
0

>  <r_epik_Ionization_Penalty_Neutral>  (257) 
2.62432e-09

>  <r_epik_State_Penalty>  (257) 
-0

>  <r_epik_Charging_Adjusted_Penalty>  (257) 
0

>  <i_epik_Tot_Q>  (257) 
0

>  <i_epik_Tot_abs_Q>  (257) 
0

>  <s_lp_Force_Field>  (257) 
OPLS3e

>  <r_lp_Energy>  (257) 
13.7003

>  <b_lp_Chiralities_Consistent>  (257) 
1

>  <s_lp_Variant>  (257) 
74:0-1

>  <s_i_glide_gridfile>  (257) 
pfpi4k_grid

>  <i_i_glide_lignum>  (257) 
20

>  <i_i_glide_rotatable_bonds>  (257) 
0

>  <r_i_docking_score>  (257) 
-4.01387

>  <r_i_glide_ligand_efficiency>  (257) 
-0.401387

>  <r_i_glide_ligand_efficiency_sa>  (257) 
-0.864762

>  <r_i_glide_ligand_efficiency_ln>  (257) 
-1.21537

>  <r_i_glide_gscore>  (257) 
-4.01387

>  <r_i_glide_lipo>  (257) 
-0.0848222

>  <r_i_glide_hbond>  (257) 
0

>  <r_i_glide_metal>  (257) 
-0

>  <r_i_glide_rewards>  (257) 
-2.25

>  <r_i_glide_evdw>  (257) 
-15.7078

>  <r_i_glide_ecoul>  (257) 
-4.21938

>  <r_i_glide_erotb>  (257) 
0

>  <r_i_glide_esite>  (257) 
-0.260752

>  <r_i_glide_emodel>  (257) 
-26.8929

>  <r_i_glide_energy>  (257) 
-19.9272

>  <r_i_glide_einternal>  (257) 
0

>  <r_i_glide_intrahb_reward>  (257) 
-0

>  <i_i_glide_confnum>  (257) 
2

>  <i_i_glide_posenum>  (257) 
27

>  <r_i_glide_eff_state_penalty>  (257) 
0

>  <ligand_id>  (257) 
74

>  <original_smiles>  (257) 
Cc1cn2cnnc2nn1

>  <smiles>  (257) 
[H]c1nnc2nnc(C([H])([H])[H])c([H])n12

$$$$
75:0:0
     RDKit          3D

 41 45  0  0  1  0  0  0  0  0999 V2000
  -10.4605  -12.9376   -8.7006 C   0  0  0  0  0  0  0  0  0  0  0  0
  -10.2034  -11.8311   -7.6630 C   0  0  0  0  0  0  0  0  0  0  0  0
   -9.1053  -10.9338   -8.0463 N   0  0  0  0  0  0  0  0  0  0  0  0
   -9.2720   -9.7235   -8.5922 C   0  0  0  0  0  0  0  0  0  0  0  0
  -10.3474   -9.2072   -8.9019 O   0  0  0  0  0  0  0  0  0  0  0  0
   -7.9334   -9.0199   -8.8053 C   0  0  2  0  0  0  0  0  0  0  0  0
   -6.9217  -10.1706   -8.5854 C   0  0  2  0  0  0  0  0  0  0  0  0
   -7.8067  -11.2414   -7.9182 C   0  0  0  0  0  0  0  0  0  0  0  0
   -7.3717  -12.2808   -7.4181 O   0  0  0  0  0  0  0  0  0  0  0  0
   -5.5645   -9.7590   -7.9162 C   0  0  2  0  0  0  0  0  0  0  0  0
   -4.8129  -10.8997   -7.2747 C   0  0  0  0  0  0  0  0  0  0  0  0
   -4.7747  -10.7796   -5.9481 C   0  0  0  0  0  0  0  0  0  0  0  0
   -5.5003   -9.5450   -5.4770 C   0  0  0  0  0  0  0  0  0  0  0  0
   -5.6134   -8.7196   -6.7716 C   0  0  2  0  0  0  0  0  0  0  0  0
   -6.7698   -7.7851   -6.8797 C   0  0  0  0  0  0  0  0  0  0  0  0
   -7.7667   -7.9068   -7.8087 C   0  0  0  0  0  0  0  0  0  0  0  0
   -8.6011   -6.8051   -7.7117 N   0  0  0  0  0  0  0  0  0  0  0  0
   -8.1752   -5.9611   -6.7048 C   0  0  0  0  0  0  0  0  0  0  0  0
   -8.6777   -4.7461   -6.2105 C   0  0  0  0  0  0  0  0  0  0  0  0
  -10.1084   -4.0513   -6.8765 Cl  0  0  0  0  0  0  0  0  0  0  0  0
   -8.0067   -4.1020   -5.1588 C   0  0  0  0  0  0  0  0  0  0  0  0
   -6.8318   -4.6579   -4.6194 C   0  0  0  0  0  0  0  0  0  0  0  0
   -6.3391   -5.8800   -5.1176 C   0  0  0  0  0  0  0  0  0  0  0  0
   -7.0053   -6.5664   -6.1615 C   0  0  0  0  0  0  0  0  0  0  0  0
   -9.4290   -6.6783   -8.2817 H   0  0  0  0  0  0  0  0  0  0  0  0
  -11.2778  -13.5831   -8.3774 H   0  0  0  0  0  0  0  0  0  0  0  0
   -9.5832  -13.5690   -8.8454 H   0  0  0  0  0  0  0  0  0  0  0  0
  -10.7359  -12.5217   -9.6704 H   0  0  0  0  0  0  0  0  0  0  0  0
  -11.1245  -11.2663   -7.5189 H   0  0  0  0  0  0  0  0  0  0  0  0
   -9.9750  -12.2827   -6.6984 H   0  0  0  0  0  0  0  0  0  0  0  0
   -7.8714   -8.6297   -9.8209 H   0  0  0  0  0  0  0  0  0  0  0  0
   -6.6815  -10.6046   -9.5555 H   0  0  0  0  0  0  0  0  0  0  0  0
   -4.9745   -9.2979   -8.7008 H   0  0  0  0  0  0  0  0  0  0  0  0
   -4.3583  -11.6966   -7.8429 H   0  0  0  0  0  0  0  0  0  0  0  0
   -4.2975  -11.4694   -5.2642 H   0  0  0  0  0  0  0  0  0  0  0  0
   -6.4864   -9.8493   -5.1228 H   0  0  0  0  0  0  0  0  0  0  0  0
   -4.9748   -9.0208   -4.6770 H   0  0  0  0  0  0  0  0  0  0  0  0
   -4.6937   -8.1332   -6.8330 H   0  0  0  0  0  0  0  0  0  0  0  0
   -8.3966   -3.1718   -4.7753 H   0  0  0  0  0  0  0  0  0  0  0  0
   -6.3125   -4.1468   -3.8182 H   0  0  0  0  0  0  0  0  0  0  0  0
   -5.4392   -6.3046   -4.7004 H   0  0  0  0  0  0  0  0  0  0  0  0
  1  2  1  0
  1 26  1  0
  1 27  1  0
  1 28  1  0
  2 29  1  0
  2 30  1  0
  2  3  1  0
  3  8  1  0
  3  4  1  0
  4  5  2  0
  4  6  1  0
  6 16  1  0
  6 31  1  6
  6  7  1  0
  7 10  1  0
  7 32  1  6
  7  8  1  0
  8  9  2  0
 10 14  1  0
 10 11  1  0
 10 33  1  6
 11 12  2  0
 11 34  1  0
 12 13  1  0
 12 35  1  0
 13 14  1  0
 13 36  1  0
 13 37  1  0
 14 15  1  0
 14 38  1  6
 15 24  1  0
 15 16  2  0
 16 17  1  0
 17 25  1  0
 17 18  1  0
 18 24  2  0
 18 19  1  0
 19 20  1  0
 19 21  2  0
 21 22  1  0
 21 39  1  0
 22 23  2  0
 22 40  1  0
 23 24  1  0
 23 41  1  0
M  END
>  <i_m_ct_stereo_status>  (258) 
1

>  <s_m_source_file>  (258) 
/var/tmp/pbs.5076255.sched01/tmp2672eyar/80wl2hclo4.sdf

>  <i_m_source_file_index>  (258) 
21

>  <i_lp_mmshare_version>  (258) 
48012

>  <i_f3d_flags>  (258) 
0

>  <s_epik_input>  (258) 
W0NIM11bQ0gyXW4oYzFbT0hdKWMoW09IXSljKGMxMilbQ0BIXTNbQ0BIXShbQ0gyXVtDSF09W0NIXTMpYzRjMltuSF1jNWM0W2NIXVtjSF1bY0hdYzVDbA==

>  <s_epik_cmdline>  (258) 
J2VwaWtfcHl0aG9uJywgJy1waHQnLCAnMi4wJywgJy1waCcsICc3LjAnLCAnLXRuJywgJzgnLCAnLW1hJywgJzIwMCcsICctaW1hZScsICc8aW5maWxlLm1hZT4nLCAnLW9tYWUnLCAnPG91dGZpbGUubWFlPic=

>  <r_lp_tautomer_probability>  (258) 
1

>  <r_epik_Ionization_Penalty>  (258) 
1.77111e-08

>  <r_epik_Ionization_Penalty_Charging>  (258) 
0

>  <r_epik_Ionization_Penalty_Neutral>  (258) 
1.77111e-08

>  <r_epik_State_Penalty>  (258) 
-0

>  <r_epik_Charging_Adjusted_Penalty>  (258) 
0

>  <i_epik_Tot_Q>  (258) 
0

>  <i_epik_Tot_abs_Q>  (258) 
0

>  <s_lp_Force_Field>  (258) 
OPLS3e

>  <r_lp_Energy>  (258) 
10.8769

>  <b_lp_Chiralities_Consistent>  (258) 
1

>  <s_lp_Variant>  (258) 
75:0-1

>  <s_i_glide_gridfile>  (258) 
pfpi4k_grid

>  <i_i_glide_lignum>  (258) 
21

>  <i_i_glide_rotatable_bonds>  (258) 
1

>  <r_i_docking_score>  (258) 
-6.61457

>  <r_i_glide_ligand_efficiency>  (258) 
-0.275607

>  <r_i_glide_ligand_efficiency_sa>  (258) 
-0.794988

>  <r_i_glide_ligand_efficiency_ln>  (258) 
-1.58317

>  <r_i_glide_gscore>  (258) 
-6.61457

>  <r_i_glide_lipo>  (258) 
-3.05252

>  <r_i_glide_hbond>  (258) 
0

>  <r_i_glide_metal>  (258) 
-0

>  <r_i_glide_rewards>  (258) 
-1.76575

>  <r_i_glide_evdw>  (258) 
-33.6095

>  <r_i_glide_ecoul>  (258) 
-0.772121

>  <r_i_glide_erotb>  (258) 
0

>  <r_i_glide_esite>  (258) 
0

>  <r_i_glide_emodel>  (258) 
-47.5714

>  <r_i_glide_energy>  (258) 
-34.3816

>  <r_i_glide_einternal>  (258) 
0.0771242

>  <r_i_glide_intrahb_reward>  (258) 
-0

>  <i_i_glide_confnum>  (258) 
2

>  <i_i_glide_posenum>  (258) 
6

>  <r_i_glide_eff_state_penalty>  (258) 
0

>  <ligand_id>  (258) 
75

>  <original_smiles>  (258) 
CCn1c(O)c2c(c1O)C1C=CCC1c1c-2[nH]c2c(Cl)cccc12

>  <smiles>  (258) 
[H]C1=C([H])C2([H])C3([H])C(=O)N(C([H])([H])C([H])([H])[H])C(=O)C3([H])c3c(c4c([H])c([H])c([H])c(Cl)c4n3[H])C2([H])C1([H])[H]

$$$$
75:0:1
     RDKit          3D

 41 45  0  0  1  0  0  0  0  0999 V2000
  -10.0116  -12.2887   -6.9695 C   0  0  0  0  0  0  0  0  0  0  0  0
   -9.9083  -11.6712   -8.3664 C   0  0  0  0  0  0  0  0  0  0  0  0
   -8.7830  -10.7280   -8.4767 N   0  0  0  0  0  0  0  0  0  0  0  0
   -8.8947   -9.4913   -8.9833 C   0  0  0  0  0  0  0  0  0  0  0  0
   -9.9189   -8.9752   -9.4381 O   0  0  0  0  0  0  0  0  0  0  0  0
   -7.5586   -8.7526   -8.9524 C   0  0  2  0  0  0  0  0  0  0  0  0
   -6.5714   -9.8913   -8.6126 C   0  0  2  0  0  0  0  0  0  0  0  0
   -7.5033  -11.0238   -8.1834 C   0  0  0  0  0  0  0  0  0  0  0  0
   -7.0798  -12.1041   -7.7633 O   0  0  0  0  0  0  0  0  0  0  0  0
   -5.3354   -9.5086   -7.7403 C   0  0  2  0  0  0  0  0  0  0  0  0
   -4.6718  -10.6792   -7.0655 C   0  0  0  0  0  0  0  0  0  0  0  0
   -4.8418  -10.6427   -5.7493 C   0  0  0  0  0  0  0  0  0  0  0  0
   -5.6547   -9.4504   -5.3222 C   0  0  0  0  0  0  0  0  0  0  0  0
   -5.5916   -8.5472   -6.5659 C   0  0  2  0  0  0  0  0  0  0  0  0
   -6.7436   -7.6296   -6.8021 C   0  0  0  0  0  0  0  0  0  0  0  0
   -7.5809   -7.7061   -7.8817 C   0  0  0  0  0  0  0  0  0  0  0  0
   -8.4548   -6.6313   -7.8525 N   0  0  0  0  0  0  0  0  0  0  0  0
   -8.1984   -5.8411   -6.7533 C   0  0  0  0  0  0  0  0  0  0  0  0
   -8.7907   -4.6625   -6.2872 C   0  0  0  0  0  0  0  0  0  0  0  0
  -10.1220   -3.9577   -7.1158 Cl  0  0  0  0  0  0  0  0  0  0  0  0
   -8.3034   -4.0659   -5.1195 C   0  0  0  0  0  0  0  0  0  0  0  0
   -7.2227   -4.6447   -4.4232 C   0  0  0  0  0  0  0  0  0  0  0  0
   -6.6289   -5.8277   -4.8990 C   0  0  0  0  0  0  0  0  0  0  0  0
   -7.1141   -6.4582   -6.0675 C   0  0  0  0  0  0  0  0  0  0  0  0
   -9.1779   -6.4793   -8.5443 H   0  0  0  0  0  0  0  0  0  0  0  0
  -10.8639  -12.9632   -6.8937 H   0  0  0  0  0  0  0  0  0  0  0  0
  -10.1039  -11.4995   -6.2230 H   0  0  0  0  0  0  0  0  0  0  0  0
   -9.1352  -12.8765   -6.7256 H   0  0  0  0  0  0  0  0  0  0  0  0
   -9.8075  -12.4605   -9.1112 H   0  0  0  0  0  0  0  0  0  0  0  0
  -10.8614  -11.1844   -8.5812 H   0  0  0  0  0  0  0  0  0  0  0  0
   -7.3456   -8.3123   -9.9253 H   0  0  0  0  0  0  0  0  0  0  0  0
   -6.1809  -10.3256   -9.5246 H   0  0  0  0  0  0  0  0  0  0  0  0
   -4.6172   -9.0126   -8.3906 H   0  0  0  0  0  0  0  0  0  0  0  0
   -4.1222  -11.4404   -7.5950 H   0  0  0  0  0  0  0  0  0  0  0  0
   -4.4678  -11.3695   -5.0408 H   0  0  0  0  0  0  0  0  0  0  0  0
   -6.6777   -9.7889   -5.1344 H   0  0  0  0  0  0  0  0  0  0  0  0
   -5.2465   -8.9604   -4.4368 H   0  0  0  0  0  0  0  0  0  0  0  0
   -4.6908   -7.9429   -6.4552 H   0  0  0  0  0  0  0  0  0  0  0  0
   -8.7804   -3.1750   -4.7417 H   0  0  0  0  0  0  0  0  0  0  0  0
   -6.8570   -4.1876   -3.5144 H   0  0  0  0  0  0  0  0  0  0  0  0
   -5.8000   -6.2658   -4.3697 H   0  0  0  0  0  0  0  0  0  0  0  0
  1  2  1  0
  1 26  1  0
  1 27  1  0
  1 28  1  0
  2 29  1  0
  2 30  1  0
  2  3  1  0
  3  8  1  0
  3  4  1  0
  4  5  2  0
  4  6  1  0
  6 16  1  0
  6 31  1  6
  6  7  1  0
  7 10  1  0
  7 32  1  6
  7  8  1  0
  8  9  2  0
 10 14  1  0
 10 11  1  0
 10 33  1  6
 11 12  2  0
 11 34  1  0
 12 13  1  0
 12 35  1  0
 13 14  1  0
 13 36  1  0
 13 37  1  0
 14 15  1  0
 14 38  1  1
 15 24  1  0
 15 16  2  0
 16 17  1  0
 17 25  1  0
 17 18  1  0
 18 24  2  0
 18 19  1  0
 19 20  1  0
 19 21  2  0
 21 22  1  0
 21 39  1  0
 22 23  2  0
 22 40  1  0
 23 24  1  0
 23 41  1  0
M  END
>  <i_m_ct_stereo_status>  (259) 
1

>  <s_m_source_file>  (259) 
/var/tmp/pbs.5076255.sched01/tmp2672eyar/80wl2hclo4.sdf

>  <i_m_source_file_index>  (259) 
21

>  <i_lp_mmshare_version>  (259) 
48012

>  <i_f3d_flags>  (259) 
0

>  <s_epik_input>  (259) 
W0NIM11bQ0gyXW4oYzFbT0hdKWMoW09IXSljKGMxMilbQ0BIXTNbQ0BIXShbQ0gyXVtDSF09W0NIXTMpYzRjMltuSF1jNWM0W2NIXVtjSF1bY0hdYzVDbA==

>  <s_epik_cmdline>  (259) 
J2VwaWtfcHl0aG9uJywgJy1waHQnLCAnMi4wJywgJy1waCcsICc3LjAnLCAnLXRuJywgJzgnLCAnLW1hJywgJzIwMCcsICctaW1hZScsICc8aW5maWxlLm1hZT4nLCAnLW9tYWUnLCAnPG91dGZpbGUubWFlPic=

>  <r_lp_tautomer_probability>  (259) 
1

>  <r_epik_Ionization_Penalty>  (259) 
1.77111e-08

>  <r_epik_Ionization_Penalty_Charging>  (259) 
0

>  <r_epik_Ionization_Penalty_Neutral>  (259) 
1.77111e-08

>  <r_epik_State_Penalty>  (259) 
-0

>  <r_epik_Charging_Adjusted_Penalty>  (259) 
0

>  <i_epik_Tot_Q>  (259) 
0

>  <i_epik_Tot_abs_Q>  (259) 
0

>  <s_lp_Force_Field>  (259) 
OPLS3e

>  <r_lp_Energy>  (259) 
10.8769

>  <b_lp_Chiralities_Consistent>  (259) 
1

>  <s_lp_Variant>  (259) 
75:0-1

>  <s_i_glide_gridfile>  (259) 
pfpi4k_grid

>  <i_i_glide_lignum>  (259) 
21

>  <i_i_glide_rotatable_bonds>  (259) 
1

>  <r_i_docking_score>  (259) 
-6.54675

>  <r_i_glide_ligand_efficiency>  (259) 
-0.272781

>  <r_i_glide_ligand_efficiency_sa>  (259) 
-0.786837

>  <r_i_glide_ligand_efficiency_ln>  (259) 
-1.56694

>  <r_i_glide_gscore>  (259) 
-6.54675

>  <r_i_glide_lipo>  (259) 
-2.92393

>  <r_i_glide_hbond>  (259) 
0

>  <r_i_glide_metal>  (259) 
-0

>  <r_i_glide_rewards>  (259) 
-2.00325

>  <r_i_glide_evdw>  (259) 
-30.0177

>  <r_i_glide_ecoul>  (259) 
-0.791292

>  <r_i_glide_erotb>  (259) 
0

>  <r_i_glide_esite>  (259) 
0

>  <r_i_glide_emodel>  (259) 
-42.6228

>  <r_i_glide_energy>  (259) 
-30.8089

>  <r_i_glide_einternal>  (259) 
2.12057

>  <r_i_glide_intrahb_reward>  (259) 
-0

>  <i_i_glide_confnum>  (259) 
1

>  <i_i_glide_posenum>  (259) 
29

>  <r_i_glide_eff_state_penalty>  (259) 
0

>  <ligand_id>  (259) 
75

>  <original_smiles>  (259) 
CCn1c(O)c2c(c1O)C1C=CCC1c1c-2[nH]c2c(Cl)cccc12

>  <smiles>  (259) 
[H]C1=C([H])C2([H])C3([H])C(=O)N(C([H])([H])C([H])([H])[H])C(=O)C3([H])c3c(c4c([H])c([H])c([H])c(Cl)c4n3[H])C2([H])C1([H])[H]

$$$$
75:0:2
     RDKit          3D

 41 45  0  0  1  0  0  0  0  0999 V2000
  -11.4855  -10.8142   -7.7397 C   0  0  0  0  0  0  0  0  0  0  0  0
  -10.3919  -11.4695   -8.5922 C   0  0  0  0  0  0  0  0  0  0  0  0
   -9.1990  -10.6182   -8.7204 N   0  0  0  0  0  0  0  0  0  0  0  0
   -9.2014   -9.3637   -9.1997 C   0  0  0  0  0  0  0  0  0  0  0  0
  -10.1720   -8.7398   -9.6353 O   0  0  0  0  0  0  0  0  0  0  0  0
   -7.8103   -8.7488   -9.1581 C   0  0  2  0  0  0  0  0  0  0  0  0
   -6.9233   -9.9879   -8.9089 C   0  0  2  0  0  0  0  0  0  0  0  0
   -7.9525  -11.0356   -8.4546 C   0  0  0  0  0  0  0  0  0  0  0  0
   -7.6445  -12.1461   -8.0169 O   0  0  0  0  0  0  0  0  0  0  0  0
   -5.6396   -9.7299   -8.0442 C   0  0  2  0  0  0  0  0  0  0  0  0
   -5.0464  -10.9709   -7.4233 C   0  0  0  0  0  0  0  0  0  0  0  0
   -5.1773  -10.9666   -6.0993 C   0  0  0  0  0  0  0  0  0  0  0  0
   -5.8861   -9.7292   -5.6107 C   0  0  0  0  0  0  0  0  0  0  0  0
   -5.7810   -8.7923   -6.8244 C   0  0  2  0  0  0  0  0  0  0  0  0
   -6.8520   -7.7721   -6.9919 C   0  0  0  0  0  0  0  0  0  0  0  0
   -7.7222   -7.7419   -8.0487 C   0  0  0  0  0  0  0  0  0  0  0  0
   -8.5024   -6.6018   -7.9525 N   0  0  0  0  0  0  0  0  0  0  0  0
   -8.1573   -5.8756   -6.8294 C   0  0  0  0  0  0  0  0  0  0  0  0
   -8.6404   -4.6693   -6.3006 C   0  0  0  0  0  0  0  0  0  0  0  0
   -9.9259   -3.8323   -7.0815 Cl  0  0  0  0  0  0  0  0  0  0  0  0
   -8.0692   -4.1570   -5.1261 C   0  0  0  0  0  0  0  0  0  0  0  0
   -7.0117   -4.8356   -4.4939 C   0  0  0  0  0  0  0  0  0  0  0  0
   -6.5357   -6.0474   -5.0314 C   0  0  0  0  0  0  0  0  0  0  0  0
   -7.1029   -6.6013   -6.2046 C   0  0  0  0  0  0  0  0  0  0  0  0
   -9.2300   -6.3639   -8.6167 H   0  0  0  0  0  0  0  0  0  0  0  0
  -12.3418  -11.4794   -7.6208 H   0  0  0  0  0  0  0  0  0  0  0  0
  -11.8679   -9.8921   -8.1743 H   0  0  0  0  0  0  0  0  0  0  0  0
  -11.0886  -10.5699   -6.7539 H   0  0  0  0  0  0  0  0  0  0  0  0
  -10.1445  -12.4280   -8.1331 H   0  0  0  0  0  0  0  0  0  0  0  0
  -10.7809  -11.7141   -9.5804 H   0  0  0  0  0  0  0  0  0  0  0  0
   -7.5865   -8.2835  -10.1190 H   0  0  0  0  0  0  0  0  0  0  0  0
   -6.6008  -10.3758   -9.8726 H   0  0  0  0  0  0  0  0  0  0  0  0
   -4.9220   -9.2458   -8.6961 H   0  0  0  0  0  0  0  0  0  0  0  0
   -4.5720  -11.7496   -7.9983 H   0  0  0  0  0  0  0  0  0  0  0  0
   -4.8390  -11.7422   -5.4263 H   0  0  0  0  0  0  0  0  0  0  0  0
   -6.9294   -9.9804   -5.4110 H   0  0  0  0  0  0  0  0  0  0  0  0
   -5.4192   -9.3052   -4.7224 H   0  0  0  0  0  0  0  0  0  0  0  0
   -4.8292   -8.2709   -6.7160 H   0  0  0  0  0  0  0  0  0  0  0  0
   -8.4518   -3.2348   -4.7206 H   0  0  0  0  0  0  0  0  0  0  0  0
   -6.5769   -4.4355   -3.5875 H   0  0  0  0  0  0  0  0  0  0  0  0
   -5.7271   -6.5711   -4.5452 H   0  0  0  0  0  0  0  0  0  0  0  0
  1  2  1  0
  1 26  1  0
  1 27  1  0
  1 28  1  0
  2 29  1  0
  2 30  1  0
  2  3  1  0
  3  8  1  0
  3  4  1  0
  4  5  2  0
  4  6  1  0
  6 16  1  0
  6 31  1  6
  6  7  1  0
  7 10  1  0
  7 32  1  6
  7  8  1  0
  8  9  2  0
 10 14  1  0
 10 11  1  0
 10 33  1  6
 11 12  2  0
 11 34  1  0
 12 13  1  0
 12 35  1  0
 13 14  1  0
 13 36  1  0
 13 37  1  0
 14 15  1  0
 14 38  1  1
 15 24  1  0
 15 16  2  0
 16 17  1  0
 17 25  1  0
 17 18  1  0
 18 24  2  0
 18 19  1  0
 19 20  1  0
 19 21  2  0
 21 22  1  0
 21 39  1  0
 22 23  2  0
 22 40  1  0
 23 24  1  0
 23 41  1  0
M  END
>  <i_m_ct_stereo_status>  (260) 
1

>  <s_m_source_file>  (260) 
/var/tmp/pbs.5076255.sched01/tmp2672eyar/80wl2hclo4.sdf

>  <i_m_source_file_index>  (260) 
21

>  <i_lp_mmshare_version>  (260) 
48012

>  <i_f3d_flags>  (260) 
0

>  <s_epik_input>  (260) 
W0NIM11bQ0gyXW4oYzFbT0hdKWMoW09IXSljKGMxMilbQ0BIXTNbQ0BIXShbQ0gyXVtDSF09W0NIXTMpYzRjMltuSF1jNWM0W2NIXVtjSF1bY0hdYzVDbA==

>  <s_epik_cmdline>  (260) 
J2VwaWtfcHl0aG9uJywgJy1waHQnLCAnMi4wJywgJy1waCcsICc3LjAnLCAnLXRuJywgJzgnLCAnLW1hJywgJzIwMCcsICctaW1hZScsICc8aW5maWxlLm1hZT4nLCAnLW9tYWUnLCAnPG91dGZpbGUubWFlPic=

>  <r_lp_tautomer_probability>  (260) 
1

>  <r_epik_Ionization_Penalty>  (260) 
1.77111e-08

>  <r_epik_Ionization_Penalty_Charging>  (260) 
0

>  <r_epik_Ionization_Penalty_Neutral>  (260) 
1.77111e-08

>  <r_epik_State_Penalty>  (260) 
-0

>  <r_epik_Charging_Adjusted_Penalty>  (260) 
0

>  <i_epik_Tot_Q>  (260) 
0

>  <i_epik_Tot_abs_Q>  (260) 
0

>  <s_lp_Force_Field>  (260) 
OPLS3e

>  <r_lp_Energy>  (260) 
10.8769

>  <b_lp_Chiralities_Consistent>  (260) 
1

>  <s_lp_Variant>  (260) 
75:0-1

>  <s_i_glide_gridfile>  (260) 
pfpi4k_grid

>  <i_i_glide_lignum>  (260) 
21

>  <i_i_glide_rotatable_bonds>  (260) 
1

>  <r_i_docking_score>  (260) 
-6.40399

>  <r_i_glide_ligand_efficiency>  (260) 
-0.266833

>  <r_i_glide_ligand_efficiency_sa>  (260) 
-0.76968

>  <r_i_glide_ligand_efficiency_ln>  (260) 
-1.53277

>  <r_i_glide_gscore>  (260) 
-6.40399

>  <r_i_glide_lipo>  (260) 
-2.96349

>  <r_i_glide_hbond>  (260) 
0

>  <r_i_glide_metal>  (260) 
-0

>  <r_i_glide_rewards>  (260) 
-1.85701

>  <r_i_glide_evdw>  (260) 
-29.4221

>  <r_i_glide_ecoul>  (260) 
-0.749307

>  <r_i_glide_erotb>  (260) 
0

>  <r_i_glide_esite>  (260) 
0

>  <r_i_glide_emodel>  (260) 
-42.1895

>  <r_i_glide_energy>  (260) 
-30.1714

>  <r_i_glide_einternal>  (260) 
1.50116

>  <r_i_glide_intrahb_reward>  (260) 
-0

>  <i_i_glide_confnum>  (260) 
2

>  <i_i_glide_posenum>  (260) 
34

>  <r_i_glide_eff_state_penalty>  (260) 
0

>  <ligand_id>  (260) 
75

>  <original_smiles>  (260) 
CCn1c(O)c2c(c1O)C1C=CCC1c1c-2[nH]c2c(Cl)cccc12

>  <smiles>  (260) 
[H]C1=C([H])C2([H])C3([H])C(=O)N(C([H])([H])C([H])([H])[H])C(=O)C3([H])c3c(c4c([H])c([H])c([H])c(Cl)c4n3[H])C2([H])C1([H])[H]

$$$$
75:1:0
     RDKit          3D

 41 45  0  0  1  0  0  0  0  0999 V2000
  -12.3711   -5.7266  -10.7998 C   0  0  0  0  0  0  0  0  0  0  0  0
  -12.5478   -7.1814  -10.3386 C   0  0  0  0  0  0  0  0  0  0  0  0
  -11.3442   -7.7305   -9.6929 N   0  0  0  0  0  0  0  0  0  0  0  0
  -10.7610   -7.2652   -8.5628 C   0  0  0  0  0  0  0  0  0  0  0  0
  -10.9754   -6.2127   -7.9524 O   0  0  0  0  0  0  0  0  0  0  0  0
   -9.7493   -8.2851   -8.0841 C   0  0  1  0  0  0  0  0  0  0  0  0
   -9.3945   -8.9750   -9.3780 C   0  0  2  0  0  0  0  0  0  0  0  0
  -10.6875   -8.8180  -10.1607 C   0  0  0  0  0  0  0  0  0  0  0  0
  -10.9948   -9.5421  -11.1121 O   0  0  0  0  0  0  0  0  0  0  0  0
   -8.6726  -10.3136   -9.1268 C   0  0  2  0  0  0  0  0  0  0  0  0
   -9.5176  -11.3816   -8.4847 C   0  0  0  0  0  0  0  0  0  0  0  0
   -8.9267  -11.9259   -7.4264 C   0  0  0  0  0  0  0  0  0  0  0  0
   -7.5823  -11.3201   -7.1225 C   0  0  0  0  0  0  0  0  0  0  0  0
   -7.4604  -10.1416   -8.1278 C   0  0  2  0  0  0  0  0  0  0  0  0
   -7.4235   -8.7867   -7.4395 C   0  0  0  0  0  0  0  0  0  0  0  0
   -8.4694   -7.9009   -7.4633 C   0  0  0  0  0  0  0  0  0  0  0  0
   -8.1579   -6.7599   -6.7504 N   0  0  0  0  0  0  0  0  0  0  0  0
   -6.8992   -6.8928   -6.2235 C   0  0  0  0  0  0  0  0  0  0  0  0
   -6.1380   -6.0434   -5.4149 C   0  0  0  0  0  0  0  0  0  0  0  0
   -6.7399   -4.5196   -4.8897 Cl  0  0  0  0  0  0  0  0  0  0  0  0
   -4.8489   -6.4301   -5.0615 C   0  0  0  0  0  0  0  0  0  0  0  0
   -4.3255   -7.6781   -5.4481 C   0  0  0  0  0  0  0  0  0  0  0  0
   -5.1112   -8.5427   -6.2305 C   0  0  0  0  0  0  0  0  0  0  0  0
   -6.4066   -8.1654   -6.6516 C   0  0  0  0  0  0  0  0  0  0  0  0
   -8.7993   -5.9908   -6.5800 H   0  0  0  0  0  0  0  0  0  0  0  0
  -13.2774   -5.3637  -11.2860 H   0  0  0  0  0  0  0  0  0  0  0  0
  -11.5403   -5.6289  -11.4982 H   0  0  0  0  0  0  0  0  0  0  0  0
  -12.1834   -5.0704   -9.9517 H   0  0  0  0  0  0  0  0  0  0  0  0
  -13.3874   -7.2639   -9.6486 H   0  0  0  0  0  0  0  0  0  0  0  0
  -12.8335   -7.7750  -11.2104 H   0  0  0  0  0  0  0  0  0  0  0  0
  -10.2896   -8.9606   -7.4129 H   0  0  0  0  0  0  0  0  0  0  0  0
   -8.6826   -8.3392   -9.9101 H   0  0  0  0  0  0  0  0  0  0  0  0
   -8.3148  -10.7205  -10.0731 H   0  0  0  0  0  0  0  0  0  0  0  0
  -10.4843  -11.6688   -8.8663 H   0  0  0  0  0  0  0  0  0  0  0  0
   -9.3376  -12.7337   -6.8403 H   0  0  0  0  0  0  0  0  0  0  0  0
   -7.5097  -11.0252   -6.0717 H   0  0  0  0  0  0  0  0  0  0  0  0
   -6.8206  -12.0731   -7.3242 H   0  0  0  0  0  0  0  0  0  0  0  0
   -6.5353  -10.2506   -8.6888 H   0  0  0  0  0  0  0  0  0  0  0  0
   -4.2742   -5.7154   -4.5035 H   0  0  0  0  0  0  0  0  0  0  0  0
   -3.3187   -7.9710   -5.1703 H   0  0  0  0  0  0  0  0  0  0  0  0
   -4.7113   -9.4937   -6.5459 H   0  0  0  0  0  0  0  0  0  0  0  0
  1  2  1  0
  1 26  1  0
  1 27  1  0
  1 28  1  0
  2 29  1  0
  2 30  1  0
  2  3  1  0
  3  8  1  0
  3  4  1  0
  4  5  2  0
  4  6  1  0
  6 16  1  0
  6 31  1  1
  6  7  1  0
  7 10  1  0
  7 32  1  6
  7  8  1  0
  8  9  2  0
 10 14  1  0
 10 11  1  0
 10 33  1  6
 11 12  2  0
 11 34  1  0
 12 13  1  0
 12 35  1  0
 13 14  1  0
 13 36  1  0
 13 37  1  0
 14 15  1  0
 14 38  1  6
 15 24  1  0
 15 16  2  0
 16 17  1  0
 17 25  1  0
 17 18  1  0
 18 24  2  0
 18 19  1  0
 19 20  1  0
 19 21  2  0
 21 22  1  0
 21 39  1  0
 22 23  2  0
 22 40  1  0
 23 24  1  0
 23 41  1  0
M  END
>  <i_m_ct_stereo_status>  (261) 
1

>  <s_m_source_file>  (261) 
/var/tmp/pbs.5076255.sched01/tmp2672eyar/80wl2hclo4.sdf

>  <i_m_source_file_index>  (261) 
22

>  <i_lp_mmshare_version>  (261) 
48012

>  <i_f3d_flags>  (261) 
0

>  <s_epik_input>  (261) 
W0NIM11bQ0gyXW4oYzFbT0hdKWMoW09IXSljKGMxMilbQ0BIXTNbQ0BIXShbQ0gyXVtDSF09W0NIXTMpYzRjMltuSF1jNWM0W2NIXVtjSF1bY0hdYzVDbA==

>  <s_epik_cmdline>  (261) 
J2VwaWtfcHl0aG9uJywgJy1waHQnLCAnMi4wJywgJy1waCcsICc3LjAnLCAnLXRuJywgJzgnLCAnLW1hJywgJzIwMCcsICctaW1hZScsICc8aW5maWxlLm1hZT4nLCAnLW9tYWUnLCAnPG91dGZpbGUubWFlPic=

>  <r_lp_tautomer_probability>  (261) 
1

>  <r_epik_Ionization_Penalty>  (261) 
1.77111e-08

>  <r_epik_Ionization_Penalty_Charging>  (261) 
0

>  <r_epik_Ionization_Penalty_Neutral>  (261) 
1.77111e-08

>  <r_epik_State_Penalty>  (261) 
-0

>  <r_epik_Charging_Adjusted_Penalty>  (261) 
0

>  <i_epik_Tot_Q>  (261) 
0

>  <i_epik_Tot_abs_Q>  (261) 
0

>  <s_lp_Force_Field>  (261) 
OPLS3e

>  <r_lp_Energy>  (261) 
15.8762

>  <b_lp_Chiralities_Consistent>  (261) 
1

>  <s_lp_Variant>  (261) 
75:0-2

>  <s_i_glide_gridfile>  (261) 
pfpi4k_grid

>  <i_i_glide_lignum>  (261) 
22

>  <i_i_glide_rotatable_bonds>  (261) 
1

>  <r_i_docking_score>  (261) 
-4.39181

>  <r_i_glide_ligand_efficiency>  (261) 
-0.182992

>  <r_i_glide_ligand_efficiency_sa>  (261) 
-0.52784

>  <r_i_glide_ligand_efficiency_ln>  (261) 
-1.05116

>  <r_i_glide_gscore>  (261) 
-4.39181

>  <r_i_glide_lipo>  (261) 
-2.00566

>  <r_i_glide_hbond>  (261) 
0

>  <r_i_glide_metal>  (261) 
-0

>  <r_i_glide_rewards>  (261) 
-1.37014

>  <r_i_glide_evdw>  (261) 
-26.5047

>  <r_i_glide_ecoul>  (261) 
2.36691

>  <r_i_glide_erotb>  (261) 
0

>  <r_i_glide_esite>  (261) 
-0.0458166

>  <r_i_glide_emodel>  (261) 
-30.4837

>  <r_i_glide_energy>  (261) 
-24.1378

>  <r_i_glide_einternal>  (261) 
1.02418

>  <r_i_glide_intrahb_reward>  (261) 
-0

>  <i_i_glide_confnum>  (261) 
2

>  <i_i_glide_posenum>  (261) 
9

>  <r_i_glide_eff_state_penalty>  (261) 
0

>  <ligand_id>  (261) 
75

>  <original_smiles>  (261) 
CCn1c(O)c2c(c1O)C1C=CCC1c1c-2[nH]c2c(Cl)cccc12

>  <smiles>  (261) 
[H]C1=C([H])C2([H])C3([H])C(=O)N(C([H])([H])C([H])([H])[H])C(=O)C3([H])c3c(c4c([H])c([H])c([H])c(Cl)c4n3[H])C2([H])C1([H])[H]

$$$$
75:1:1
     RDKit          3D

 41 45  0  0  1  0  0  0  0  0999 V2000
   -1.0982    2.7590    4.9640 C   0  0  0  0  0  0  0  0  0  0  0  0
   -1.5543    1.6875    3.9611 C   0  0  0  0  0  0  0  0  0  0  0  0
   -0.7140    0.4880    4.0170 N   0  0  0  0  0  0  0  0  0  0  0  0
    0.3706    0.2767    3.2403 C   0  0  0  0  0  0  0  0  0  0  0  0
    0.7597    0.9638    2.2970 O   0  0  0  0  0  0  0  0  0  0  0  0
    1.1201   -0.9373    3.7747 C   0  0  1  0  0  0  0  0  0  0  0  0
   -0.0028   -1.6838    4.4693 C   0  0  2  0  0  0  0  0  0  0  0  0
   -0.9315   -0.5443    4.8578 C   0  0  0  0  0  0  0  0  0  0  0  0
   -1.7834   -0.6276    5.7483 O   0  0  0  0  0  0  0  0  0  0  0  0
    0.5225   -2.7519    5.4483 C   0  0  2  0  0  0  0  0  0  0  0  0
    1.2417   -2.2133    6.6576 C   0  0  0  0  0  0  0  0  0  0  0  0
    2.4229   -2.7962    6.8444 C   0  0  0  0  0  0  0  0  0  0  0  0
    2.7429   -3.8250    5.7924 C   0  0  0  0  0  0  0  0  0  0  0  0
    1.5886   -3.6960    4.7638 C   0  0  2  0  0  0  0  0  0  0  0  0
    2.0739   -3.1966    3.4040 C   0  0  0  0  0  0  0  0  0  0  0  0
    1.8381   -1.9282    2.9344 C   0  0  0  0  0  0  0  0  0  0  0  0
    2.3931   -1.7724    1.6788 N   0  0  0  0  0  0  0  0  0  0  0  0
    3.0136   -2.9487    1.2952 C   0  0  0  0  0  0  0  0  0  0  0  0
    3.7076   -3.3173    0.1266 C   0  0  0  0  0  0  0  0  0  0  0  0
    3.9047   -2.1860   -1.1600 Cl  0  0  0  0  0  0  0  0  0  0  0  0
    4.2408   -4.6149    0.0144 C   0  0  0  0  0  0  0  0  0  0  0  0
    4.0798   -5.5333    1.0685 C   0  0  0  0  0  0  0  0  0  0  0  0
    3.3819   -5.1593    2.2348 C   0  0  0  0  0  0  0  0  0  0  0  0
    2.8270   -3.8646    2.3777 C   0  0  0  0  0  0  0  0  0  0  0  0
    2.3020   -0.9344    1.1105 H   0  0  0  0  0  0  0  0  0  0  0  0
   -1.7417    3.6367    4.9024 H   0  0  0  0  0  0  0  0  0  0  0  0
   -0.0773    3.0806    4.7597 H   0  0  0  0  0  0  0  0  0  0  0  0
   -1.1349    2.3932    5.9909 H   0  0  0  0  0  0  0  0  0  0  0  0
   -2.5859    1.4134    4.1731 H   0  0  0  0  0  0  0  0  0  0  0  0
   -1.5626    2.1023    2.9508 H   0  0  0  0  0  0  0  0  0  0  0  0
    1.8326   -0.5423    4.5019 H   0  0  0  0  0  0  0  0  0  0  0  0
   -0.5677   -2.2365    3.7146 H   0  0  0  0  0  0  0  0  0  0  0  0
   -0.3139   -3.3476    5.8188 H   0  0  0  0  0  0  0  0  0  0  0  0
    0.8229   -1.4492    7.2942 H   0  0  0  0  0  0  0  0  0  0  0  0
    3.0940   -2.5877    7.6646 H   0  0  0  0  0  0  0  0  0  0  0  0
    3.7330   -3.6607    5.3620 H   0  0  0  0  0  0  0  0  0  0  0  0
    2.7346   -4.8087    6.2639 H   0  0  0  0  0  0  0  0  0  0  0  0
    1.1354   -4.6774    4.6245 H   0  0  0  0  0  0  0  0  0  0  0  0
    4.7714   -4.9061   -0.8825 H   0  0  0  0  0  0  0  0  0  0  0  0
    4.4928   -6.5294    0.9874 H   0  0  0  0  0  0  0  0  0  0  0  0
    3.2621   -5.8708    3.0381 H   0  0  0  0  0  0  0  0  0  0  0  0
  1  2  1  0
  1 26  1  0
  1 27  1  0
  1 28  1  0
  2 29  1  0
  2 30  1  0
  2  3  1  0
  3  8  1  0
  3  4  1  0
  4  5  2  0
  4  6  1  0
  6 16  1  0
  6 31  1  1
  6  7  1  0
  7 10  1  0
  7 32  1  6
  7  8  1  0
  8  9  2  0
 10 14  1  0
 10 11  1  0
 10 33  1  1
 11 12  2  0
 11 34  1  0
 12 13  1  0
 12 35  1  0
 13 14  1  0
 13 36  1  0
 13 37  1  0
 14 15  1  0
 14 38  1  6
 15 24  1  0
 15 16  2  0
 16 17  1  0
 17 25  1  0
 17 18  1  0
 18 24  2  0
 18 19  1  0
 19 20  1  0
 19 21  2  0
 21 22  1  0
 21 39  1  0
 22 23  2  0
 22 40  1  0
 23 24  1  0
 23 41  1  0
M  END
>  <i_m_ct_stereo_status>  (262) 
1

>  <s_m_source_file>  (262) 
/var/tmp/pbs.5076255.sched01/tmp2672eyar/80wl2hclo4.sdf

>  <i_m_source_file_index>  (262) 
22

>  <i_lp_mmshare_version>  (262) 
48012

>  <i_f3d_flags>  (262) 
0

>  <s_epik_input>  (262) 
W0NIM11bQ0gyXW4oYzFbT0hdKWMoW09IXSljKGMxMilbQ0BIXTNbQ0BIXShbQ0gyXVtDSF09W0NIXTMpYzRjMltuSF1jNWM0W2NIXVtjSF1bY0hdYzVDbA==

>  <s_epik_cmdline>  (262) 
J2VwaWtfcHl0aG9uJywgJy1waHQnLCAnMi4wJywgJy1waCcsICc3LjAnLCAnLXRuJywgJzgnLCAnLW1hJywgJzIwMCcsICctaW1hZScsICc8aW5maWxlLm1hZT4nLCAnLW9tYWUnLCAnPG91dGZpbGUubWFlPic=

>  <r_lp_tautomer_probability>  (262) 
1

>  <r_epik_Ionization_Penalty>  (262) 
1.77111e-08

>  <r_epik_Ionization_Penalty_Charging>  (262) 
0

>  <r_epik_Ionization_Penalty_Neutral>  (262) 
1.77111e-08

>  <r_epik_State_Penalty>  (262) 
-0

>  <r_epik_Charging_Adjusted_Penalty>  (262) 
0

>  <i_epik_Tot_Q>  (262) 
0

>  <i_epik_Tot_abs_Q>  (262) 
0

>  <s_lp_Force_Field>  (262) 
OPLS3e

>  <r_lp_Energy>  (262) 
15.8762

>  <b_lp_Chiralities_Consistent>  (262) 
1

>  <s_lp_Variant>  (262) 
75:0-2

>  <s_i_glide_gridfile>  (262) 
pfpi4k_grid

>  <i_i_glide_lignum>  (262) 
22

>  <i_i_glide_rotatable_bonds>  (262) 
1

>  <r_i_docking_score>  (262) 
-3.00097

>  <r_i_glide_ligand_efficiency>  (262) 
-0.12504

>  <r_i_glide_ligand_efficiency_sa>  (262) 
-0.360679

>  <r_i_glide_ligand_efficiency_ln>  (262) 
-0.71827

>  <r_i_glide_gscore>  (262) 
-3.00097

>  <r_i_glide_lipo>  (262) 
-0.0628955

>  <r_i_glide_hbond>  (262) 
-0.061966

>  <r_i_glide_metal>  (262) 
-0

>  <r_i_glide_rewards>  (262) 
-1.08543

>  <r_i_glide_evdw>  (262) 
-22.6001

>  <r_i_glide_ecoul>  (262) 
-3.55581

>  <r_i_glide_erotb>  (262) 
0

>  <r_i_glide_esite>  (262) 
-0.127301

>  <r_i_glide_emodel>  (262) 
-30.8641

>  <r_i_glide_energy>  (262) 
-26.1559

>  <r_i_glide_einternal>  (262) 
0.0427791

>  <r_i_glide_intrahb_reward>  (262) 
-0

>  <i_i_glide_confnum>  (262) 
2

>  <i_i_glide_posenum>  (262) 
8

>  <r_i_glide_eff_state_penalty>  (262) 
0

>  <ligand_id>  (262) 
75

>  <original_smiles>  (262) 
CCn1c(O)c2c(c1O)C1C=CCC1c1c-2[nH]c2c(Cl)cccc12

>  <smiles>  (262) 
[H]C1=C([H])C2([H])C3([H])C(=O)N(C([H])([H])C([H])([H])[H])C(=O)C3([H])c3c(c4c([H])c([H])c([H])c(Cl)c4n3[H])C2([H])C1([H])[H]

$$$$
75:1:2
     RDKit          3D

 41 45  0  0  1  0  0  0  0  0999 V2000
   -1.3532    2.3674    2.8349 C   0  0  0  0  0  0  0  0  0  0  0  0
   -0.2057    2.1785    3.8326 C   0  0  0  0  0  0  0  0  0  0  0  0
    0.4793    0.8985    3.6337 N   0  0  0  0  0  0  0  0  0  0  0  0
    1.5643    0.7175    2.8490 C   0  0  0  0  0  0  0  0  0  0  0  0
    2.0745    1.5273    2.0749 O   0  0  0  0  0  0  0  0  0  0  0  0
    2.1566   -0.6534    3.1567 C   0  0  1  0  0  0  0  0  0  0  0  0
    0.9343   -1.3856    3.6714 C   0  0  2  0  0  0  0  0  0  0  0  0
    0.1182   -0.2447    4.2511 C   0  0  0  0  0  0  0  0  0  0  0  0
   -0.7642   -0.3982    5.1004 O   0  0  0  0  0  0  0  0  0  0  0  0
    1.2964   -2.6751    4.4339 C   0  0  2  0  0  0  0  0  0  0  0  0
    2.0181   -2.4690    5.7405 C   0  0  0  0  0  0  0  0  0  0  0  0
    3.1183   -3.2116    5.8334 C   0  0  0  0  0  0  0  0  0  0  0  0
    3.3667   -4.0485    4.6060 C   0  0  0  0  0  0  0  0  0  0  0  0
    2.2787   -3.5883    3.6000 C   0  0  2  0  0  0  0  0  0  0  0  0
    2.8715   -2.8956    2.3751 C   0  0  0  0  0  0  0  0  0  0  0  0
    2.7966   -1.5430    2.1574 C   0  0  0  0  0  0  0  0  0  0  0  0
    3.4221   -1.2110    0.9721 N   0  0  0  0  0  0  0  0  0  0  0  0
    3.9168   -2.3554    0.3741 C   0  0  0  0  0  0  0  0  0  0  0  0
    4.6179   -2.5678   -0.8280 C   0  0  0  0  0  0  0  0  0  0  0  0
    4.9920   -1.2413   -1.8646 Cl  0  0  0  0  0  0  0  0  0  0  0  0
    5.0143   -3.8707   -1.1776 C   0  0  0  0  0  0  0  0  0  0  0  0
    4.7145   -4.9488   -0.3222 C   0  0  0  0  0  0  0  0  0  0  0  0
    4.0062   -4.7319    0.8752 C   0  0  0  0  0  0  0  0  0  0  0  0
    3.5884   -3.4352    1.2532 C   0  0  0  0  0  0  0  0  0  0  0  0
    3.4651   -0.2695    0.6008 H   0  0  0  0  0  0  0  0  0  0  0  0
   -1.8545    3.3220    2.9955 H   0  0  0  0  0  0  0  0  0  0  0  0
   -2.0987    1.5783    2.9248 H   0  0  0  0  0  0  0  0  0  0  0  0
   -0.9766    2.3534    1.8125 H   0  0  0  0  0  0  0  0  0  0  0  0
    0.5038    3.0013    3.7374 H   0  0  0  0  0  0  0  0  0  0  0  0
   -0.5950    2.2376    4.8504 H   0  0  0  0  0  0  0  0  0  0  0  0
    2.8765   -0.4893    3.9613 H   0  0  0  0  0  0  0  0  0  0  0  0
    0.3416   -1.7118    2.8163 H   0  0  0  0  0  0  0  0  0  0  0  0
    0.3828   -3.2273    4.6615 H   0  0  0  0  0  0  0  0  0  0  0  0
    1.6553   -1.8005    6.5063 H   0  0  0  0  0  0  0  0  0  0  0  0
    3.7726   -3.2465    6.6926 H   0  0  0  0  0  0  0  0  0  0  0  0
    4.3861   -3.9218    4.2357 H   0  0  0  0  0  0  0  0  0  0  0  0
    3.2292   -5.0970    4.8736 H   0  0  0  0  0  0  0  0  0  0  0  0
    1.7259   -4.4636    3.2603 H   0  0  0  0  0  0  0  0  0  0  0  0
    5.5474   -4.0461   -2.1028 H   0  0  0  0  0  0  0  0  0  0  0  0
    5.0094   -5.9511   -0.6008 H   0  0  0  0  0  0  0  0  0  0  0  0
    3.7740   -5.5698    1.5151 H   0  0  0  0  0  0  0  0  0  0  0  0
  1  2  1  0
  1 26  1  0
  1 27  1  0
  1 28  1  0
  2 29  1  0
  2 30  1  0
  2  3  1  0
  3  8  1  0
  3  4  1  0
  4  5  2  0
  4  6  1  0
  6 16  1  0
  6 31  1  1
  6  7  1  0
  7 10  1  0
  7 32  1  6
  7  8  1  0
  8  9  2  0
 10 14  1  0
 10 11  1  0
 10 33  1  1
 11 12  2  0
 11 34  1  0
 12 13  1  0
 12 35  1  0
 13 14  1  0
 13 36  1  0
 13 37  1  0
 14 15  1  0
 14 38  1  6
 15 24  1  0
 15 16  2  0
 16 17  1  0
 17 25  1  0
 17 18  1  0
 18 24  2  0
 18 19  1  0
 19 20  1  0
 19 21  2  0
 21 22  1  0
 21 39  1  0
 22 23  2  0
 22 40  1  0
 23 24  1  0
 23 41  1  0
M  END
>  <i_m_ct_stereo_status>  (263) 
1

>  <s_m_source_file>  (263) 
/var/tmp/pbs.5076255.sched01/tmp2672eyar/80wl2hclo4.sdf

>  <i_m_source_file_index>  (263) 
22

>  <i_lp_mmshare_version>  (263) 
48012

>  <i_f3d_flags>  (263) 
0

>  <s_epik_input>  (263) 
W0NIM11bQ0gyXW4oYzFbT0hdKWMoW09IXSljKGMxMilbQ0BIXTNbQ0BIXShbQ0gyXVtDSF09W0NIXTMpYzRjMltuSF1jNWM0W2NIXVtjSF1bY0hdYzVDbA==

>  <s_epik_cmdline>  (263) 
J2VwaWtfcHl0aG9uJywgJy1waHQnLCAnMi4wJywgJy1waCcsICc3LjAnLCAnLXRuJywgJzgnLCAnLW1hJywgJzIwMCcsICctaW1hZScsICc8aW5maWxlLm1hZT4nLCAnLW9tYWUnLCAnPG91dGZpbGUubWFlPic=

>  <r_lp_tautomer_probability>  (263) 
1

>  <r_epik_Ionization_Penalty>  (263) 
1.77111e-08

>  <r_epik_Ionization_Penalty_Charging>  (263) 
0

>  <r_epik_Ionization_Penalty_Neutral>  (263) 
1.77111e-08

>  <r_epik_State_Penalty>  (263) 
-0

>  <r_epik_Charging_Adjusted_Penalty>  (263) 
0

>  <i_epik_Tot_Q>  (263) 
0

>  <i_epik_Tot_abs_Q>  (263) 
0

>  <s_lp_Force_Field>  (263) 
OPLS3e

>  <r_lp_Energy>  (263) 
15.8762

>  <b_lp_Chiralities_Consistent>  (263) 
1

>  <s_lp_Variant>  (263) 
75:0-2

>  <s_i_glide_gridfile>  (263) 
pfpi4k_grid

>  <i_i_glide_lignum>  (263) 
22

>  <i_i_glide_rotatable_bonds>  (263) 
1

>  <r_i_docking_score>  (263) 
-2.67594

>  <r_i_glide_ligand_efficiency>  (263) 
-0.111498

>  <r_i_glide_ligand_efficiency_sa>  (263) 
-0.321615

>  <r_i_glide_ligand_efficiency_ln>  (263) 
-0.640476

>  <r_i_glide_gscore>  (263) 
-2.67594

>  <r_i_glide_lipo>  (263) 
-0.0383214

>  <r_i_glide_hbond>  (263) 
0

>  <r_i_glide_metal>  (263) 
-0

>  <r_i_glide_rewards>  (263) 
-1.08543

>  <r_i_glide_evdw>  (263) 
-23.7487

>  <r_i_glide_ecoul>  (263) 
-1.80798

>  <r_i_glide_erotb>  (263) 
0

>  <r_i_glide_esite>  (263) 
-0.0935586

>  <r_i_glide_emodel>  (263) 
-29.7545

>  <r_i_glide_energy>  (263) 
-25.5567

>  <r_i_glide_einternal>  (263) 
0.000179288

>  <r_i_glide_intrahb_reward>  (263) 
-0

>  <i_i_glide_confnum>  (263) 
2

>  <i_i_glide_posenum>  (263) 
35

>  <r_i_glide_eff_state_penalty>  (263) 
0

>  <ligand_id>  (263) 
75

>  <original_smiles>  (263) 
CCn1c(O)c2c(c1O)C1C=CCC1c1c-2[nH]c2c(Cl)cccc12

>  <smiles>  (263) 
[H]C1=C([H])C2([H])C3([H])C(=O)N(C([H])([H])C([H])([H])[H])C(=O)C3([H])c3c(c4c([H])c([H])c([H])c(Cl)c4n3[H])C2([H])C1([H])[H]

$$$$
75:2:0
     RDKit          3D

 41 45  0  0  1  0  0  0  0  0999 V2000
   -1.8800    2.6963    3.2359 C   0  0  0  0  0  0  0  0  0  0  0  0
   -0.4391    2.6034    3.7628 C   0  0  0  0  0  0  0  0  0  0  0  0
    0.0998    1.2440    3.6512 N   0  0  0  0  0  0  0  0  0  0  0  0
    0.9944    0.8443    2.7194 C   0  0  0  0  0  0  0  0  0  0  0  0
    1.5972    1.5411    1.9046 O   0  0  0  0  0  0  0  0  0  0  0  0
    1.0963   -0.6727    2.7711 C   0  0  2  0  0  0  0  0  0  0  0  0
    0.6856   -0.9463    4.2012 C   0  0  1  0  0  0  0  0  0  0  0  0
   -0.2358    0.2319    4.4788 C   0  0  0  0  0  0  0  0  0  0  0  0
   -1.0985    0.2318    5.3638 O   0  0  0  0  0  0  0  0  0  0  0  0
    0.2810   -2.4241    4.3674 C   0  0  2  0  0  0  0  0  0  0  0  0
    0.0341   -2.8078    5.7993 C   0  0  0  0  0  0  0  0  0  0  0  0
    0.9454   -3.6632    6.2555 C   0  0  0  0  0  0  0  0  0  0  0  0
    1.9980   -3.9966    5.2302 C   0  0  0  0  0  0  0  0  0  0  0  0
    1.4501   -3.3795    3.9180 C   0  0  2  0  0  0  0  0  0  0  0  0
    2.5024   -2.7027    3.0489 C   0  0  0  0  0  0  0  0  0  0  0  0
    2.3409   -1.4443    2.5258 C   0  0  0  0  0  0  0  0  0  0  0  0
    3.4191   -1.1129    1.7326 N   0  0  0  0  0  0  0  0  0  0  0  0
    4.3234   -2.1602    1.7205 C   0  0  0  0  0  0  0  0  0  0  0  0
    5.5598   -2.3295    1.0746 C   0  0  0  0  0  0  0  0  0  0  0  0
    6.1973   -1.0677    0.0909 Cl  0  0  0  0  0  0  0  0  0  0  0  0
    6.2736   -3.5313    1.2406 C   0  0  0  0  0  0  0  0  0  0  0  0
    5.7412   -4.5578    2.0439 C   0  0  0  0  0  0  0  0  0  0  0  0
    4.4981   -4.3831    2.6848 C   0  0  0  0  0  0  0  0  0  0  0  0
    3.7604   -3.1821    2.5474 C   0  0  0  0  0  0  0  0  0  0  0  0
    3.4912   -0.2414    1.2200 H   0  0  0  0  0  0  0  0  0  0  0  0
   -2.2558    3.7151    3.3237 H   0  0  0  0  0  0  0  0  0  0  0  0
   -2.5573    2.0470    3.7911 H   0  0  0  0  0  0  0  0  0  0  0  0
   -1.9360    2.4100    2.1856 H   0  0  0  0  0  0  0  0  0  0  0  0
    0.1869    3.3124    3.2190 H   0  0  0  0  0  0  0  0  0  0  0  0
   -0.4073    2.9164    4.8073 H   0  0  0  0  0  0  0  0  0  0  0  0
    0.3402   -1.0353    2.0759 H   0  0  0  0  0  0  0  0  0  0  0  0
    1.5458   -0.7737    4.8554 H   0  0  0  0  0  0  0  0  0  0  0  0
   -0.6001   -2.6263    3.7694 H   0  0  0  0  0  0  0  0  0  0  0  0
   -0.8048   -2.4329    6.3628 H   0  0  0  0  0  0  0  0  0  0  0  0
    0.9637   -4.0806    7.2516 H   0  0  0  0  0  0  0  0  0  0  0  0
    2.9317   -3.5262    5.5461 H   0  0  0  0  0  0  0  0  0  0  0  0
    2.1637   -5.0716    5.1468 H   0  0  0  0  0  0  0  0  0  0  0  0
    0.9983   -4.1952    3.3525 H   0  0  0  0  0  0  0  0  0  0  0  0
    7.2324   -3.6631    0.7578 H   0  0  0  0  0  0  0  0  0  0  0  0
    6.2872   -5.4830    2.1743 H   0  0  0  0  0  0  0  0  0  0  0  0
    4.0947   -5.1784    3.2929 H   0  0  0  0  0  0  0  0  0  0  0  0
  1  2  1  0
  1 26  1  0
  1 27  1  0
  1 28  1  0
  2 29  1  0
  2 30  1  0
  2  3  1  0
  3  8  1  0
  3  4  1  0
  4  5  2  0
  4  6  1  0
  6 16  1  0
  6 31  1  6
  6  7  1  0
  7 10  1  0
  7 32  1  1
  7  8  1  0
  8  9  2  0
 10 14  1  0
 10 11  1  0
 10 33  1  6
 11 12  2  0
 11 34  1  0
 12 13  1  0
 12 35  1  0
 13 14  1  0
 13 36  1  0
 13 37  1  0
 14 15  1  0
 14 38  1  6
 15 24  1  0
 15 16  2  0
 16 17  1  0
 17 25  1  0
 17 18  1  0
 18 24  2  0
 18 19  1  0
 19 20  1  0
 19 21  2  0
 21 22  1  0
 21 39  1  0
 22 23  2  0
 22 40  1  0
 23 24  1  0
 23 41  1  0
M  END
>  <i_m_ct_stereo_status>  (264) 
1

>  <s_m_source_file>  (264) 
/var/tmp/pbs.5076255.sched01/tmp2672eyar/80wl2hclo4.sdf

>  <i_m_source_file_index>  (264) 
23

>  <i_lp_mmshare_version>  (264) 
48012

>  <i_f3d_flags>  (264) 
0

>  <s_epik_input>  (264) 
W0NIM11bQ0gyXW4oYzFbT0hdKWMoW09IXSljKGMxMilbQ0BIXTNbQ0BIXShbQ0gyXVtDSF09W0NIXTMpYzRjMltuSF1jNWM0W2NIXVtjSF1bY0hdYzVDbA==

>  <s_epik_cmdline>  (264) 
J2VwaWtfcHl0aG9uJywgJy1waHQnLCAnMi4wJywgJy1waCcsICc3LjAnLCAnLXRuJywgJzgnLCAnLW1hJywgJzIwMCcsICctaW1hZScsICc8aW5maWxlLm1hZT4nLCAnLW9tYWUnLCAnPG91dGZpbGUubWFlPic=

>  <r_lp_tautomer_probability>  (264) 
1

>  <r_epik_Ionization_Penalty>  (264) 
1.77111e-08

>  <r_epik_Ionization_Penalty_Charging>  (264) 
0

>  <r_epik_Ionization_Penalty_Neutral>  (264) 
1.77111e-08

>  <r_epik_State_Penalty>  (264) 
-0

>  <r_epik_Charging_Adjusted_Penalty>  (264) 
0

>  <i_epik_Tot_Q>  (264) 
0

>  <i_epik_Tot_abs_Q>  (264) 
0

>  <s_lp_Force_Field>  (264) 
OPLS3e

>  <r_lp_Energy>  (264) 
15.9864

>  <b_lp_Chiralities_Consistent>  (264) 
1

>  <s_lp_Variant>  (264) 
75:0-3

>  <s_i_glide_gridfile>  (264) 
pfpi4k_grid

>  <i_i_glide_lignum>  (264) 
23

>  <i_i_glide_rotatable_bonds>  (264) 
1

>  <r_i_docking_score>  (264) 
-2.95838

>  <r_i_glide_ligand_efficiency>  (264) 
-0.123266

>  <r_i_glide_ligand_efficiency_sa>  (264) 
-0.355561

>  <r_i_glide_ligand_efficiency_ln>  (264) 
-0.708077

>  <r_i_glide_gscore>  (264) 
-2.95838

>  <r_i_glide_lipo>  (264) 
-0.305299

>  <r_i_glide_hbond>  (264) 
0

>  <r_i_glide_metal>  (264) 
-0

>  <r_i_glide_rewards>  (264) 
-1.08543

>  <r_i_glide_evdw>  (264) 
-22.6662

>  <r_i_glide_ecoul>  (264) 
-2.30744

>  <r_i_glide_erotb>  (264) 
0

>  <r_i_glide_esite>  (264) 
-0.0882264

>  <r_i_glide_emodel>  (264) 
-29.1973

>  <r_i_glide_energy>  (264) 
-24.9736

>  <r_i_glide_einternal>  (264) 
0.177262

>  <r_i_glide_intrahb_reward>  (264) 
-0

>  <i_i_glide_confnum>  (264) 
2

>  <i_i_glide_posenum>  (264) 
19

>  <r_i_glide_eff_state_penalty>  (264) 
0

>  <ligand_id>  (264) 
75

>  <original_smiles>  (264) 
CCn1c(O)c2c(c1O)C1C=CCC1c1c-2[nH]c2c(Cl)cccc12

>  <smiles>  (264) 
[H]C1=C([H])C2([H])C3([H])C(=O)N(C([H])([H])C([H])([H])[H])C(=O)C3([H])c3c(c4c([H])c([H])c([H])c(Cl)c4n3[H])C2([H])C1([H])[H]

$$$$
75:2:1
     RDKit          3D

 41 45  0  0  1  0  0  0  0  0999 V2000
    4.8549   -3.5687   -3.0445 C   0  0  0  0  0  0  0  0  0  0  0  0
    5.6089   -2.9750   -1.8484 C   0  0  0  0  0  0  0  0  0  0  0  0
    4.8418   -3.0974   -0.6049 N   0  0  0  0  0  0  0  0  0  0  0  0
    4.2913   -2.0612    0.0611 C   0  0  0  0  0  0  0  0  0  0  0  0
    4.2390   -0.8866   -0.3029 O   0  0  0  0  0  0  0  0  0  0  0  0
    3.8711   -2.5443    1.4428 C   0  0  2  0  0  0  0  0  0  0  0  0
    3.6687   -4.0208    1.1889 C   0  0  1  0  0  0  0  0  0  0  0  0
    4.6454   -4.2622    0.0484 C   0  0  0  0  0  0  0  0  0  0  0  0
    5.1300   -5.3630   -0.2193 O   0  0  0  0  0  0  0  0  0  0  0  0
    3.6797   -4.7996    2.5216 C   0  0  2  0  0  0  0  0  0  0  0  0
    3.2977   -6.2442    2.3502 C   0  0  0  0  0  0  0  0  0  0  0  0
    2.1249   -6.5295    2.9107 C   0  0  0  0  0  0  0  0  0  0  0  0
    1.4732   -5.3265    3.5406 C   0  0  0  0  0  0  0  0  0  0  0  0
    2.5756   -4.2371    3.4982 C   0  0  2  0  0  0  0  0  0  0  0  0
    2.0740   -2.8430    3.1344 C   0  0  0  0  0  0  0  0  0  0  0  0
    2.6722   -2.0630    2.1759 C   0  0  0  0  0  0  0  0  0  0  0  0
    2.0487   -0.8345    2.1010 N   0  0  0  0  0  0  0  0  0  0  0  0
    1.0137   -0.7827    3.0168 C   0  0  0  0  0  0  0  0  0  0  0  0
    0.0836    0.2224    3.3344 C   0  0  0  0  0  0  0  0  0  0  0  0
    0.1095    1.7215    2.4876 Cl  0  0  0  0  0  0  0  0  0  0  0  0
   -0.8782   -0.0078    4.3355 C   0  0  0  0  0  0  0  0  0  0  0  0
   -0.8975   -1.2398    5.0176 C   0  0  0  0  0  0  0  0  0  0  0  0
    0.0415   -2.2422    4.6982 C   0  0  0  0  0  0  0  0  0  0  0  0
    1.0133   -2.0462    3.6869 C   0  0  0  0  0  0  0  0  0  0  0  0
    2.3154   -0.1042    1.4495 H   0  0  0  0  0  0  0  0  0  0  0  0
    5.4495   -3.4733   -3.9483 H   0  0  0  0  0  0  0  0  0  0  0  0
    3.9018   -3.0642   -3.2053 H   0  0  0  0  0  0  0  0  0  0  0  0
    4.6506   -4.6301   -2.9043 H   0  0  0  0  0  0  0  0  0  0  0  0
    6.5700   -3.4768   -1.7297 H   0  0  0  0  0  0  0  0  0  0  0  0
    5.8456   -1.9318   -2.0584 H   0  0  0  0  0  0  0  0  0  0  0  0
    4.7399   -2.3904    2.0867 H   0  0  0  0  0  0  0  0  0  0  0  0
    2.6864   -4.1703    0.7309 H   0  0  0  0  0  0  0  0  0  0  0  0
    4.6636   -4.7281    2.9885 H   0  0  0  0  0  0  0  0  0  0  0  0
    3.9341   -6.9555    1.8462 H   0  0  0  0  0  0  0  0  0  0  0  0
    1.6652   -7.5078    2.9231 H   0  0  0  0  0  0  0  0  0  0  0  0
    0.6153   -5.0572    2.9247 H   0  0  0  0  0  0  0  0  0  0  0  0
    1.1265   -5.5296    4.5553 H   0  0  0  0  0  0  0  0  0  0  0  0
    3.0177   -4.2007    4.4940 H   0  0  0  0  0  0  0  0  0  0  0  0
   -1.6040    0.7601    4.5685 H   0  0  0  0  0  0  0  0  0  0  0  0
   -1.6366   -1.4225    5.7828 H   0  0  0  0  0  0  0  0  0  0  0  0
    0.0259   -3.1830    5.2254 H   0  0  0  0  0  0  0  0  0  0  0  0
  1  2  1  0
  1 26  1  0
  1 27  1  0
  1 28  1  0
  2 29  1  0
  2 30  1  0
  2  3  1  0
  3  8  1  0
  3  4  1  0
  4  5  2  0
  4  6  1  0
  6 16  1  0
  6 31  1  1
  6  7  1  0
  7 10  1  0
  7 32  1  6
  7  8  1  0
  8  9  2  0
 10 14  1  0
 10 11  1  0
 10 33  1  1
 11 12  2  0
 11 34  1  0
 12 13  1  0
 12 35  1  0
 13 14  1  0
 13 36  1  0
 13 37  1  0
 14 15  1  0
 14 38  1  1
 15 24  1  0
 15 16  2  0
 16 17  1  0
 17 25  1  0
 17 18  1  0
 18 24  2  0
 18 19  1  0
 19 20  1  0
 19 21  2  0
 21 22  1  0
 21 39  1  0
 22 23  2  0
 22 40  1  0
 23 24  1  0
 23 41  1  0
M  END
>  <i_m_ct_stereo_status>  (265) 
1

>  <s_m_source_file>  (265) 
/var/tmp/pbs.5076255.sched01/tmp2672eyar/80wl2hclo4.sdf

>  <i_m_source_file_index>  (265) 
23

>  <i_lp_mmshare_version>  (265) 
48012

>  <i_f3d_flags>  (265) 
0

>  <s_epik_input>  (265) 
W0NIM11bQ0gyXW4oYzFbT0hdKWMoW09IXSljKGMxMilbQ0BIXTNbQ0BIXShbQ0gyXVtDSF09W0NIXTMpYzRjMltuSF1jNWM0W2NIXVtjSF1bY0hdYzVDbA==

>  <s_epik_cmdline>  (265) 
J2VwaWtfcHl0aG9uJywgJy1waHQnLCAnMi4wJywgJy1waCcsICc3LjAnLCAnLXRuJywgJzgnLCAnLW1hJywgJzIwMCcsICctaW1hZScsICc8aW5maWxlLm1hZT4nLCAnLW9tYWUnLCAnPG91dGZpbGUubWFlPic=

>  <r_lp_tautomer_probability>  (265) 
1

>  <r_epik_Ionization_Penalty>  (265) 
1.77111e-08

>  <r_epik_Ionization_Penalty_Charging>  (265) 
0

>  <r_epik_Ionization_Penalty_Neutral>  (265) 
1.77111e-08

>  <r_epik_State_Penalty>  (265) 
-0

>  <r_epik_Charging_Adjusted_Penalty>  (265) 
0

>  <i_epik_Tot_Q>  (265) 
0

>  <i_epik_Tot_abs_Q>  (265) 
0

>  <s_lp_Force_Field>  (265) 
OPLS3e

>  <r_lp_Energy>  (265) 
15.9864

>  <b_lp_Chiralities_Consistent>  (265) 
1

>  <s_lp_Variant>  (265) 
75:0-3

>  <s_i_glide_gridfile>  (265) 
pfpi4k_grid

>  <i_i_glide_lignum>  (265) 
23

>  <i_i_glide_rotatable_bonds>  (265) 
1

>  <r_i_docking_score>  (265) 
-2.57588

>  <r_i_glide_ligand_efficiency>  (265) 
-0.107329

>  <r_i_glide_ligand_efficiency_sa>  (265) 
-0.309589

>  <r_i_glide_ligand_efficiency_ln>  (265) 
-0.616527

>  <r_i_glide_gscore>  (265) 
-2.57588

>  <r_i_glide_lipo>  (265) 
-0.255027

>  <r_i_glide_hbond>  (265) 
0

>  <r_i_glide_metal>  (265) 
-0

>  <r_i_glide_rewards>  (265) 
-1.15428

>  <r_i_glide_evdw>  (265) 
-25.9357

>  <r_i_glide_ecoul>  (265) 
1.28832

>  <r_i_glide_erotb>  (265) 
0

>  <r_i_glide_esite>  (265) 
-0.0630403

>  <r_i_glide_emodel>  (265) 
-28.2365

>  <r_i_glide_energy>  (265) 
-24.6474

>  <r_i_glide_einternal>  (265) 
0.295375

>  <r_i_glide_intrahb_reward>  (265) 
-0

>  <i_i_glide_confnum>  (265) 
2

>  <i_i_glide_posenum>  (265) 
39

>  <r_i_glide_eff_state_penalty>  (265) 
0

>  <ligand_id>  (265) 
75

>  <original_smiles>  (265) 
CCn1c(O)c2c(c1O)C1C=CCC1c1c-2[nH]c2c(Cl)cccc12

>  <smiles>  (265) 
[H]C1=C([H])C2([H])C3([H])C(=O)N(C([H])([H])C([H])([H])[H])C(=O)C3([H])c3c(c4c([H])c([H])c([H])c(Cl)c4n3[H])C2([H])C1([H])[H]

$$$$
75:2:2
     RDKit          3D

 41 45  0  0  1  0  0  0  0  0999 V2000
    7.4110   -2.6484   -1.2032 C   0  0  0  0  0  0  0  0  0  0  0  0
    5.9056   -2.6615   -1.5212 C   0  0  0  0  0  0  0  0  0  0  0  0
    5.0859   -2.8760   -0.3231 N   0  0  0  0  0  0  0  0  0  0  0  0
    4.5006   -1.8935    0.3957 C   0  0  0  0  0  0  0  0  0  0  0  0
    4.4651   -0.6935    0.1251 O   0  0  0  0  0  0  0  0  0  0  0  0
    3.9906   -2.4897    1.7018 C   0  0  2  0  0  0  0  0  0  0  0  0
    3.8002   -3.9384    1.3128 C   0  0  1  0  0  0  0  0  0  0  0  0
    4.8446   -4.0898    0.2143 C   0  0  0  0  0  0  0  0  0  0  0  0
    5.3376   -5.1677   -0.1223 O   0  0  0  0  0  0  0  0  0  0  0  0
    3.7277   -4.8249    2.5754 C   0  0  2  0  0  0  0  0  0  0  0  0
    3.3500   -6.2469    2.2631 C   0  0  0  0  0  0  0  0  0  0  0  0
    2.1452   -6.5683    2.7290 C   0  0  0  0  0  0  0  0  0  0  0  0
    1.4613   -5.4171    3.4200 C   0  0  0  0  0  0  0  0  0  0  0  0
    2.5686   -4.3362    3.5290 C   0  0  2  0  0  0  0  0  0  0  0  0
    2.0938   -2.9123    3.2529 C   0  0  0  0  0  0  0  0  0  0  0  0
    2.7484   -2.0611    2.3987 C   0  0  0  0  0  0  0  0  0  0  0  0
    2.1335   -0.8249    2.3907 N   0  0  0  0  0  0  0  0  0  0  0  0
    1.0457   -0.8421    3.2460 C   0  0  0  0  0  0  0  0  0  0  0  0
    0.1004    0.1405    3.5907 C   0  0  0  0  0  0  0  0  0  0  0  0
    0.1832    1.7063    2.8786 Cl  0  0  0  0  0  0  0  0  0  0  0  0
   -0.9193   -0.1658    4.5114 C   0  0  0  0  0  0  0  0  0  0  0  0
   -0.9785   -1.4476    5.0905 C   0  0  0  0  0  0  0  0  0  0  0  0
   -0.0204   -2.4241    4.7481 C   0  0  0  0  0  0  0  0  0  0  0  0
    1.0066   -2.1542    3.8109 C   0  0  0  0  0  0  0  0  0  0  0  0
    2.4466   -0.0417    1.8289 H   0  0  0  0  0  0  0  0  0  0  0  0
    7.9959   -2.4938   -2.1100 H   0  0  0  0  0  0  0  0  0  0  0  0
    7.7356   -3.5961   -0.7729 H   0  0  0  0  0  0  0  0  0  0  0  0
    7.6680   -1.8626   -0.4927 H   0  0  0  0  0  0  0  0  0  0  0  0
    5.6257   -1.7262   -2.0069 H   0  0  0  0  0  0  0  0  0  0  0  0
    5.6920   -3.4485   -2.2472 H   0  0  0  0  0  0  0  0  0  0  0  0
    4.8175   -2.3981    2.4092 H   0  0  0  0  0  0  0  0  0  0  0  0
    2.8457   -4.0424    0.7873 H   0  0  0  0  0  0  0  0  0  0  0  0
    4.6832   -4.8024    3.1034 H   0  0  0  0  0  0  0  0  0  0  0  0
    4.0120   -6.9201    1.7405 H   0  0  0  0  0  0  0  0  0  0  0  0
    1.6846   -7.5415    2.6341 H   0  0  0  0  0  0  0  0  0  0  0  0
    0.6320   -5.0937    2.7889 H   0  0  0  0  0  0  0  0  0  0  0  0
    1.0621   -5.7029    4.3949 H   0  0  0  0  0  0  0  0  0  0  0  0
    2.9531   -4.3844    4.5476 H   0  0  0  0  0  0  0  0  0  0  0  0
   -1.6556    0.5865    4.7637 H   0  0  0  0  0  0  0  0  0  0  0  0
   -1.7639   -1.6926    5.7898 H   0  0  0  0  0  0  0  0  0  0  0  0
   -0.0710   -3.4066    5.1897 H   0  0  0  0  0  0  0  0  0  0  0  0
  1  2  1  0
  1 26  1  0
  1 27  1  0
  1 28  1  0
  2 29  1  0
  2 30  1  0
  2  3  1  0
  3  8  1  0
  3  4  1  0
  4  5  2  0
  4  6  1  0
  6 16  1  0
  6 31  1  1
  6  7  1  0
  7 10  1  0
  7 32  1  6
  7  8  1  0
  8  9  2  0
 10 14  1  0
 10 11  1  0
 10 33  1  1
 11 12  2  0
 11 34  1  0
 12 13  1  0
 12 35  1  0
 13 14  1  0
 13 36  1  0
 13 37  1  0
 14 15  1  0
 14 38  1  1
 15 24  1  0
 15 16  2  0
 16 17  1  0
 17 25  1  0
 17 18  1  0
 18 24  2  0
 18 19  1  0
 19 20  1  0
 19 21  2  0
 21 22  1  0
 21 39  1  0
 22 23  2  0
 22 40  1  0
 23 24  1  0
 23 41  1  0
M  END
>  <i_m_ct_stereo_status>  (266) 
1

>  <s_m_source_file>  (266) 
/var/tmp/pbs.5076255.sched01/tmp2672eyar/80wl2hclo4.sdf

>  <i_m_source_file_index>  (266) 
23

>  <i_lp_mmshare_version>  (266) 
48012

>  <i_f3d_flags>  (266) 
0

>  <s_epik_input>  (266) 
W0NIM11bQ0gyXW4oYzFbT0hdKWMoW09IXSljKGMxMilbQ0BIXTNbQ0BIXShbQ0gyXVtDSF09W0NIXTMpYzRjMltuSF1jNWM0W2NIXVtjSF1bY0hdYzVDbA==

>  <s_epik_cmdline>  (266) 
J2VwaWtfcHl0aG9uJywgJy1waHQnLCAnMi4wJywgJy1waCcsICc3LjAnLCAnLXRuJywgJzgnLCAnLW1hJywgJzIwMCcsICctaW1hZScsICc8aW5maWxlLm1hZT4nLCAnLW9tYWUnLCAnPG91dGZpbGUubWFlPic=

>  <r_lp_tautomer_probability>  (266) 
1

>  <r_epik_Ionization_Penalty>  (266) 
1.77111e-08

>  <r_epik_Ionization_Penalty_Charging>  (266) 
0

>  <r_epik_Ionization_Penalty_Neutral>  (266) 
1.77111e-08

>  <r_epik_State_Penalty>  (266) 
-0

>  <r_epik_Charging_Adjusted_Penalty>  (266) 
0

>  <i_epik_Tot_Q>  (266) 
0

>  <i_epik_Tot_abs_Q>  (266) 
0

>  <s_lp_Force_Field>  (266) 
OPLS3e

>  <r_lp_Energy>  (266) 
15.9864

>  <b_lp_Chiralities_Consistent>  (266) 
1

>  <s_lp_Variant>  (266) 
75:0-3

>  <s_i_glide_gridfile>  (266) 
pfpi4k_grid

>  <i_i_glide_lignum>  (266) 
23

>  <i_i_glide_rotatable_bonds>  (266) 
1

>  <r_i_docking_score>  (266) 
-2.33524

>  <r_i_glide_ligand_efficiency>  (266) 
-0.0973018

>  <r_i_glide_ligand_efficiency_sa>  (266) 
-0.280667

>  <r_i_glide_ligand_efficiency_ln>  (266) 
-0.558931

>  <r_i_glide_gscore>  (266) 
-2.33524

>  <r_i_glide_lipo>  (266) 
-0.0723469

>  <r_i_glide_hbond>  (266) 
0

>  <r_i_glide_metal>  (266) 
-0

>  <r_i_glide_rewards>  (266) 
-1.15878

>  <r_i_glide_evdw>  (266) 
-25.1983

>  <r_i_glide_ecoul>  (266) 
1.23321

>  <r_i_glide_erotb>  (266) 
0

>  <r_i_glide_esite>  (266) 
-0.0291814

>  <r_i_glide_emodel>  (266) 
-27.3319

>  <r_i_glide_energy>  (266) 
-23.9651

>  <r_i_glide_einternal>  (266) 
0.0589124

>  <r_i_glide_intrahb_reward>  (266) 
-0

>  <i_i_glide_confnum>  (266) 
1

>  <i_i_glide_posenum>  (266) 
17

>  <r_i_glide_eff_state_penalty>  (266) 
0

>  <ligand_id>  (266) 
75

>  <original_smiles>  (266) 
CCn1c(O)c2c(c1O)C1C=CCC1c1c-2[nH]c2c(Cl)cccc12

>  <smiles>  (266) 
[H]C1=C([H])C2([H])C3([H])C(=O)N(C([H])([H])C([H])([H])[H])C(=O)C3([H])c3c(c4c([H])c([H])c([H])c(Cl)c4n3[H])C2([H])C1([H])[H]

$$$$
75:3:0
     RDKit          3D

 41 45  0  0  1  0  0  0  0  0999 V2000
    3.4196   -2.3150   -0.3966 C   0  0  0  0  0  0  0  0  0  0  0  0
    3.1659   -2.9858    0.9637 C   0  0  0  0  0  0  0  0  0  0  0  0
    3.7034   -4.3542    1.0176 N   0  0  0  0  0  0  0  0  0  0  0  0
    3.0256   -5.4505    0.6439 C   0  0  0  0  0  0  0  0  0  0  0  0
    1.8816   -5.4710    0.1733 O   0  0  0  0  0  0  0  0  0  0  0  0
    3.8488   -6.7177    0.9149 C   0  0  1  0  0  0  0  0  0  0  0  0
    5.2555   -6.1421    1.1990 C   0  0  1  0  0  0  0  0  0  0  0  0
    4.9393   -4.6605    1.4415 C   0  0  0  0  0  0  0  0  0  0  0  0
    5.7542   -3.8742    1.9297 O   0  0  0  0  0  0  0  0  0  0  0  0
    6.0810   -6.8156    2.3363 C   0  0  2  0  0  0  0  0  0  0  0  0
    6.8298   -8.0450    1.8808 C   0  0  0  0  0  0  0  0  0  0  0  0
    6.8772   -8.9847    2.8201 C   0  0  0  0  0  0  0  0  0  0  0  0
    6.1518   -8.5636    4.0659 C   0  0  0  0  0  0  0  0  0  0  0  0
    5.3199   -7.3388    3.5967 C   0  0  2  0  0  0  0  0  0  0  0  0
    3.8962   -7.7201    3.2788 C   0  0  0  0  0  0  0  0  0  0  0  0
    3.2760   -7.4611    2.0841 C   0  0  0  0  0  0  0  0  0  0  0  0
    2.0026   -8.0048    2.1068 N   0  0  0  0  0  0  0  0  0  0  0  0
    1.7509   -8.5973    3.3274 C   0  0  0  0  0  0  0  0  0  0  0  0
    0.6224   -9.2573    3.8394 C   0  0  0  0  0  0  0  0  0  0  0  0
   -0.7957   -9.4167    2.8720 Cl  0  0  0  0  0  0  0  0  0  0  0  0
    0.6602   -9.7678    5.1519 C   0  0  0  0  0  0  0  0  0  0  0  0
    1.8130   -9.6036    5.9367 C   0  0  0  0  0  0  0  0  0  0  0  0
    2.9381   -8.9414    5.4120 C   0  0  0  0  0  0  0  0  0  0  0  0
    2.9379   -8.4201    4.0936 C   0  0  0  0  0  0  0  0  0  0  0  0
    1.3540   -7.9667    1.3317 H   0  0  0  0  0  0  0  0  0  0  0  0
    3.0165   -1.3013   -0.4066 H   0  0  0  0  0  0  0  0  0  0  0  0
    2.9382   -2.8583   -1.2116 H   0  0  0  0  0  0  0  0  0  0  0  0
    4.4844   -2.2474   -0.6259 H   0  0  0  0  0  0  0  0  0  0  0  0
    3.6061   -2.3726    1.7502 H   0  0  0  0  0  0  0  0  0  0  0  0
    2.0961   -2.9908    1.1665 H   0  0  0  0  0  0  0  0  0  0  0  0
    3.8786   -7.3589    0.0387 H   0  0  0  0  0  0  0  0  0  0  0  0
    5.8392   -6.1564    0.2712 H   0  0  0  0  0  0  0  0  0  0  0  0
    6.8712   -6.1349    2.6653 H   0  0  0  0  0  0  0  0  0  0  0  0
    7.2797   -8.1280    0.9041 H   0  0  0  0  0  0  0  0  0  0  0  0
    7.3836   -9.9342    2.7329 H   0  0  0  0  0  0  0  0  0  0  0  0
    5.5799   -9.3778    4.5158 H   0  0  0  0  0  0  0  0  0  0  0  0
    6.9185   -8.2539    4.7775 H   0  0  0  0  0  0  0  0  0  0  0  0
    5.3145   -6.5754    4.3747 H   0  0  0  0  0  0  0  0  0  0  0  0
   -0.1882  -10.2905    5.5685 H   0  0  0  0  0  0  0  0  0  0  0  0
    1.8283  -10.0083    6.9416 H   0  0  0  0  0  0  0  0  0  0  0  0
    3.8192   -8.8345    6.0232 H   0  0  0  0  0  0  0  0  0  0  0  0
  1  2  1  0
  1 26  1  0
  1 27  1  0
  1 28  1  0
  2 29  1  0
  2 30  1  0
  2  3  1  0
  3  8  1  0
  3  4  1  0
  4  5  2  0
  4  6  1  0
  6 16  1  0
  6 31  1  6
  6  7  1  0
  7 10  1  0
  7 32  1  6
  7  8  1  0
  8  9  2  0
 10 14  1  0
 10 11  1  0
 10 33  1  1
 11 12  2  0
 11 34  1  0
 12 13  1  0
 12 35  1  0
 13 14  1  0
 13 36  1  0
 13 37  1  0
 14 15  1  0
 14 38  1  1
 15 24  1  0
 15 16  2  0
 16 17  1  0
 17 25  1  0
 17 18  1  0
 18 24  2  0
 18 19  1  0
 19 20  1  0
 19 21  2  0
 21 22  1  0
 21 39  1  0
 22 23  2  0
 22 40  1  0
 23 24  1  0
 23 41  1  0
M  END
>  <i_m_ct_stereo_status>  (267) 
1

>  <s_m_source_file>  (267) 
/var/tmp/pbs.5076255.sched01/tmp2672eyar/80wl2hclo4.sdf

>  <i_m_source_file_index>  (267) 
24

>  <i_lp_mmshare_version>  (267) 
48012

>  <i_f3d_flags>  (267) 
0

>  <s_epik_input>  (267) 
W0NIM11bQ0gyXW4oYzFbT0hdKWMoW09IXSljKGMxMilbQ0BIXTNbQ0BIXShbQ0gyXVtDSF09W0NIXTMpYzRjMltuSF1jNWM0W2NIXVtjSF1bY0hdYzVDbA==

>  <s_epik_cmdline>  (267) 
J2VwaWtfcHl0aG9uJywgJy1waHQnLCAnMi4wJywgJy1waCcsICc3LjAnLCAnLXRuJywgJzgnLCAnLW1hJywgJzIwMCcsICctaW1hZScsICc8aW5maWxlLm1hZT4nLCAnLW9tYWUnLCAnPG91dGZpbGUubWFlPic=

>  <r_lp_tautomer_probability>  (267) 
1

>  <r_epik_Ionization_Penalty>  (267) 
1.77111e-08

>  <r_epik_Ionization_Penalty_Charging>  (267) 
0

>  <r_epik_Ionization_Penalty_Neutral>  (267) 
1.77111e-08

>  <r_epik_State_Penalty>  (267) 
-0

>  <r_epik_Charging_Adjusted_Penalty>  (267) 
0

>  <i_epik_Tot_Q>  (267) 
0

>  <i_epik_Tot_abs_Q>  (267) 
0

>  <s_lp_Force_Field>  (267) 
OPLS3e

>  <r_lp_Energy>  (267) 
11.407

>  <b_lp_Chiralities_Consistent>  (267) 
1

>  <s_lp_Variant>  (267) 
75:0-4

>  <s_i_glide_gridfile>  (267) 
pfpi4k_grid

>  <i_i_glide_lignum>  (267) 
24

>  <i_i_glide_rotatable_bonds>  (267) 
1

>  <r_i_docking_score>  (267) 
-3.12233

>  <r_i_glide_ligand_efficiency>  (267) 
-0.130097

>  <r_i_glide_ligand_efficiency_sa>  (267) 
-0.375265

>  <r_i_glide_ligand_efficiency_ln>  (267) 
-0.747317

>  <r_i_glide_gscore>  (267) 
-3.12233

>  <r_i_glide_lipo>  (267) 
-0.37545

>  <r_i_glide_hbond>  (267) 
-0.0655101

>  <r_i_glide_metal>  (267) 
-0

>  <r_i_glide_rewards>  (267) 
-1.13975

>  <r_i_glide_evdw>  (267) 
-22.5968

>  <r_i_glide_ecoul>  (267) 
-2.47542

>  <r_i_glide_erotb>  (267) 
0

>  <r_i_glide_esite>  (267) 
-0.0404725

>  <r_i_glide_emodel>  (267) 
-30.0222

>  <r_i_glide_energy>  (267) 
-25.0722

>  <r_i_glide_einternal>  (267) 
0.0110404

>  <r_i_glide_intrahb_reward>  (267) 
-0

>  <i_i_glide_confnum>  (267) 
2

>  <i_i_glide_posenum>  (267) 
34

>  <r_i_glide_eff_state_penalty>  (267) 
0

>  <ligand_id>  (267) 
75

>  <original_smiles>  (267) 
CCn1c(O)c2c(c1O)C1C=CCC1c1c-2[nH]c2c(Cl)cccc12

>  <smiles>  (267) 
[H]C1=C([H])C2([H])C3([H])C(=O)N(C([H])([H])C([H])([H])[H])C(=O)C3([H])c3c(c4c([H])c([H])c([H])c(Cl)c4n3[H])C2([H])C1([H])[H]

$$$$
75:3:1
     RDKit          3D

 41 45  0  0  1  0  0  0  0  0999 V2000
   -1.5426    2.5063    3.0776 C   0  0  0  0  0  0  0  0  0  0  0  0
   -0.9862    1.3468    2.2335 C   0  0  0  0  0  0  0  0  0  0  0  0
    0.1197    0.6404    2.8942 N   0  0  0  0  0  0  0  0  0  0  0  0
    1.4107    0.7771    2.5563 C   0  0  0  0  0  0  0  0  0  0  0  0
    1.8680    1.5444    1.7089 O   0  0  0  0  0  0  0  0  0  0  0  0
    2.2968   -0.1594    3.3785 C   0  0  1  0  0  0  0  0  0  0  0  0
    1.3305   -0.6197    4.4929 C   0  0  1  0  0  0  0  0  0  0  0  0
   -0.0313   -0.2105    3.9199 C   0  0  0  0  0  0  0  0  0  0  0  0
   -1.1013   -0.5992    4.3967 O   0  0  0  0  0  0  0  0  0  0  0  0
    1.4143   -2.1091    4.9341 C   0  0  2  0  0  0  0  0  0  0  0  0
    2.4975   -2.3661    5.9538 C   0  0  0  0  0  0  0  0  0  0  0  0
    3.0752   -3.5523    5.7877 C   0  0  0  0  0  0  0  0  0  0  0  0
    2.4973   -4.2920    4.6142 C   0  0  0  0  0  0  0  0  0  0  0  0
    1.7135   -3.1912    3.8488 C   0  0  2  0  0  0  0  0  0  0  0  0
    2.5152   -2.6287    2.7007 C   0  0  0  0  0  0  0  0  0  0  0  0
    2.7818   -1.2963    2.5266 C   0  0  0  0  0  0  0  0  0  0  0  0
    3.5936   -1.1379    1.4155 N   0  0  0  0  0  0  0  0  0  0  0  0
    3.8442   -2.3564    0.8172 C   0  0  0  0  0  0  0  0  0  0  0  0
    4.5878   -2.7174   -0.3225 C   0  0  0  0  0  0  0  0  0  0  0  0
    5.3958   -1.5112   -1.2550 Cl  0  0  0  0  0  0  0  0  0  0  0  0
    4.6629   -4.0727   -0.6946 C   0  0  0  0  0  0  0  0  0  0  0  0
    4.0051   -5.0475    0.0786 C   0  0  0  0  0  0  0  0  0  0  0  0
    3.2613   -4.6755    1.2146 C   0  0  0  0  0  0  0  0  0  0  0  0
    3.1630   -3.3206    1.6155 C   0  0  0  0  0  0  0  0  0  0  0  0
    3.9015   -0.2371    1.0750 H   0  0  0  0  0  0  0  0  0  0  0  0
   -2.3661    2.9985    2.5602 H   0  0  0  0  0  0  0  0  0  0  0  0
   -0.7790    3.2617    3.2668 H   0  0  0  0  0  0  0  0  0  0  0  0
   -1.9234    2.1609    4.0395 H   0  0  0  0  0  0  0  0  0  0  0  0
   -1.7846    0.6410    2.0026 H   0  0  0  0  0  0  0  0  0  0  0  0
   -0.6575    1.7420    1.2734 H   0  0  0  0  0  0  0  0  0  0  0  0
    3.1392    0.3929    3.7935 H   0  0  0  0  0  0  0  0  0  0  0  0
    1.4694    0.0251    5.3666 H   0  0  0  0  0  0  0  0  0  0  0  0
    0.4932   -2.3840    5.4539 H   0  0  0  0  0  0  0  0  0  0  0  0
    2.7514   -1.6573    6.7266 H   0  0  0  0  0  0  0  0  0  0  0  0
    3.8536   -3.9649    6.4128 H   0  0  0  0  0  0  0  0  0  0  0  0
    3.2571   -4.8170    4.0324 H   0  0  0  0  0  0  0  0  0  0  0  0
    1.8116   -5.0349    5.0233 H   0  0  0  0  0  0  0  0  0  0  0  0
    0.7818   -3.5989    3.4586 H   0  0  0  0  0  0  0  0  0  0  0  0
    5.2136   -4.3638   -1.5785 H   0  0  0  0  0  0  0  0  0  0  0  0
    4.0483   -6.0860   -0.2237 H   0  0  0  0  0  0  0  0  0  0  0  0
    2.7549   -5.4347    1.7890 H   0  0  0  0  0  0  0  0  0  0  0  0
  1  2  1  0
  1 26  1  0
  1 27  1  0
  1 28  1  0
  2 29  1  0
  2 30  1  0
  2  3  1  0
  3  8  1  0
  3  4  1  0
  4  5  2  0
  4  6  1  0
  6 16  1  0
  6 31  1  1
  6  7  1  0
  7 10  1  0
  7 32  1  1
  7  8  1  0
  8  9  2  0
 10 14  1  0
 10 11  1  0
 10 33  1  1
 11 12  2  0
 11 34  1  0
 12 13  1  0
 12 35  1  0
 13 14  1  0
 13 36  1  0
 13 37  1  0
 14 15  1  0
 14 38  1  6
 15 24  1  0
 15 16  2  0
 16 17  1  0
 17 25  1  0
 17 18  1  0
 18 24  2  0
 18 19  1  0
 19 20  1  0
 19 21  2  0
 21 22  1  0
 21 39  1  0
 22 23  2  0
 22 40  1  0
 23 24  1  0
 23 41  1  0
M  END
>  <i_m_ct_stereo_status>  (268) 
1

>  <s_m_source_file>  (268) 
/var/tmp/pbs.5076255.sched01/tmp2672eyar/80wl2hclo4.sdf

>  <i_m_source_file_index>  (268) 
24

>  <i_lp_mmshare_version>  (268) 
48012

>  <i_f3d_flags>  (268) 
0

>  <s_epik_input>  (268) 
W0NIM11bQ0gyXW4oYzFbT0hdKWMoW09IXSljKGMxMilbQ0BIXTNbQ0BIXShbQ0gyXVtDSF09W0NIXTMpYzRjMltuSF1jNWM0W2NIXVtjSF1bY0hdYzVDbA==

>  <s_epik_cmdline>  (268) 
J2VwaWtfcHl0aG9uJywgJy1waHQnLCAnMi4wJywgJy1waCcsICc3LjAnLCAnLXRuJywgJzgnLCAnLW1hJywgJzIwMCcsICctaW1hZScsICc8aW5maWxlLm1hZT4nLCAnLW9tYWUnLCAnPG91dGZpbGUubWFlPic=

>  <r_lp_tautomer_probability>  (268) 
1

>  <r_epik_Ionization_Penalty>  (268) 
1.77111e-08

>  <r_epik_Ionization_Penalty_Charging>  (268) 
0

>  <r_epik_Ionization_Penalty_Neutral>  (268) 
1.77111e-08

>  <r_epik_State_Penalty>  (268) 
-0

>  <r_epik_Charging_Adjusted_Penalty>  (268) 
0

>  <i_epik_Tot_Q>  (268) 
0

>  <i_epik_Tot_abs_Q>  (268) 
0

>  <s_lp_Force_Field>  (268) 
OPLS3e

>  <r_lp_Energy>  (268) 
11.407

>  <b_lp_Chiralities_Consistent>  (268) 
1

>  <s_lp_Variant>  (268) 
75:0-4

>  <s_i_glide_gridfile>  (268) 
pfpi4k_grid

>  <i_i_glide_lignum>  (268) 
24

>  <i_i_glide_rotatable_bonds>  (268) 
1

>  <r_i_docking_score>  (268) 
-2.62202

>  <r_i_glide_ligand_efficiency>  (268) 
-0.109251

>  <r_i_glide_ligand_efficiency_sa>  (268) 
-0.315134

>  <r_i_glide_ligand_efficiency_ln>  (268) 
-0.62757

>  <r_i_glide_gscore>  (268) 
-2.62202

>  <r_i_glide_lipo>  (268) 
-0.0180295

>  <r_i_glide_hbond>  (268) 
0

>  <r_i_glide_metal>  (268) 
-0

>  <r_i_glide_rewards>  (268) 
-1.08543

>  <r_i_glide_evdw>  (268) 
-24.7443

>  <r_i_glide_ecoul>  (268) 
-1.22192

>  <r_i_glide_erotb>  (268) 
0

>  <r_i_glide_esite>  (268) 
-0.0980556

>  <r_i_glide_emodel>  (268) 
-30.0396

>  <r_i_glide_energy>  (268) 
-25.9662

>  <r_i_glide_einternal>  (268) 
0.161407

>  <r_i_glide_intrahb_reward>  (268) 
-0

>  <i_i_glide_confnum>  (268) 
2

>  <i_i_glide_posenum>  (268) 
36

>  <r_i_glide_eff_state_penalty>  (268) 
0

>  <ligand_id>  (268) 
75

>  <original_smiles>  (268) 
CCn1c(O)c2c(c1O)C1C=CCC1c1c-2[nH]c2c(Cl)cccc12

>  <smiles>  (268) 
[H]C1=C([H])C2([H])C3([H])C(=O)N(C([H])([H])C([H])([H])[H])C(=O)C3([H])c3c(c4c([H])c([H])c([H])c(Cl)c4n3[H])C2([H])C1([H])[H]

$$$$
75:3:2
     RDKit          3D

 41 45  0  0  1  0  0  0  0  0999 V2000
   -0.2815    1.8316    3.6547 C   0  0  0  0  0  0  0  0  0  0  0  0
   -0.7180    0.3823    3.3850 C   0  0  0  0  0  0  0  0  0  0  0  0
    0.0010   -0.5907    4.2206 N   0  0  0  0  0  0  0  0  0  0  0  0
    1.1022   -1.2499    3.8315 C   0  0  0  0  0  0  0  0  0  0  0  0
    1.6978   -1.1028    2.7644 O   0  0  0  0  0  0  0  0  0  0  0  0
    1.5554   -2.2502    4.8985 C   0  0  1  0  0  0  0  0  0  0  0  0
    0.7220   -1.8090    6.1211 C   0  0  1  0  0  0  0  0  0  0  0  0
   -0.3491   -0.9241    5.4709 C   0  0  0  0  0  0  0  0  0  0  0  0
   -1.3685   -0.5624    6.0673 O   0  0  0  0  0  0  0  0  0  0  0  0
    0.1579   -2.9334    7.0359 C   0  0  2  0  0  0  0  0  0  0  0  0
    1.1452   -3.4309    8.0615 C   0  0  0  0  0  0  0  0  0  0  0  0
    1.0190   -4.7354    8.2912 C   0  0  0  0  0  0  0  0  0  0  0  0
   -0.0612   -5.3483    7.4465 C   0  0  0  0  0  0  0  0  0  0  0  0
   -0.3232   -4.2600    6.3739 C   0  0  2  0  0  0  0  0  0  0  0  0
    0.4115   -4.5463    5.0896 C   0  0  0  0  0  0  0  0  0  0  0  0
    1.2485   -3.6561    4.4691 C   0  0  0  0  0  0  0  0  0  0  0  0
    1.7991   -4.2594    3.3509 N   0  0  0  0  0  0  0  0  0  0  0  0
    1.3092   -5.5412    3.1970 C   0  0  0  0  0  0  0  0  0  0  0  0
    1.5357   -6.5288    2.2212 C   0  0  0  0  0  0  0  0  0  0  0  0
    2.6252   -6.2195    0.9218 Cl  0  0  0  0  0  0  0  0  0  0  0  0
    0.8563   -7.7591    2.3082 C   0  0  0  0  0  0  0  0  0  0  0  0
   -0.0419   -7.9858    3.3682 C   0  0  0  0  0  0  0  0  0  0  0  0
   -0.2592   -6.9898    4.3421 C   0  0  0  0  0  0  0  0  0  0  0  0
    0.4108   -5.7426    4.2845 C   0  0  0  0  0  0  0  0  0  0  0  0
    2.4492   -3.7933    2.7305 H   0  0  0  0  0  0  0  0  0  0  0  0
   -0.8431    2.5237    3.0258 H   0  0  0  0  0  0  0  0  0  0  0  0
    0.7759    1.9790    3.4325 H   0  0  0  0  0  0  0  0  0  0  0  0
   -0.4506    2.1201    4.6930 H   0  0  0  0  0  0  0  0  0  0  0  0
   -1.7869    0.2930    3.5645 H   0  0  0  0  0  0  0  0  0  0  0  0
   -0.5743    0.1600    2.3263 H   0  0  0  0  0  0  0  0  0  0  0  0
    2.6210   -2.1369    5.0911 H   0  0  0  0  0  0  0  0  0  0  0  0
    1.3221   -1.1240    6.7263 H   0  0  0  0  0  0  0  0  0  0  0  0
   -0.6547   -2.5283    7.6383 H   0  0  0  0  0  0  0  0  0  0  0  0
    1.8579   -2.7826    8.5471 H   0  0  0  0  0  0  0  0  0  0  0  0
    1.6008   -5.3075    8.9989 H   0  0  0  0  0  0  0  0  0  0  0  0
    0.2119   -6.3292    7.0545 H   0  0  0  0  0  0  0  0  0  0  0  0
   -0.9340   -5.4713    8.0891 H   0  0  0  0  0  0  0  0  0  0  0  0
   -1.3858   -4.2008    6.1640 H   0  0  0  0  0  0  0  0  0  0  0  0
    1.0224   -8.5279    1.5654 H   0  0  0  0  0  0  0  0  0  0  0  0
   -0.5625   -8.9322    3.4431 H   0  0  0  0  0  0  0  0  0  0  0  0
   -0.9494   -7.1825    5.1484 H   0  0  0  0  0  0  0  0  0  0  0  0
  1  2  1  0
  1 26  1  0
  1 27  1  0
  1 28  1  0
  2 29  1  0
  2 30  1  0
  2  3  1  0
  3  8  1  0
  3  4  1  0
  4  5  2  0
  4  6  1  0
  6 16  1  0
  6 31  1  1
  6  7  1  0
  7 10  1  0
  7 32  1  1
  7  8  1  0
  8  9  2  0
 10 14  1  0
 10 11  1  0
 10 33  1  1
 11 12  2  0
 11 34  1  0
 12 13  1  0
 12 35  1  0
 13 14  1  0
 13 36  1  0
 13 37  1  0
 14 15  1  0
 14 38  1  6
 15 24  1  0
 15 16  2  0
 16 17  1  0
 17 25  1  0
 17 18  1  0
 18 24  2  0
 18 19  1  0
 19 20  1  0
 19 21  2  0
 21 22  1  0
 21 39  1  0
 22 23  2  0
 22 40  1  0
 23 24  1  0
 23 41  1  0
M  END
>  <i_m_ct_stereo_status>  (269) 
1

>  <s_m_source_file>  (269) 
/var/tmp/pbs.5076255.sched01/tmp2672eyar/80wl2hclo4.sdf

>  <i_m_source_file_index>  (269) 
24

>  <i_lp_mmshare_version>  (269) 
48012

>  <i_f3d_flags>  (269) 
0

>  <s_epik_input>  (269) 
W0NIM11bQ0gyXW4oYzFbT0hdKWMoW09IXSljKGMxMilbQ0BIXTNbQ0BIXShbQ0gyXVtDSF09W0NIXTMpYzRjMltuSF1jNWM0W2NIXVtjSF1bY0hdYzVDbA==

>  <s_epik_cmdline>  (269) 
J2VwaWtfcHl0aG9uJywgJy1waHQnLCAnMi4wJywgJy1waCcsICc3LjAnLCAnLXRuJywgJzgnLCAnLW1hJywgJzIwMCcsICctaW1hZScsICc8aW5maWxlLm1hZT4nLCAnLW9tYWUnLCAnPG91dGZpbGUubWFlPic=

>  <r_lp_tautomer_probability>  (269) 
1

>  <r_epik_Ionization_Penalty>  (269) 
1.77111e-08

>  <r_epik_Ionization_Penalty_Charging>  (269) 
0

>  <r_epik_Ionization_Penalty_Neutral>  (269) 
1.77111e-08

>  <r_epik_State_Penalty>  (269) 
-0

>  <r_epik_Charging_Adjusted_Penalty>  (269) 
0

>  <i_epik_Tot_Q>  (269) 
0

>  <i_epik_Tot_abs_Q>  (269) 
0

>  <s_lp_Force_Field>  (269) 
OPLS3e

>  <r_lp_Energy>  (269) 
11.407

>  <b_lp_Chiralities_Consistent>  (269) 
1

>  <s_lp_Variant>  (269) 
75:0-4

>  <s_i_glide_gridfile>  (269) 
pfpi4k_grid

>  <i_i_glide_lignum>  (269) 
24

>  <i_i_glide_rotatable_bonds>  (269) 
1

>  <r_i_docking_score>  (269) 
-2.58093

>  <r_i_glide_ligand_efficiency>  (269) 
-0.107539

>  <r_i_glide_ligand_efficiency_sa>  (269) 
-0.310196

>  <r_i_glide_ligand_efficiency_ln>  (269) 
-0.617735

>  <r_i_glide_gscore>  (269) 
-2.58093

>  <r_i_glide_lipo>  (269) 
-0.034059

>  <r_i_glide_hbond>  (269) 
-0.0829139

>  <r_i_glide_metal>  (269) 
-0

>  <r_i_glide_rewards>  (269) 
-1.08543

>  <r_i_glide_evdw>  (269) 
-20.8418

>  <r_i_glide_ecoul>  (269) 
-1.92688

>  <r_i_glide_erotb>  (269) 
0

>  <r_i_glide_esite>  (269) 
-0.0474001

>  <r_i_glide_emodel>  (269) 
-26.8292

>  <r_i_glide_energy>  (269) 
-22.7687

>  <r_i_glide_einternal>  (269) 
0.0164102

>  <r_i_glide_intrahb_reward>  (269) 
-0

>  <i_i_glide_confnum>  (269) 
2

>  <i_i_glide_posenum>  (269) 
23

>  <r_i_glide_eff_state_penalty>  (269) 
0

>  <ligand_id>  (269) 
75

>  <original_smiles>  (269) 
CCn1c(O)c2c(c1O)C1C=CCC1c1c-2[nH]c2c(Cl)cccc12

>  <smiles>  (269) 
[H]C1=C([H])C2([H])C3([H])C(=O)N(C([H])([H])C([H])([H])[H])C(=O)C3([H])c3c(c4c([H])c([H])c([H])c(Cl)c4n3[H])C2([H])C1([H])[H]

$$$$
76:0:0
     RDKit          3D

 32 35  0  0  1  0  0  0  0  0999 V2000
    6.9412   -2.6874   -1.2331 C   0  0  0  0  0  0  0  0  0  0  0  0
    7.5808   -1.9666   -0.2322 N   0  0  0  0  0  0  0  0  0  0  0  0
    6.7022   -1.5542    0.6193 N   0  0  0  0  0  0  0  0  0  0  0  0
    5.4889   -2.0005    0.2048 N   0  0  0  0  0  0  0  0  0  0  0  0
    4.2896   -1.7316    0.9866 C   0  0  0  0  0  0  0  0  0  0  0  0
    3.8587   -0.2727    0.9926 C   0  0  0  0  0  0  0  0  0  0  0  0
    4.4112   -0.9002    2.2537 C   0  0  0  0  0  0  0  0  0  0  0  0
    5.6010   -2.7119   -0.9852 C   0  0  0  0  0  0  0  0  0  0  0  0
    4.4472   -3.3369   -1.7297 C   0  0  2  0  0  0  0  0  0  0  0  0
    4.7206   -3.6744   -3.2112 C   0  0  0  0  0  0  0  0  0  0  0  0
    3.5895   -2.9308   -3.9347 C   0  0  2  0  0  0  0  0  0  0  0  0
    3.8600   -1.4158   -3.9084 C   0  0  0  0  0  0  0  0  0  0  0  0
    3.5634   -1.0739   -2.4403 C   0  0  0  0  0  0  0  0  0  0  0  0
    3.1870   -2.4529   -1.8688 C   0  0  1  0  0  0  0  0  0  0  0  0
    2.4853   -3.0576   -2.9911 N   0  0  0  0  0  0  0  0  0  0  0  0
    7.5095   -3.1252   -2.0370 H   0  0  0  0  0  0  0  0  0  0  0  0
    3.5719   -2.5472    0.9763 H   0  0  0  0  0  0  0  0  0  0  0  0
    4.4852    0.4583    0.4860 H   0  0  0  0  0  0  0  0  0  0  0  0
    2.7905   -0.0566    0.9602 H   0  0  0  0  0  0  0  0  0  0  0  0
    3.7053   -1.1468    3.0473 H   0  0  0  0  0  0  0  0  0  0  0  0
    5.3910   -0.5817    2.6041 H   0  0  0  0  0  0  0  0  0  0  0  0
    4.1886   -4.2623   -1.2156 H   0  0  0  0  0  0  0  0  0  0  0  0
    5.7045   -3.3795   -3.5695 H   0  0  0  0  0  0  0  0  0  0  0  0
    4.6218   -4.7442   -3.3687 H   0  0  0  0  0  0  0  0  0  0  0  0
    3.3618   -3.3330   -4.9199 H   0  0  0  0  0  0  0  0  0  0  0  0
    4.8807   -1.1672   -4.2014 H   0  0  0  0  0  0  0  0  0  0  0  0
    3.1637   -0.8820   -4.5569 H   0  0  0  0  0  0  0  0  0  0  0  0
    4.3999   -0.5836   -1.9380 H   0  0  0  0  0  0  0  0  0  0  0  0
    2.7016   -0.4116   -2.3700 H   0  0  0  0  0  0  0  0  0  0  0  0
    2.5536   -2.4099   -0.9867 H   0  0  0  0  0  0  0  0  0  0  0  0
    1.6809   -2.5099   -3.2584 H   0  0  0  0  0  0  0  0  0  0  0  0
    2.2338   -4.0200   -2.8281 H   0  0  0  0  0  0  0  0  0  0  0  0
  1  8  2  0
  1  2  1  0
  1 16  1  0
  2  3  2  0
  3  4  1  0
  4  5  1  0
  4  8  1  0
  5  7  1  0
  5  6  1  0
  5 17  1  0
  6  7  1  0
  6 18  1  0
  6 19  1  0
  7 20  1  0
  7 21  1  0
  8  9  1  0
  9 14  1  0
  9 10  1  0
  9 22  1  1
 10 11  1  0
 10 23  1  0
 10 24  1  0
 11 15  1  0
 11 12  1  0
 11 25  1  6
 12 13  1  0
 12 26  1  0
 12 27  1  0
 13 14  1  0
 13 28  1  0
 13 29  1  0
 14 15  1  0
 14 30  1  1
 15 31  1  0
 15 32  1  0
M  CHG  1  15   1
M  END
>  <i_m_ct_stereo_status>  (270) 
1

>  <s_m_source_file>  (270) 
/var/tmp/pbs.5076255.sched01/tmp2672eyar/80wl2hclo4.sdf

>  <i_m_source_file_index>  (270) 
25

>  <i_lp_mmshare_version>  (270) 
48012

>  <i_f3d_flags>  (270) 
0

>  <s_epik_input>  (270) 
W0NIMl0xW0NIMl1bQ0BASF0oW05IXTIpW0NAQEhdKFtDSDJdW0NASF0xMiljM1tjSF1ubm4zW0NIXTRbQ0gyXVtDSDJdNA==

>  <s_epik_cmdline>  (270) 
J2VwaWtfcHl0aG9uJywgJy1waHQnLCAnMi4wJywgJy1waCcsICc3LjAnLCAnLXRuJywgJzgnLCAnLW1hJywgJzIwMCcsICctaW1hZScsICc8aW5maWxlLm1hZT4nLCAnLW9tYWUnLCAnPG91dGZpbGUubWFlPic=

>  <r_lp_tautomer_probability>  (270) 
1

>  <r_epik_Ionization_Penalty>  (270) 
0.000453988

>  <r_epik_Ionization_Penalty_Charging>  (270) 
0.000453254

>  <r_epik_Ionization_Penalty_Neutral>  (270) 
7.34269e-07

>  <r_epik_State_Penalty>  (270) 
0.000280138

>  <r_epik_Charging_Adjusted_Penalty>  (270) 
0.000733392

>  <i_epik_Tot_Q>  (270) 
1

>  <i_epik_Tot_abs_Q>  (270) 
1

>  <s_lp_Force_Field>  (270) 
OPLS3e

>  <r_lp_Energy>  (270) 
27.7927

>  <b_lp_Chiralities_Consistent>  (270) 
1

>  <s_lp_Variant>  (270) 
76:0-1

>  <s_i_glide_gridfile>  (270) 
pfpi4k_grid

>  <i_i_glide_lignum>  (270) 
25

>  <i_i_glide_rotatable_bonds>  (270) 
2

>  <r_i_docking_score>  (270) 
-3.84406

>  <r_i_glide_ligand_efficiency>  (270) 
-0.256271

>  <r_i_glide_ligand_efficiency_sa>  (270) 
-0.632018

>  <r_i_glide_ligand_efficiency_ln>  (270) 
-1.03668

>  <r_i_glide_gscore>  (270) 
-3.84406

>  <r_i_glide_lipo>  (270) 
-0.330118

>  <r_i_glide_hbond>  (270) 
0

>  <r_i_glide_metal>  (270) 
-0

>  <r_i_glide_rewards>  (270) 
-2.04697

>  <r_i_glide_evdw>  (270) 
-23.9261

>  <r_i_glide_ecoul>  (270) 
-6.69688

>  <r_i_glide_erotb>  (270) 
0.781903

>  <r_i_glide_esite>  (270) 
-0.0480419

>  <r_i_glide_emodel>  (270) 
-38.026

>  <r_i_glide_energy>  (270) 
-30.6229

>  <r_i_glide_einternal>  (270) 
2.04216

>  <r_i_glide_intrahb_reward>  (270) 
-0

>  <i_i_glide_confnum>  (270) 
2

>  <i_i_glide_posenum>  (270) 
14

>  <r_i_glide_eff_state_penalty>  (270) 
0

>  <ligand_id>  (270) 
76

>  <original_smiles>  (270) 
c1nnn(C2CC2)c1C1CC2CCC1N2

>  <smiles>  (270) 
[H]c1nnn(C2([H])C([H])([H])C2([H])[H])c1C1([H])C([H])([H])C2([H])C([H])([H])C([H])([H])C1([H])[N+]2([H])[H]

$$$$
76:0:1
     RDKit          3D

 32 35  0  0  1  0  0  0  0  0999 V2000
    6.9368   -2.6961   -1.1866 C   0  0  0  0  0  0  0  0  0  0  0  0
    7.5481   -1.9320   -0.2014 N   0  0  0  0  0  0  0  0  0  0  0  0
    6.6514   -1.4929    0.6179 N   0  0  0  0  0  0  0  0  0  0  0  0
    5.4625   -1.9844    0.2040 N   0  0  0  0  0  0  0  0  0  0  0  0
    4.2642   -1.5846    0.9058 C   0  0  0  0  0  0  0  0  0  0  0  0
    4.2603   -1.8126    2.4035 C   0  0  0  0  0  0  0  0  0  0  0  0
    3.4803   -2.7357    1.4966 C   0  0  0  0  0  0  0  0  0  0  0  0
    5.5879   -2.7122   -0.9711 C   0  0  0  0  0  0  0  0  0  0  0  0
    4.4457   -3.3316   -1.7277 C   0  0  2  0  0  0  0  0  0  0  0  0
    4.7224   -3.6655   -3.2069 C   0  0  0  0  0  0  0  0  0  0  0  0
    3.5848   -2.9294   -3.9304 C   0  0  2  0  0  0  0  0  0  0  0  0
    3.8549   -1.4142   -3.9143 C   0  0  0  0  0  0  0  0  0  0  0  0
    3.5601   -1.0655   -2.4500 C   0  0  0  0  0  0  0  0  0  0  0  0
    3.1880   -2.4452   -1.8730 C   0  0  1  0  0  0  0  0  0  0  0  0
    2.4789   -3.0521   -2.9883 N   0  0  0  0  0  0  0  0  0  0  0  0
    7.5177   -3.1316   -1.9819 H   0  0  0  0  0  0  0  0  0  0  0  0
    3.7673   -0.7265    0.4597 H   0  0  0  0  0  0  0  0  0  0  0  0
    5.1596   -2.2089    2.8706 H   0  0  0  0  0  0  0  0  0  0  0  0
    3.6938   -1.1074    3.0110 H   0  0  0  0  0  0  0  0  0  0  0  0
    2.3938   -2.6500    1.4947 H   0  0  0  0  0  0  0  0  0  0  0  0
    3.8683   -3.7413    1.3459 H   0  0  0  0  0  0  0  0  0  0  0  0
    4.1798   -4.2592   -1.2174 H   0  0  0  0  0  0  0  0  0  0  0  0
    5.7062   -3.3713   -3.5658 H   0  0  0  0  0  0  0  0  0  0  0  0
    4.6249   -4.7357   -3.3602 H   0  0  0  0  0  0  0  0  0  0  0  0
    3.3597   -3.3357   -4.9138 H   0  0  0  0  0  0  0  0  0  0  0  0
    4.8732   -1.1635   -4.2091 H   0  0  0  0  0  0  0  0  0  0  0  0
    3.1575   -0.8856   -4.5658 H   0  0  0  0  0  0  0  0  0  0  0  0
    4.3945   -0.5681   -1.9507 H   0  0  0  0  0  0  0  0  0  0  0  0
    2.6952   -0.4067   -2.3832 H   0  0  0  0  0  0  0  0  0  0  0  0
    2.5703   -2.3982   -0.9840 H   0  0  0  0  0  0  0  0  0  0  0  0
    1.6763   -2.4989   -3.2587 H   0  0  0  0  0  0  0  0  0  0  0  0
    2.2339   -4.0176   -2.8197 H   0  0  0  0  0  0  0  0  0  0  0  0
  1  8  2  0
  1  2  1  0
  1 16  1  0
  2  3  2  0
  3  4  1  0
  4  5  1  0
  4  8  1  0
  5  7  1  0
  5  6  1  0
  5 17  1  0
  6  7  1  0
  6 18  1  0
  6 19  1  0
  7 20  1  0
  7 21  1  0
  8  9  1  0
  9 14  1  0
  9 10  1  0
  9 22  1  1
 10 11  1  0
 10 23  1  0
 10 24  1  0
 11 15  1  0
 11 12  1  0
 11 25  1  6
 12 13  1  0
 12 26  1  0
 12 27  1  0
 13 14  1  0
 13 28  1  0
 13 29  1  0
 14 15  1  0
 14 30  1  1
 15 31  1  0
 15 32  1  0
M  CHG  1  15   1
M  END
>  <i_m_ct_stereo_status>  (271) 
1

>  <s_m_source_file>  (271) 
/var/tmp/pbs.5076255.sched01/tmp2672eyar/80wl2hclo4.sdf

>  <i_m_source_file_index>  (271) 
25

>  <i_lp_mmshare_version>  (271) 
48012

>  <i_f3d_flags>  (271) 
0

>  <s_epik_input>  (271) 
W0NIMl0xW0NIMl1bQ0BASF0oW05IXTIpW0NAQEhdKFtDSDJdW0NASF0xMiljM1tjSF1ubm4zW0NIXTRbQ0gyXVtDSDJdNA==

>  <s_epik_cmdline>  (271) 
J2VwaWtfcHl0aG9uJywgJy1waHQnLCAnMi4wJywgJy1waCcsICc3LjAnLCAnLXRuJywgJzgnLCAnLW1hJywgJzIwMCcsICctaW1hZScsICc8aW5maWxlLm1hZT4nLCAnLW9tYWUnLCAnPG91dGZpbGUubWFlPic=

>  <r_lp_tautomer_probability>  (271) 
1

>  <r_epik_Ionization_Penalty>  (271) 
0.000453988

>  <r_epik_Ionization_Penalty_Charging>  (271) 
0.000453254

>  <r_epik_Ionization_Penalty_Neutral>  (271) 
7.34269e-07

>  <r_epik_State_Penalty>  (271) 
0.000280138

>  <r_epik_Charging_Adjusted_Penalty>  (271) 
0.000733392

>  <i_epik_Tot_Q>  (271) 
1

>  <i_epik_Tot_abs_Q>  (271) 
1

>  <s_lp_Force_Field>  (271) 
OPLS3e

>  <r_lp_Energy>  (271) 
27.7927

>  <b_lp_Chiralities_Consistent>  (271) 
1

>  <s_lp_Variant>  (271) 
76:0-1

>  <s_i_glide_gridfile>  (271) 
pfpi4k_grid

>  <i_i_glide_lignum>  (271) 
25

>  <i_i_glide_rotatable_bonds>  (271) 
2

>  <r_i_docking_score>  (271) 
-3.70224

>  <r_i_glide_ligand_efficiency>  (271) 
-0.246816

>  <r_i_glide_ligand_efficiency_sa>  (271) 
-0.6087

>  <r_i_glide_ligand_efficiency_ln>  (271) 
-0.998432

>  <r_i_glide_gscore>  (271) 
-3.70224

>  <r_i_glide_lipo>  (271) 
-0.24902

>  <r_i_glide_hbond>  (271) 
0

>  <r_i_glide_metal>  (271) 
-0

>  <r_i_glide_rewards>  (271) 
-2.04659

>  <r_i_glide_evdw>  (271) 
-22.9683

>  <r_i_glide_ecoul>  (271) 
-6.61501

>  <r_i_glide_erotb>  (271) 
0.781903

>  <r_i_glide_esite>  (271) 
-0.0478645

>  <r_i_glide_emodel>  (271) 
-37.0911

>  <r_i_glide_energy>  (271) 
-29.5833

>  <r_i_glide_einternal>  (271) 
1.31808

>  <r_i_glide_intrahb_reward>  (271) 
-0

>  <i_i_glide_confnum>  (271) 
2

>  <i_i_glide_posenum>  (271) 
20

>  <r_i_glide_eff_state_penalty>  (271) 
0

>  <ligand_id>  (271) 
76

>  <original_smiles>  (271) 
c1nnn(C2CC2)c1C1CC2CCC1N2

>  <smiles>  (271) 
[H]c1nnn(C2([H])C([H])([H])C2([H])[H])c1C1([H])C([H])([H])C2([H])C([H])([H])C([H])([H])C1([H])[N+]2([H])[H]

$$$$
76:0:2
     RDKit          3D

 32 35  0  0  1  0  0  0  0  0999 V2000
    6.4923   -2.2937   -0.5013 C   0  0  0  0  0  0  0  0  0  0  0  0
    6.8138   -1.3672    0.4925 N   0  0  0  0  0  0  0  0  0  0  0  0
    5.7399   -0.9998    1.1042 N   0  0  0  0  0  0  0  0  0  0  0  0
    4.6895   -1.6610    0.5286 N   0  0  0  0  0  0  0  0  0  0  0  0
    3.3282   -1.4628    0.9949 C   0  0  0  0  0  0  0  0  0  0  0  0
    2.9593   -0.0406    1.4317 C   0  0  0  0  0  0  0  0  0  0  0  0
    3.1142   -1.1439    2.4633 C   0  0  0  0  0  0  0  0  0  0  0  0
    5.1422   -2.4640   -0.5145 C   0  0  0  0  0  0  0  0  0  0  0  0
    4.2659   -3.3254   -1.4056 C   0  0  2  0  0  0  0  0  0  0  0  0
    4.9394   -3.7917   -2.7223 C   0  0  0  0  0  0  0  0  0  0  0  0
    3.9542   -3.2983   -3.8025 C   0  0  2  0  0  0  0  0  0  0  0  0
    4.0066   -1.7667   -3.9296 C   0  0  0  0  0  0  0  0  0  0  0  0
    3.3530   -1.3027   -2.6144 C   0  0  0  0  0  0  0  0  0  0  0  0
    2.9929   -2.6542   -1.9708 C   0  0  1  0  0  0  0  0  0  0  0  0
    2.6685   -3.4490   -3.1342 N   0  0  0  0  0  0  0  0  0  0  0  0
    7.2619   -2.7227   -1.1072 H   0  0  0  0  0  0  0  0  0  0  0  0
    2.6077   -2.1530    0.5783 H   0  0  0  0  0  0  0  0  0  0  0  0
    3.7114    0.7549    1.3987 H   0  0  0  0  0  0  0  0  0  0  0  0
    1.9566    0.3016    1.1676 H   0  0  0  0  0  0  0  0  0  0  0  0
    2.2107   -1.5818    2.8858 H   0  0  0  0  0  0  0  0  0  0  0  0
    3.9747   -1.1657    3.1337 H   0  0  0  0  0  0  0  0  0  0  0  0
    3.9837   -4.2068   -0.8404 H   0  0  0  0  0  0  0  0  0  0  0  0
    5.9404   -3.4043   -2.9024 H   0  0  0  0  0  0  0  0  0  0  0  0
    5.0275   -4.8752   -2.7212 H   0  0  0  0  0  0  0  0  0  0  0  0
    4.0247   -3.8705   -4.7322 H   0  0  0  0  0  0  0  0  0  0  0  0
    5.0197   -1.3931   -4.0304 H   0  0  0  0  0  0  0  0  0  0  0  0
    3.4289   -1.4126   -4.7789 H   0  0  0  0  0  0  0  0  0  0  0  0
    4.0118   -0.6697   -2.0154 H   0  0  0  0  0  0  0  0  0  0  0  0
    2.4608   -0.7176   -2.8136 H   0  0  0  0  0  0  0  0  0  0  0  0
    2.1113   -2.6645   -1.3198 H   0  0  0  0  0  0  0  0  0  0  0  0
    1.8837   -3.0702   -3.6564 H   0  0  0  0  0  0  0  0  0  0  0  0
    2.5143   -4.4181   -2.8881 H   0  0  0  0  0  0  0  0  0  0  0  0
  1  8  2  0
  1  2  1  0
  1 16  1  0
  2  3  2  0
  3  4  1  0
  4  5  1  0
  4  8  1  0
  5  7  1  0
  5  6  1  0
  5 17  1  0
  6  7  1  0
  6 18  1  0
  6 19  1  0
  7 20  1  0
  7 21  1  0
  8  9  1  0
  9 14  1  0
  9 10  1  0
  9 22  1  1
 10 11  1  0
 10 23  1  0
 10 24  1  0
 11 15  1  0
 11 12  1  0
 11 25  1  6
 12 13  1  0
 12 26  1  0
 12 27  1  0
 13 14  1  0
 13 28  1  0
 13 29  1  0
 14 15  1  0
 14 30  1  1
 15 31  1  0
 15 32  1  0
M  CHG  1  15   1
M  END
>  <i_m_ct_stereo_status>  (272) 
1

>  <s_m_source_file>  (272) 
/var/tmp/pbs.5076255.sched01/tmp2672eyar/80wl2hclo4.sdf

>  <i_m_source_file_index>  (272) 
25

>  <i_lp_mmshare_version>  (272) 
48012

>  <i_f3d_flags>  (272) 
0

>  <s_epik_input>  (272) 
W0NIMl0xW0NIMl1bQ0BASF0oW05IXTIpW0NAQEhdKFtDSDJdW0NASF0xMiljM1tjSF1ubm4zW0NIXTRbQ0gyXVtDSDJdNA==

>  <s_epik_cmdline>  (272) 
J2VwaWtfcHl0aG9uJywgJy1waHQnLCAnMi4wJywgJy1waCcsICc3LjAnLCAnLXRuJywgJzgnLCAnLW1hJywgJzIwMCcsICctaW1hZScsICc8aW5maWxlLm1hZT4nLCAnLW9tYWUnLCAnPG91dGZpbGUubWFlPic=

>  <r_lp_tautomer_probability>  (272) 
1

>  <r_epik_Ionization_Penalty>  (272) 
0.000453988

>  <r_epik_Ionization_Penalty_Charging>  (272) 
0.000453254

>  <r_epik_Ionization_Penalty_Neutral>  (272) 
7.34269e-07

>  <r_epik_State_Penalty>  (272) 
0.000280138

>  <r_epik_Charging_Adjusted_Penalty>  (272) 
0.000733392

>  <i_epik_Tot_Q>  (272) 
1

>  <i_epik_Tot_abs_Q>  (272) 
1

>  <s_lp_Force_Field>  (272) 
OPLS3e

>  <r_lp_Energy>  (272) 
27.7927

>  <b_lp_Chiralities_Consistent>  (272) 
1

>  <s_lp_Variant>  (272) 
76:0-1

>  <s_i_glide_gridfile>  (272) 
pfpi4k_grid

>  <i_i_glide_lignum>  (272) 
25

>  <i_i_glide_rotatable_bonds>  (272) 
2

>  <r_i_docking_score>  (272) 
-3.61513

>  <r_i_glide_ligand_efficiency>  (272) 
-0.241009

>  <r_i_glide_ligand_efficiency_sa>  (272) 
-0.594379

>  <r_i_glide_ligand_efficiency_ln>  (272) 
-0.974942

>  <r_i_glide_gscore>  (272) 
-3.61513

>  <r_i_glide_lipo>  (272) 
-0.208021

>  <r_i_glide_hbond>  (272) 
0

>  <r_i_glide_metal>  (272) 
-0

>  <r_i_glide_rewards>  (272) 
-2.01846

>  <r_i_glide_evdw>  (272) 
-23.3642

>  <r_i_glide_ecoul>  (272) 
-6.54756

>  <r_i_glide_erotb>  (272) 
0.781903

>  <r_i_glide_esite>  (272) 
-0.0202151

>  <r_i_glide_emodel>  (272) 
-36.5098

>  <r_i_glide_energy>  (272) 
-29.9117

>  <r_i_glide_einternal>  (272) 
1.717

>  <r_i_glide_intrahb_reward>  (272) 
-0

>  <i_i_glide_confnum>  (272) 
2

>  <i_i_glide_posenum>  (272) 
38

>  <r_i_glide_eff_state_penalty>  (272) 
0

>  <ligand_id>  (272) 
76

>  <original_smiles>  (272) 
c1nnn(C2CC2)c1C1CC2CCC1N2

>  <smiles>  (272) 
[H]c1nnn(C2([H])C([H])([H])C2([H])[H])c1C1([H])C([H])([H])C2([H])C([H])([H])C([H])([H])C1([H])[N+]2([H])[H]

$$$$
77:0:0
     RDKit          3D

 72 77  0  0  1  0  0  0  0  0999 V2000
    3.1774   -9.7452    6.9726 C   0  0  0  0  0  0  0  0  0  0  0  0
    2.5436   -8.7161    6.0270 C   0  0  2  0  0  0  0  0  0  0  0  0
    1.0485   -8.4690    6.3238 C   0  0  0  0  0  0  0  0  0  0  0  0
    0.2824   -8.8929    5.0671 C   0  0  1  0  0  0  0  0  0  0  0  0
   -0.9314   -8.2030    4.8579 O   0  0  0  0  0  0  0  0  0  0  0  0
    1.2787   -8.8507    3.8959 C   0  0  2  0  0  0  0  0  0  0  0  0
    2.6419   -9.1401    4.5384 C   0  0  1  0  0  0  0  0  0  0  0  0
    3.6807   -8.3705    3.7018 C   0  0  0  0  0  0  0  0  0  0  0  0
    2.9071   -7.8096    2.4916 C   0  0  2  0  0  0  0  0  0  0  0  0
    3.5477   -6.5880    1.7759 C   0  0  2  0  0  0  0  0  0  0  0  0
    5.0019   -6.8466    1.3614 C   0  0  0  0  0  0  0  0  0  0  0  0
    5.5074   -5.6965    0.4946 C   0  0  0  0  0  0  0  0  0  0  0  0
    5.4702   -4.3503    1.2400 C   0  0  1  0  0  0  0  0  0  0  0  0
    5.7044   -3.2095    0.2455 C   0  0  0  0  0  0  0  0  0  0  0  0
    4.3114   -2.8165   -0.2683 C   0  0  1  0  0  0  0  0  0  0  0  0
    4.1082   -3.2357   -1.6797 N   0  0  0  0  0  0  0  0  0  0  0  0
    3.0210   -2.5260   -2.3955 C   0  0  0  0  0  0  0  0  0  0  0  0
    2.9401   -2.8901   -3.8864 C   0  0  0  0  0  0  0  0  0  0  0  0
    3.8176   -1.6679   -4.1857 C   0  0  0  0  0  0  0  0  0  0  0  0
    3.4047   -1.0970   -2.8273 C   0  0  0  0  0  0  0  0  0  0  0  0
    3.2992   -3.4737    0.6891 C   0  0  0  0  0  0  0  0  0  0  0  0
    4.0990   -4.0299    1.8898 C   0  0  2  0  0  0  0  0  0  0  0  0
    4.3064   -2.9237    2.9605 C   0  0  0  0  0  0  0  0  0  0  0  0
    3.4427   -5.2735    2.5941 C   0  0  1  0  0  0  0  0  0  0  0  0
    1.9693   -5.0488    2.9977 C   0  0  0  0  0  0  0  0  0  0  0  0
    1.4023   -6.2403    3.7867 C   0  0  0  0  0  0  0  0  0  0  0  0
    1.4693   -7.5816    3.0117 C   0  0  2  0  0  0  0  0  0  0  0  0
    0.4508   -7.5779    1.8508 C   0  0  0  0  0  0  0  0  0  0  0  0
    2.6845  -10.7122    6.8740 H   0  0  0  0  0  0  0  0  0  0  0  0
    3.0952   -9.4361    8.0149 H   0  0  0  0  0  0  0  0  0  0  0  0
    4.2350   -9.8876    6.7485 H   0  0  0  0  0  0  0  0  0  0  0  0
    3.0650   -7.7713    6.1881 H   0  0  0  0  0  0  0  0  0  0  0  0
    0.6980   -9.0216    7.1966 H   0  0  0  0  0  0  0  0  0  0  0  0
    0.8830   -7.4132    6.5376 H   0  0  0  0  0  0  0  0  0  0  0  0
    0.0061   -9.9371    5.2117 H   0  0  0  0  0  0  0  0  0  0  0  0
   -1.6207   -8.8572    4.8754 H   0  0  0  0  0  0  0  0  0  0  0  0
    1.0326   -9.6760    3.2244 H   0  0  0  0  0  0  0  0  0  0  0  0
    2.8165  -10.2164    4.4726 H   0  0  0  0  0  0  0  0  0  0  0  0
    4.1351   -7.5694    4.2823 H   0  0  0  0  0  0  0  0  0  0  0  0
    4.4878   -9.0301    3.3814 H   0  0  0  0  0  0  0  0  0  0  0  0
    2.8674   -8.6197    1.7613 H   0  0  0  0  0  0  0  0  0  0  0  0
    2.9781   -6.4579    0.8530 H   0  0  0  0  0  0  0  0  0  0  0  0
    5.6456   -6.9554    2.2349 H   0  0  0  0  0  0  0  0  0  0  0  0
    5.0701   -7.7815    0.8037 H   0  0  0  0  0  0  0  0  0  0  0  0
    6.5261   -5.9080    0.1705 H   0  0  0  0  0  0  0  0  0  0  0  0
    4.8964   -5.6495   -0.4089 H   0  0  0  0  0  0  0  0  0  0  0  0
    6.2608   -4.3645    1.9916 H   0  0  0  0  0  0  0  0  0  0  0  0
    6.1362   -2.3596    0.7717 H   0  0  0  0  0  0  0  0  0  0  0  0
    6.4165   -3.4647   -0.5411 H   0  0  0  0  0  0  0  0  0  0  0  0
    4.2251   -1.7315   -0.1991 H   0  0  0  0  0  0  0  0  0  0  0  0
    4.9595   -3.0626   -2.1861 H   0  0  0  0  0  0  0  0  0  0  0  0
    2.0542   -2.6201   -1.9002 H   0  0  0  0  0  0  0  0  0  0  0  0
    3.3688   -3.8528   -4.1710 H   0  0  0  0  0  0  0  0  0  0  0  0
    1.9299   -2.7740   -4.2864 H   0  0  0  0  0  0  0  0  0  0  0  0
    4.8837   -1.9087   -4.2259 H   0  0  0  0  0  0  0  0  0  0  0  0
    3.5019   -1.0712   -5.0459 H   0  0  0  0  0  0  0  0  0  0  0  0
    2.5437   -0.4346   -2.9091 H   0  0  0  0  0  0  0  0  0  0  0  0
    4.2155   -0.6168   -2.2823 H   0  0  0  0  0  0  0  0  0  0  0  0
    2.5392   -2.7583    1.0016 H   0  0  0  0  0  0  0  0  0  0  0  0
    2.7728   -4.2763    0.1752 H   0  0  0  0  0  0  0  0  0  0  0  0
    3.3676   -2.5864    3.3965 H   0  0  0  0  0  0  0  0  0  0  0  0
    4.7966   -2.0317    2.5712 H   0  0  0  0  0  0  0  0  0  0  0  0
    4.9247   -3.2879    3.7826 H   0  0  0  0  0  0  0  0  0  0  0  0
    4.0065   -5.4257    3.5192 H   0  0  0  0  0  0  0  0  0  0  0  0
    1.8699   -4.1588    3.6145 H   0  0  0  0  0  0  0  0  0  0  0  0
    1.3649   -4.8662    2.1114 H   0  0  0  0  0  0  0  0  0  0  0  0
    1.9673   -6.3147    4.7173 H   0  0  0  0  0  0  0  0  0  0  0  0
    0.3758   -6.0219    4.0749 H   0  0  0  0  0  0  0  0  0  0  0  0
    0.6336   -6.7876    1.1283 H   0  0  0  0  0  0  0  0  0  0  0  0
   -0.5687   -7.4689    2.2188 H   0  0  0  0  0  0  0  0  0  0  0  0
    0.4990   -8.5126    1.2954 H   0  0  0  0  0  0  0  0  0  0  0  0
    3.9165   -4.2287   -1.6999 H   0  0  0  0  0  0  0  0  0  0  0  0
  1  2  1  0
  1 29  1  0
  1 30  1  0
  1 31  1  0
  2  7  1  0
  2  3  1  0
  2 32  1  6
  3  4  1  0
  3 33  1  0
  3 34  1  0
  4  5  1  0
  4  6  1  0
  4 35  1  1
  5 36  1  0
  6 27  1  0
  6  7  1  0
  6 37  1  6
  7  8  1  0
  7 38  1  1
  8  9  1  0
  8 39  1  0
  8 40  1  0
  9 27  1  0
  9 10  1  0
  9 41  1  6
 10 24  1  0
 10 11  1  0
 10 42  1  6
 11 12  1  0
 11 43  1  0
 11 44  1  0
 12 13  1  0
 12 45  1  0
 12 46  1  0
 13 22  1  0
 13 14  1  0
 13 47  1  1
 14 15  1  0
 14 48  1  0
 14 49  1  0
 15 16  1  0
 15 21  1  0
 15 50  1  6
 16 17  1  0
 16 51  1  0
 16 72  1  0
 17 20  1  0
 17 18  1  0
 17 52  1  0
 18 19  1  0
 18 53  1  0
 18 54  1  0
 19 20  1  0
 19 55  1  0
 19 56  1  0
 20 57  1  0
 20 58  1  0
 21 22  1  0
 21 59  1  0
 21 60  1  0
 22 23  1  1
 22 24  1  0
 23 61  1  0
 23 62  1  0
 23 63  1  0
 24 25  1  0
 24 64  1  1
 25 26  1  0
 25 65  1  0
 25 66  1  0
 26 27  1  0
 26 67  1  0
 26 68  1  0
 27 28  1  6
 28 69  1  0
 28 70  1  0
 28 71  1  0
M  CHG  1  16   1
M  END
>  <i_m_ct_stereo_status>  (273) 
1

>  <s_m_source_file>  (273) 
/var/tmp/pbs.5076255.sched01/tmp2672eyar/80wl2hclo4.sdf

>  <i_m_source_file_index>  (273) 
26

>  <i_lp_mmshare_version>  (273) 
48012

>  <i_f3d_flags>  (273) 
0

>  <s_epik_input>  (273) 
W09IXVtDQEBIXTFbQ0gyXVtDQEBIXShbQ0gzXSlbQ0BIXShbQ0gyXTIpW0NAQEhdMVtDQEBdKFtDSDNdKShbQ0gyXVtDSDJdW0NAQEhdMzQpW0NASF0yW0NAQEhdM1tDSDJdW0NIMl1bQ0BIXShbQ0BdNDVbQ0gzXSlbQ0gyXVtDQEhdKFtDSDJdNSlbTkhdW0NIXTZbQ0gyXVtDSDJdW0NIMl02

>  <s_epik_cmdline>  (273) 
J2VwaWtfcHl0aG9uJywgJy1waHQnLCAnMi4wJywgJy1waCcsICc3LjAnLCAnLXRuJywgJzgnLCAnLW1hJywgJzIwMCcsICctaW1hZScsICc8aW5maWxlLm1hZT4nLCAnLW9tYWUnLCAnPG91dGZpbGUubWFlPic=

>  <r_lp_tautomer_probability>  (273) 
1

>  <r_epik_Ionization_Penalty>  (273) 
4.83794e-05

>  <r_epik_Ionization_Penalty_Charging>  (273) 
4.56457e-05

>  <r_epik_Ionization_Penalty_Neutral>  (273) 
2.73371e-06

>  <r_epik_State_Penalty>  (273) 
-0

>  <r_epik_Charging_Adjusted_Penalty>  (273) 
4.56457e-05

>  <i_epik_Tot_Q>  (273) 
1

>  <i_epik_Tot_abs_Q>  (273) 
1

>  <s_lp_Force_Field>  (273) 
OPLS3e

>  <r_lp_Energy>  (273) 
66.8811

>  <b_lp_Chiralities_Consistent>  (273) 
1

>  <s_lp_Variant>  (273) 
77:0-1

>  <s_i_glide_gridfile>  (273) 
pfpi4k_grid

>  <i_i_glide_lignum>  (273) 
26

>  <i_i_glide_rotatable_bonds>  (273) 
3

>  <r_i_docking_score>  (273) 
-3.58565

>  <r_i_glide_ligand_efficiency>  (273) 
-0.128059

>  <r_i_glide_ligand_efficiency_sa>  (273) 
-0.388862

>  <r_i_glide_ligand_efficiency_ln>  (273) 
-0.827672

>  <r_i_glide_gscore>  (273) 
-3.58565

>  <r_i_glide_lipo>  (273) 
-0.484905

>  <r_i_glide_hbond>  (273) 
-0.0614731

>  <r_i_glide_metal>  (273) 
-0

>  <r_i_glide_rewards>  (273) 
-0.772952

>  <r_i_glide_evdw>  (273) 
-30.8711

>  <r_i_glide_ecoul>  (273) 
-6.40711

>  <r_i_glide_erotb>  (273) 
0.260432

>  <r_i_glide_esite>  (273) 
-0.0221269

>  <r_i_glide_emodel>  (273) 
-45.4607

>  <r_i_glide_energy>  (273) 
-37.2782

>  <r_i_glide_einternal>  (273) 
1.78554

>  <r_i_glide_intrahb_reward>  (273) 
-0

>  <i_i_glide_confnum>  (273) 
1

>  <i_i_glide_posenum>  (273) 
1

>  <r_i_glide_eff_state_penalty>  (273) 
0

>  <ligand_id>  (273) 
77

>  <original_smiles>  (273) 
CC1CC(O)C2C1CC1C3CCC4CC(NC5CCC5)CC4(C)C3CCC12C

>  <smiles>  (273) 
[H]OC1([H])C([H])([H])C([H])(C([H])([H])[H])C2([H])C([H])([H])C3([H])C4([H])C([H])([H])C([H])([H])C5([H])C([H])([H])C([H])([N+]([H])([H])C6([H])C([H])([H])C([H])([H])C6([H])[H])C([H])([H])C5(C([H])([H])[H])C4([H])C([H])([H])C([H])([H])C3(C([H])([H])[H])C12[H]

$$$$
77:0:1
     RDKit          3D

 72 77  0  0  1  0  0  0  0  0999 V2000
    8.5813   -1.9472    0.1567 C   0  0  0  0  0  0  0  0  0  0  0  0
    7.3692   -2.8541   -0.0873 C   0  0  2  0  0  0  0  0  0  0  0  0
    6.8381   -2.7335   -1.5255 C   0  0  0  0  0  0  0  0  0  0  0  0
    5.4000   -2.2131   -1.4238 C   0  0  1  0  0  0  0  0  0  0  0  0
    4.5851   -2.6408   -2.4993 O   0  0  0  0  0  0  0  0  0  0  0  0
    4.9092   -2.5511   -0.0018 C   0  0  2  0  0  0  0  0  0  0  0  0
    6.1770   -2.5621    0.8566 C   0  0  1  0  0  0  0  0  0  0  0  0
    5.9373   -3.6102    1.9588 C   0  0  0  0  0  0  0  0  0  0  0  0
    4.4752   -4.0463    1.8287 C   0  0  2  0  0  0  0  0  0  0  0  0
    4.1180   -5.4366    2.4302 C   0  0  2  0  0  0  0  0  0  0  0  0
    4.5177   -5.5573    3.8999 C   0  0  0  0  0  0  0  0  0  0  0  0
    3.9547   -6.8500    4.4777 C   0  0  0  0  0  0  0  0  0  0  0  0
    4.4976   -8.1165    3.7706 C   0  0  1  0  0  0  0  0  0  0  0  0
    3.6688   -9.3395    4.1965 C   0  0  0  0  0  0  0  0  0  0  0  0
    2.4872   -9.4166    3.2047 C   0  0  1  0  0  0  0  0  0  0  0  0
    1.1977   -9.0300    3.8232 N   0  0  0  0  0  0  0  0  0  0  0  0
   -0.0094   -9.0073    2.9596 C   0  0  0  0  0  0  0  0  0  0  0  0
   -0.2337   -7.7094    2.1500 C   0  0  0  0  0  0  0  0  0  0  0  0
   -1.1152   -7.2097    3.3038 C   0  0  0  0  0  0  0  0  0  0  0  0
   -1.3039   -8.6553    3.7159 C   0  0  0  0  0  0  0  0  0  0  0  0
    2.8840   -8.4743    2.0372 C   0  0  0  0  0  0  0  0  0  0  0  0
    4.3592   -8.0603    2.2178 C   0  0  2  0  0  0  0  0  0  0  0  0
    5.2996   -9.1092    1.5637 C   0  0  0  0  0  0  0  0  0  0  0  0
    4.6811   -6.6360    1.6161 C   0  0  1  0  0  0  0  0  0  0  0  0
    4.2315   -6.4542    0.1542 C   0  0  0  0  0  0  0  0  0  0  0  0
    4.7204   -5.1164   -0.4206 C   0  0  0  0  0  0  0  0  0  0  0  0
    4.1612   -3.8779    0.3230 C   0  0  2  0  0  0  0  0  0  0  0  0
    2.6467   -3.6997    0.0725 C   0  0  0  0  0  0  0  0  0  0  0  0
    8.3418   -0.8859    0.0781 H   0  0  0  0  0  0  0  0  0  0  0  0
    9.3699   -2.1953   -0.5499 H   0  0  0  0  0  0  0  0  0  0  0  0
    9.0276   -2.1029    1.1319 H   0  0  0  0  0  0  0  0  0  0  0  0
    7.7174   -3.8808    0.0487 H   0  0  0  0  0  0  0  0  0  0  0  0
    7.4574   -2.0806   -2.1382 H   0  0  0  0  0  0  0  0  0  0  0  0
    6.8720   -3.7032   -2.0214 H   0  0  0  0  0  0  0  0  0  0  0  0
    5.4461   -1.1190   -1.4861 H   0  0  0  0  0  0  0  0  0  0  0  0
    4.3746   -3.5535   -2.3685 H   0  0  0  0  0  0  0  0  0  0  0  0
    4.2699   -1.7323    0.3373 H   0  0  0  0  0  0  0  0  0  0  0  0
    6.2984   -1.5771    1.3059 H   0  0  0  0  0  0  0  0  0  0  0  0
    6.6088   -4.4613    1.8495 H   0  0  0  0  0  0  0  0  0  0  0  0
    6.1080   -3.1852    2.9435 H   0  0  0  0  0  0  0  0  0  0  0  0
    3.8871   -3.3035    2.3624 H   0  0  0  0  0  0  0  0  0  0  0  0
    3.0316   -5.4758    2.4055 H   0  0  0  0  0  0  0  0  0  0  0  0
    5.6032   -5.5598    4.0058 H   0  0  0  0  0  0  0  0  0  0  0  0
    4.1404   -4.7053    4.4680 H   0  0  0  0  0  0  0  0  0  0  0  0
    4.2118   -6.9042    5.5299 H   0  0  0  0  0  0  0  0  0  0  0  0
    2.8656   -6.8162    4.4232 H   0  0  0  0  0  0  0  0  0  0  0  0
    5.5466   -8.2406    4.0507 H   0  0  0  0  0  0  0  0  0  0  0  0
    4.2703  -10.2233    4.0733 H   0  0  0  0  0  0  0  0  0  0  0  0
    3.3738   -9.3161    5.2467 H   0  0  0  0  0  0  0  0  0  0  0  0
    2.3938  -10.4553    2.8582 H   0  0  0  0  0  0  0  0  0  0  0  0
    1.0380   -9.7033    4.5632 H   0  0  0  0  0  0  0  0  0  0  0  0
   -0.1096   -9.9395    2.3981 H   0  0  0  0  0  0  0  0  0  0  0  0
    0.5566   -6.9940    1.9652 H   0  0  0  0  0  0  0  0  0  0  0  0
   -0.8308   -7.9206    1.2534 H   0  0  0  0  0  0  0  0  0  0  0  0
   -0.5388   -6.6468    4.0326 H   0  0  0  0  0  0  0  0  0  0  0  0
   -2.0188   -6.6711    2.9935 H   0  0  0  0  0  0  0  0  0  0  0  0
   -2.1820   -9.0956    3.2500 H   0  0  0  0  0  0  0  0  0  0  0  0
   -1.3204   -8.8393    4.7904 H   0  0  0  0  0  0  0  0  0  0  0  0
    2.7001   -8.9490    1.0702 H   0  0  0  0  0  0  0  0  0  0  0  0
    2.3326   -7.5626    2.0956 H   0  0  0  0  0  0  0  0  0  0  0  0
    5.1380   -9.1662    0.4896 H   0  0  0  0  0  0  0  0  0  0  0  0
    5.1356  -10.1111    1.9436 H   0  0  0  0  0  0  0  0  0  0  0  0
    6.3432   -8.8545    1.7250 H   0  0  0  0  0  0  0  0  0  0  0  0
    5.7629   -6.5552    1.6216 H   0  0  0  0  0  0  0  0  0  0  0  0
    4.6121   -7.2526   -0.4777 H   0  0  0  0  0  0  0  0  0  0  0  0
    3.1454   -6.5074    0.0896 H   0  0  0  0  0  0  0  0  0  0  0  0
    5.8073   -5.1153   -0.4026 H   0  0  0  0  0  0  0  0  0  0  0  0
    4.4530   -5.0538   -1.4654 H   0  0  0  0  0  0  0  0  0  0  0  0
    2.0779   -4.5647    0.4045 H   0  0  0  0  0  0  0  0  0  0  0  0
    2.4351   -3.5471   -0.9827 H   0  0  0  0  0  0  0  0  0  0  0  0
    2.2572   -2.8337    0.6065 H   0  0  0  0  0  0  0  0  0  0  0  0
    1.3123   -8.1201    4.2591 H   0  0  0  0  0  0  0  0  0  0  0  0
  1  2  1  0
  1 29  1  0
  1 30  1  0
  1 31  1  0
  2  7  1  0
  2  3  1  0
  2 32  1  1
  3  4  1  0
  3 33  1  0
  3 34  1  0
  4  5  1  0
  4  6  1  0
  4 35  1  1
  5 36  1  0
  6 27  1  0
  6  7  1  0
  6 37  1  1
  7  8  1  0
  7 38  1  1
  8  9  1  0
  8 39  1  0
  8 40  1  0
  9 27  1  0
  9 10  1  0
  9 41  1  1
 10 24  1  0
 10 11  1  0
 10 42  1  1
 11 12  1  0
 11 43  1  0
 11 44  1  0
 12 13  1  0
 12 45  1  0
 12 46  1  0
 13 22  1  0
 13 14  1  0
 13 47  1  6
 14 15  1  0
 14 48  1  0
 14 49  1  0
 15 16  1  0
 15 21  1  0
 15 50  1  6
 16 17  1  0
 16 51  1  0
 16 72  1  0
 17 20  1  0
 17 18  1  0
 17 52  1  0
 18 19  1  0
 18 53  1  0
 18 54  1  0
 19 20  1  0
 19 55  1  0
 19 56  1  0
 20 57  1  0
 20 58  1  0
 21 22  1  0
 21 59  1  0
 21 60  1  0
 22 23  1  6
 22 24  1  0
 23 61  1  0
 23 62  1  0
 23 63  1  0
 24 25  1  0
 24 64  1  6
 25 26  1  0
 25 65  1  0
 25 66  1  0
 26 27  1  0
 26 67  1  0
 26 68  1  0
 27 28  1  1
 28 69  1  0
 28 70  1  0
 28 71  1  0
M  CHG  1  16   1
M  END
>  <i_m_ct_stereo_status>  (274) 
1

>  <s_m_source_file>  (274) 
/var/tmp/pbs.5076255.sched01/tmp2672eyar/80wl2hclo4.sdf

>  <i_m_source_file_index>  (274) 
26

>  <i_lp_mmshare_version>  (274) 
48012

>  <i_f3d_flags>  (274) 
0

>  <s_epik_input>  (274) 
W09IXVtDQEBIXTFbQ0gyXVtDQEBIXShbQ0gzXSlbQ0BIXShbQ0gyXTIpW0NAQEhdMVtDQEBdKFtDSDNdKShbQ0gyXVtDSDJdW0NAQEhdMzQpW0NASF0yW0NAQEhdM1tDSDJdW0NIMl1bQ0BIXShbQ0BdNDVbQ0gzXSlbQ0gyXVtDQEhdKFtDSDJdNSlbTkhdW0NIXTZbQ0gyXVtDSDJdW0NIMl02

>  <s_epik_cmdline>  (274) 
J2VwaWtfcHl0aG9uJywgJy1waHQnLCAnMi4wJywgJy1waCcsICc3LjAnLCAnLXRuJywgJzgnLCAnLW1hJywgJzIwMCcsICctaW1hZScsICc8aW5maWxlLm1hZT4nLCAnLW9tYWUnLCAnPG91dGZpbGUubWFlPic=

>  <r_lp_tautomer_probability>  (274) 
1

>  <r_epik_Ionization_Penalty>  (274) 
4.83794e-05

>  <r_epik_Ionization_Penalty_Charging>  (274) 
4.56457e-05

>  <r_epik_Ionization_Penalty_Neutral>  (274) 
2.73371e-06

>  <r_epik_State_Penalty>  (274) 
-0

>  <r_epik_Charging_Adjusted_Penalty>  (274) 
4.56457e-05

>  <i_epik_Tot_Q>  (274) 
1

>  <i_epik_Tot_abs_Q>  (274) 
1

>  <s_lp_Force_Field>  (274) 
OPLS3e

>  <r_lp_Energy>  (274) 
66.8811

>  <b_lp_Chiralities_Consistent>  (274) 
1

>  <s_lp_Variant>  (274) 
77:0-1

>  <s_i_glide_gridfile>  (274) 
pfpi4k_grid

>  <i_i_glide_lignum>  (274) 
26

>  <i_i_glide_rotatable_bonds>  (274) 
3

>  <r_i_docking_score>  (274) 
-2.8841

>  <r_i_glide_ligand_efficiency>  (274) 
-0.103004

>  <r_i_glide_ligand_efficiency_sa>  (274) 
-0.31278

>  <r_i_glide_ligand_efficiency_ln>  (274) 
-0.665735

>  <r_i_glide_gscore>  (274) 
-2.8841

>  <r_i_glide_lipo>  (274) 
-0.407652

>  <r_i_glide_hbond>  (274) 
0

>  <r_i_glide_metal>  (274) 
-0

>  <r_i_glide_rewards>  (274) 
-0.772952

>  <r_i_glide_evdw>  (274) 
-28.5884

>  <r_i_glide_ecoul>  (274) 
-3.45478

>  <r_i_glide_erotb>  (274) 
0.260432

>  <r_i_glide_esite>  (274) 
-0.0162909

>  <r_i_glide_emodel>  (274) 
-37.7062

>  <r_i_glide_energy>  (274) 
-32.0432

>  <r_i_glide_einternal>  (274) 
0.756985

>  <r_i_glide_intrahb_reward>  (274) 
-0

>  <i_i_glide_confnum>  (274) 
2

>  <i_i_glide_posenum>  (274) 
2

>  <r_i_glide_eff_state_penalty>  (274) 
0

>  <ligand_id>  (274) 
77

>  <original_smiles>  (274) 
CC1CC(O)C2C1CC1C3CCC4CC(NC5CCC5)CC4(C)C3CCC12C

>  <smiles>  (274) 
[H]OC1([H])C([H])([H])C([H])(C([H])([H])[H])C2([H])C([H])([H])C3([H])C4([H])C([H])([H])C([H])([H])C5([H])C([H])([H])C([H])([N+]([H])([H])C6([H])C([H])([H])C([H])([H])C6([H])[H])C([H])([H])C5(C([H])([H])[H])C4([H])C([H])([H])C([H])([H])C3(C([H])([H])[H])C12[H]

$$$$
77:0:2
     RDKit          3D

 72 77  0  0  1  0  0  0  0  0999 V2000
    8.9186   -2.0990    0.2615 C   0  0  0  0  0  0  0  0  0  0  0  0
    7.6913   -2.9530   -0.0897 C   0  0  2  0  0  0  0  0  0  0  0  0
    7.2710   -2.8563   -1.5706 C   0  0  0  0  0  0  0  0  0  0  0  0
    5.8492   -2.2795   -1.6014 C   0  0  1  0  0  0  0  0  0  0  0  0
    5.0866   -2.7110   -2.7053 O   0  0  0  0  0  0  0  0  0  0  0  0
    5.2398   -2.5425   -0.2117 C   0  0  2  0  0  0  0  0  0  0  0  0
    6.4416   -2.5740    0.7427 C   0  0  1  0  0  0  0  0  0  0  0  0
    6.0647   -3.5648    1.8596 C   0  0  0  0  0  0  0  0  0  0  0  0
    4.6039   -3.9489    1.6259 C   0  0  2  0  0  0  0  0  0  0  0  0
    4.1584   -5.2941    2.2642 C   0  0  2  0  0  0  0  0  0  0  0  0
    4.4560   -5.3797    3.7631 C   0  0  0  0  0  0  0  0  0  0  0  0
    3.8004   -6.6339    4.3437 C   0  0  0  0  0  0  0  0  0  0  0  0
    4.3280   -7.9326    3.6999 C   0  0  1  0  0  0  0  0  0  0  0  0
    3.4165   -9.1065    4.1056 C   0  0  0  0  0  0  0  0  0  0  0  0
    2.3225   -9.1777    3.0337 C   0  0  1  0  0  0  0  0  0  0  0  0
    1.0094   -8.7557    3.5822 N   0  0  0  0  0  0  0  0  0  0  0  0
   -0.0484   -8.4327    2.5965 C   0  0  0  0  0  0  0  0  0  0  0  0
   -0.9147   -7.2273    3.0131 C   0  0  0  0  0  0  0  0  0  0  0  0
   -1.9122   -8.2107    3.6256 C   0  0  0  0  0  0  0  0  0  0  0  0
   -1.3076   -9.2945    2.7276 C   0  0  0  0  0  0  0  0  0  0  0  0
    2.8127   -8.2758    1.8813 C   0  0  0  0  0  0  0  0  0  0  0  0
    4.2822   -7.9153    2.1548 C   0  0  2  0  0  0  0  0  0  0  0  0
    5.2114   -9.0286    1.6024 C   0  0  0  0  0  0  0  0  0  0  0  0
    4.7251   -6.5401    1.5442 C   0  0  1  0  0  0  0  0  0  0  0  0
    4.3927   -6.3941    0.0580 C   0  0  0  0  0  0  0  0  0  0  0  0
    4.9673   -5.1002   -0.5483 C   0  0  0  0  0  0  0  0  0  0  0  0
    4.4126   -3.8242    0.1055 C   0  0  2  0  0  0  0  0  0  0  0  0
    2.9319   -3.6014   -0.2599 C   0  0  0  0  0  0  0  0  0  0  0  0
    8.7421   -1.0375    0.0911 H   0  0  0  0  0  0  0  0  0  0  0  0
    9.7810   -2.3913   -0.3181 H   0  0  0  0  0  0  0  0  0  0  0  0
    9.2750   -2.2137    1.2788 H   0  0  0  0  0  0  0  0  0  0  0  0
    7.9743   -3.9868    0.0924 H   0  0  0  0  0  0  0  0  0  0  0  0
    7.9634   -2.2627   -2.1667 H   0  0  0  0  0  0  0  0  0  0  0  0
    7.2834   -3.8414   -2.0335 H   0  0  0  0  0  0  0  0  0  0  0  0
    5.9256   -1.1999   -1.7021 H   0  0  0  0  0  0  0  0  0  0  0  0
    4.8807   -3.6355   -2.6034 H   0  0  0  0  0  0  0  0  0  0  0  0
    4.6129   -1.6883    0.0512 H   0  0  0  0  0  0  0  0  0  0  0  0
    6.5711   -1.5737    1.1605 H   0  0  0  0  0  0  0  0  0  0  0  0
    6.7203   -4.4368    1.8487 H   0  0  0  0  0  0  0  0  0  0  0  0
    6.1353   -3.1039    2.8443 H   0  0  0  0  0  0  0  0  0  0  0  0
    4.0124   -3.1599    2.0949 H   0  0  0  0  0  0  0  0  0  0  0  0
    3.0733   -5.3070    2.1580 H   0  0  0  0  0  0  0  0  0  0  0  0
    5.5309   -5.4193    3.9403 H   0  0  0  0  0  0  0  0  0  0  0  0
    4.0787   -4.4922    4.2689 H   0  0  0  0  0  0  0  0  0  0  0  0
    3.9845   -6.6539    5.4210 H   0  0  0  0  0  0  0  0  0  0  0  0
    2.7201   -6.5498    4.2141 H   0  0  0  0  0  0  0  0  0  0  0  0
    5.3467   -8.0929    4.0570 H   0  0  0  0  0  0  0  0  0  0  0  0
    4.0018  -10.0287    4.0629 H   0  0  0  0  0  0  0  0  0  0  0  0
    3.0591   -9.0371    5.1348 H   0  0  0  0  0  0  0  0  0  0  0  0
    2.2126  -10.2022    2.6827 H   0  0  0  0  0  0  0  0  0  0  0  0
    0.6676   -9.4788    4.1972 H   0  0  0  0  0  0  0  0  0  0  0  0
    0.2529   -8.3559    1.5512 H   0  0  0  0  0  0  0  0  0  0  0  0
   -0.4661   -6.5298    3.7222 H   0  0  0  0  0  0  0  0  0  0  0  0
   -1.3336   -6.7155    2.1462 H   0  0  0  0  0  0  0  0  0  0  0  0
   -1.7458   -8.4048    4.6928 H   0  0  0  0  0  0  0  0  0  0  0  0
   -2.9589   -7.9765    3.4139 H   0  0  0  0  0  0  0  0  0  0  0  0
   -1.8353   -9.4012    1.7794 H   0  0  0  0  0  0  0  0  0  0  0  0
   -1.1475  -10.2531    3.2148 H   0  0  0  0  0  0  0  0  0  0  0  0
    2.6944   -8.7947    0.9268 H   0  0  0  0  0  0  0  0  0  0  0  0
    2.2367   -7.3594    1.8255 H   0  0  0  0  0  0  0  0  0  0  0  0
    5.1383   -9.1306    0.5214 H   0  0  0  0  0  0  0  0  0  0  0  0
    4.9890  -10.0154    2.0089 H   0  0  0  0  0  0  0  0  0  0  0  0
    6.2561   -8.8159    1.8335 H   0  0  0  0  0  0  0  0  0  0  0  0
    5.8141   -6.5118    1.6279 H   0  0  0  0  0  0  0  0  0  0  0  0
    4.7713   -7.2388   -0.5074 H   0  0  0  0  0  0  0  0  0  0  0  0
    3.3170   -6.4018   -0.0952 H   0  0  0  0  0  0  0  0  0  0  0  0
    6.0489   -5.1416   -0.4509 H   0  0  0  0  0  0  0  0  0  0  0  0
    4.7528   -5.0846   -1.6161 H   0  0  0  0  0  0  0  0  0  0  0  0
    2.2970   -4.4249    0.0584 H   0  0  0  0  0  0  0  0  0  0  0  0
    2.7984   -3.4822   -1.3359 H   0  0  0  0  0  0  0  0  0  0  0  0
    2.5390   -2.6990    0.2123 H   0  0  0  0  0  0  0  0  0  0  0  0
    1.1775   -7.9325    4.1334 H   0  0  0  0  0  0  0  0  0  0  0  0
  1  2  1  0
  1 29  1  0
  1 30  1  0
  1 31  1  0
  2  7  1  0
  2  3  1  0
  2 32  1  1
  3  4  1  0
  3 33  1  0
  3 34  1  0
  4  5  1  0
  4  6  1  0
  4 35  1  6
  5 36  1  0
  6 27  1  0
  6  7  1  0
  6 37  1  1
  7  8  1  0
  7 38  1  1
  8  9  1  0
  8 39  1  0
  8 40  1  0
  9 27  1  0
  9 10  1  0
  9 41  1  1
 10 24  1  0
 10 11  1  0
 10 42  1  1
 11 12  1  0
 11 43  1  0
 11 44  1  0
 12 13  1  0
 12 45  1  0
 12 46  1  0
 13 22  1  0
 13 14  1  0
 13 47  1  6
 14 15  1  0
 14 48  1  0
 14 49  1  0
 15 16  1  0
 15 21  1  0
 15 50  1  6
 16 17  1  0
 16 51  1  0
 16 72  1  0
 17 20  1  0
 17 18  1  0
 17 52  1  0
 18 19  1  0
 18 53  1  0
 18 54  1  0
 19 20  1  0
 19 55  1  0
 19 56  1  0
 20 57  1  0
 20 58  1  0
 21 22  1  0
 21 59  1  0
 21 60  1  0
 22 23  1  6
 22 24  1  0
 23 61  1  0
 23 62  1  0
 23 63  1  0
 24 25  1  0
 24 64  1  6
 25 26  1  0
 25 65  1  0
 25 66  1  0
 26 27  1  0
 26 67  1  0
 26 68  1  0
 27 28  1  1
 28 69  1  0
 28 70  1  0
 28 71  1  0
M  CHG  1  16   1
M  END
>  <i_m_ct_stereo_status>  (275) 
1

>  <s_m_source_file>  (275) 
/var/tmp/pbs.5076255.sched01/tmp2672eyar/80wl2hclo4.sdf

>  <i_m_source_file_index>  (275) 
26

>  <i_lp_mmshare_version>  (275) 
48012

>  <i_f3d_flags>  (275) 
0

>  <s_epik_input>  (275) 
W09IXVtDQEBIXTFbQ0gyXVtDQEBIXShbQ0gzXSlbQ0BIXShbQ0gyXTIpW0NAQEhdMVtDQEBdKFtDSDNdKShbQ0gyXVtDSDJdW0NAQEhdMzQpW0NASF0yW0NAQEhdM1tDSDJdW0NIMl1bQ0BIXShbQ0BdNDVbQ0gzXSlbQ0gyXVtDQEhdKFtDSDJdNSlbTkhdW0NIXTZbQ0gyXVtDSDJdW0NIMl02

>  <s_epik_cmdline>  (275) 
J2VwaWtfcHl0aG9uJywgJy1waHQnLCAnMi4wJywgJy1waCcsICc3LjAnLCAnLXRuJywgJzgnLCAnLW1hJywgJzIwMCcsICctaW1hZScsICc8aW5maWxlLm1hZT4nLCAnLW9tYWUnLCAnPG91dGZpbGUubWFlPic=

>  <r_lp_tautomer_probability>  (275) 
1

>  <r_epik_Ionization_Penalty>  (275) 
4.83794e-05

>  <r_epik_Ionization_Penalty_Charging>  (275) 
4.56457e-05

>  <r_epik_Ionization_Penalty_Neutral>  (275) 
2.73371e-06

>  <r_epik_State_Penalty>  (275) 
-0

>  <r_epik_Charging_Adjusted_Penalty>  (275) 
4.56457e-05

>  <i_epik_Tot_Q>  (275) 
1

>  <i_epik_Tot_abs_Q>  (275) 
1

>  <s_lp_Force_Field>  (275) 
OPLS3e

>  <r_lp_Energy>  (275) 
66.8811

>  <b_lp_Chiralities_Consistent>  (275) 
1

>  <s_lp_Variant>  (275) 
77:0-1

>  <s_i_glide_gridfile>  (275) 
pfpi4k_grid

>  <i_i_glide_lignum>  (275) 
26

>  <i_i_glide_rotatable_bonds>  (275) 
3

>  <r_i_docking_score>  (275) 
-2.87413

>  <r_i_glide_ligand_efficiency>  (275) 
-0.102648

>  <r_i_glide_ligand_efficiency_sa>  (275) 
-0.311699

>  <r_i_glide_ligand_efficiency_ln>  (275) 
-0.663435

>  <r_i_glide_gscore>  (275) 
-2.87413

>  <r_i_glide_lipo>  (275) 
-0.509075

>  <r_i_glide_hbond>  (275) 
0

>  <r_i_glide_metal>  (275) 
-0

>  <r_i_glide_rewards>  (275) 
-0.772952

>  <r_i_glide_evdw>  (275) 
-27.875

>  <r_i_glide_ecoul>  (275) 
-2.94361

>  <r_i_glide_erotb>  (275) 
0.260432

>  <r_i_glide_esite>  (275) 
-0.0172466

>  <r_i_glide_emodel>  (275) 
-36.1604

>  <r_i_glide_energy>  (275) 
-30.8186

>  <r_i_glide_einternal>  (275) 
3.2734

>  <r_i_glide_intrahb_reward>  (275) 
-0

>  <i_i_glide_confnum>  (275) 
1

>  <i_i_glide_posenum>  (275) 
15

>  <r_i_glide_eff_state_penalty>  (275) 
0

>  <ligand_id>  (275) 
77

>  <original_smiles>  (275) 
CC1CC(O)C2C1CC1C3CCC4CC(NC5CCC5)CC4(C)C3CCC12C

>  <smiles>  (275) 
[H]OC1([H])C([H])([H])C([H])(C([H])([H])[H])C2([H])C([H])([H])C3([H])C4([H])C([H])([H])C([H])([H])C5([H])C([H])([H])C([H])([N+]([H])([H])C6([H])C([H])([H])C([H])([H])C6([H])[H])C([H])([H])C5(C([H])([H])[H])C4([H])C([H])([H])C([H])([H])C3(C([H])([H])[H])C12[H]

$$$$
79:0:0
     RDKit          3D

 41 44  0  0  1  0  0  0  0  0999 V2000
    2.7102   -0.5125   -4.6924 C   0  0  0  0  0  0  0  0  0  0  0  0
    2.5366   -1.6888   -3.9021 O   0  0  0  0  0  0  0  0  0  0  0  0
    3.6849   -2.1193   -3.2057 C   0  0  1  0  0  0  0  0  0  0  0  0
    4.3339   -1.0733   -2.3081 C   0  0  0  0  0  0  0  0  0  0  0  0
    4.7139   -1.8127   -1.0188 C   0  0  1  0  0  0  0  0  0  0  0  0
    4.6965   -0.9620    0.2702 C   0  0  0  0  0  0  0  0  0  0  0  0
    4.3406   -1.8082    1.5128 C   0  0  0  0  0  0  0  0  0  0  0  0
    4.7570   -3.2643    1.3578 C   0  0  0  0  0  0  0  0  0  0  0  0
    5.7036   -3.7958    2.1530 C   0  0  0  0  0  0  0  0  0  0  0  0
    6.1838   -5.1792    1.9800 C   0  0  0  0  0  0  0  0  0  0  0  0
    7.0284   -5.6887    2.7097 O   0  0  0  0  0  0  0  0  0  0  0  0
    5.5939   -6.0141    0.8477 C   0  0  0  0  0  0  0  0  0  0  0  0
    5.0764   -5.1258   -0.2963 C   0  0  0  0  0  0  0  0  0  0  0  0
    4.1004   -4.0221    0.1807 C   0  0  1  0  0  0  0  0  0  0  0  0
    2.8124   -4.6937    0.7081 C   0  0  0  0  0  0  0  0  0  0  0  0
    3.7250   -2.9861   -0.9347 C   0  0  2  0  0  0  0  0  0  0  0  0
    3.4823   -3.3929   -2.3970 C   0  0  2  0  0  0  0  0  0  0  0  0
    4.5834   -3.9571   -3.3081 C   0  0  0  0  0  0  0  0  0  0  0  0
    4.6139   -2.7538   -4.0877 O   0  0  0  0  0  0  0  0  0  0  0  0
    1.7926   -0.2550   -5.2238 H   0  0  0  0  0  0  0  0  0  0  0  0
    3.5070   -0.6430   -5.4231 H   0  0  0  0  0  0  0  0  0  0  0  0
    2.9382    0.3616   -4.0871 H   0  0  0  0  0  0  0  0  0  0  0  0
    5.1828   -0.5825   -2.7702 H   0  0  0  0  0  0  0  0  0  0  0  0
    3.6049   -0.3047   -2.0643 H   0  0  0  0  0  0  0  0  0  0  0  0
    5.7160   -2.2302   -1.1594 H   0  0  0  0  0  0  0  0  0  0  0  0
    5.6810   -0.5188    0.4021 H   0  0  0  0  0  0  0  0  0  0  0  0
    4.0016   -0.1231    0.1897 H   0  0  0  0  0  0  0  0  0  0  0  0
    4.7854   -1.3745    2.4120 H   0  0  0  0  0  0  0  0  0  0  0  0
    3.2599   -1.7937    1.6569 H   0  0  0  0  0  0  0  0  0  0  0  0
    6.1510   -3.2038    2.9361 H   0  0  0  0  0  0  0  0  0  0  0  0
    6.3725   -6.6821    0.4806 H   0  0  0  0  0  0  0  0  0  0  0  0
    4.8062   -6.6456    1.2595 H   0  0  0  0  0  0  0  0  0  0  0  0
    5.9430   -4.6563   -0.7550 H   0  0  0  0  0  0  0  0  0  0  0  0
    4.6176   -5.7588   -1.0558 H   0  0  0  0  0  0  0  0  0  0  0  0
    2.3267   -5.3031   -0.0587 H   0  0  0  0  0  0  0  0  0  0  0  0
    2.0980   -3.9487    1.0603 H   0  0  0  0  0  0  0  0  0  0  0  0
    3.0125   -5.3410    1.5641 H   0  0  0  0  0  0  0  0  0  0  0  0
    2.7812   -2.5373   -0.6129 H   0  0  0  0  0  0  0  0  0  0  0  0
    2.5126   -3.8388   -2.6017 H   0  0  0  0  0  0  0  0  0  0  0  0
    5.5428   -4.1471   -2.8266 H   0  0  0  0  0  0  0  0  0  0  0  0
    4.2739   -4.8105   -3.9190 H   0  0  0  0  0  0  0  0  0  0  0  0
  1  2  1  0
  1 20  1  0
  1 21  1  0
  1 22  1  0
  3  2  1  6
  3 17  1  0
  3 19  1  0
  3  4  1  0
  4  5  1  0
  4 23  1  0
  4 24  1  0
  5 16  1  0
  5  6  1  0
  5 25  1  6
  6  7  1  0
  6 26  1  0
  6 27  1  0
  7  8  1  0
  7 28  1  0
  7 29  1  0
  8 14  1  0
  8  9  2  0
  9 10  1  0
  9 30  1  0
 10 11  2  0
 10 12  1  0
 12 13  1  0
 12 31  1  0
 12 32  1  0
 13 14  1  0
 13 33  1  0
 13 34  1  0
 14 15  1  1
 14 16  1  0
 15 35  1  0
 15 36  1  0
 15 37  1  0
 16 17  1  0
 16 38  1  1
 17 18  1  0
 17 39  1  1
 18 19  1  0
 18 40  1  0
 18 41  1  0
M  END
>  <i_m_ct_stereo_status>  (276) 
1

>  <s_m_source_file>  (276) 
/var/tmp/pbs.5076255.sched01/tmp2672eyar/80wl2hclo4.sdf

>  <i_m_source_file_index>  (276) 
28

>  <i_lp_mmshare_version>  (276) 
48012

>  <i_f3d_flags>  (276) 
0

>  <s_epik_input>  (276) 
W0NIM11PW0NAXTEyW0NAQEhdKFtDSDJdTzIpW0NAQEhdM1tDQEBIXShbQ0gyXTEpW0NIMl1bQ0gyXUM9NFtDQF0zKFtDSDNdKVtDSDJdW0NIMl1DKD1PKVtDSF00

>  <s_epik_cmdline>  (276) 
J2VwaWtfcHl0aG9uJywgJy1waHQnLCAnMi4wJywgJy1waCcsICc3LjAnLCAnLXRuJywgJzgnLCAnLW1hJywgJzIwMCcsICctaW1hZScsICc8aW5maWxlLm1hZT4nLCAnLW9tYWUnLCAnPG91dGZpbGUubWFlPic=

>  <r_lp_tautomer_probability>  (276) 
1

>  <r_epik_Ionization_Penalty>  (276) 
4.11041e-12

>  <r_epik_Ionization_Penalty_Charging>  (276) 
0

>  <r_epik_Ionization_Penalty_Neutral>  (276) 
4.11041e-12

>  <r_epik_State_Penalty>  (276) 
-0

>  <r_epik_Charging_Adjusted_Penalty>  (276) 
0

>  <i_epik_Tot_Q>  (276) 
0

>  <i_epik_Tot_abs_Q>  (276) 
0

>  <s_lp_Force_Field>  (276) 
OPLS3e

>  <r_lp_Energy>  (276) 
30.4441

>  <b_lp_Chiralities_Consistent>  (276) 
1

>  <s_lp_Variant>  (276) 
79:0-1

>  <s_i_glide_gridfile>  (276) 
pfpi4k_grid

>  <i_i_glide_lignum>  (276) 
28

>  <i_i_glide_rotatable_bonds>  (276) 
1

>  <r_i_docking_score>  (276) 
-3.75767

>  <r_i_glide_ligand_efficiency>  (276) 
-0.197772

>  <r_i_glide_ligand_efficiency_sa>  (276) 
-0.527736

>  <r_i_glide_ligand_efficiency_ln>  (276) 
-0.952651

>  <r_i_glide_gscore>  (276) 
-3.75767

>  <r_i_glide_lipo>  (276) 
-0.366202

>  <r_i_glide_hbond>  (276) 
-0.197369

>  <r_i_glide_metal>  (276) 
-0

>  <r_i_glide_rewards>  (276) 
-1.85544

>  <r_i_glide_evdw>  (276) 
-18.0149

>  <r_i_glide_ecoul>  (276) 
-2.91948

>  <r_i_glide_erotb>  (276) 
0

>  <r_i_glide_esite>  (276) 
0

>  <r_i_glide_emodel>  (276) 
-25.5343

>  <r_i_glide_energy>  (276) 
-20.9344

>  <r_i_glide_einternal>  (276) 
0.399039

>  <r_i_glide_intrahb_reward>  (276) 
-0

>  <i_i_glide_confnum>  (276) 
1

>  <i_i_glide_posenum>  (276) 
11

>  <r_i_glide_eff_state_penalty>  (276) 
0

>  <ligand_id>  (276) 
79

>  <original_smiles>  (276) 
COC12CC3CCC4=CC(=O)CCC4(C)C3C1CO2

>  <smiles>  (276) 
[H]C1=C2C([H])([H])C([H])([H])C3([H])C([H])([H])C4(OC([H])([H])[H])OC([H])([H])C4([H])C3([H])C2(C([H])([H])[H])C([H])([H])C([H])([H])C1=O

$$$$
79:0:1
     RDKit          3D

 41 44  0  0  1  0  0  0  0  0999 V2000
    5.3658   -6.2684    1.6538 C   0  0  0  0  0  0  0  0  0  0  0  0
    3.9781   -6.0819    1.9225 O   0  0  0  0  0  0  0  0  0  0  0  0
    3.3493   -4.9810    1.2656 C   0  0  1  0  0  0  0  0  0  0  0  0
    3.7415   -3.6059    1.8166 C   0  0  0  0  0  0  0  0  0  0  0  0
    3.9351   -2.7287    0.5615 C   0  0  1  0  0  0  0  0  0  0  0  0
    4.9829   -1.6015    0.6650 C   0  0  0  0  0  0  0  0  0  0  0  0
    5.6457   -1.2937   -0.6952 C   0  0  0  0  0  0  0  0  0  0  0  0
    4.7187   -1.5868   -1.8680 C   0  0  0  0  0  0  0  0  0  0  0  0
    4.2780   -0.5947   -2.6723 C   0  0  0  0  0  0  0  0  0  0  0  0
    3.3434   -0.8359   -3.7767 C   0  0  0  0  0  0  0  0  0  0  0  0
    3.0020    0.0386   -4.5684 O   0  0  0  0  0  0  0  0  0  0  0  0
    2.8080   -2.2511   -3.9627 C   0  0  0  0  0  0  0  0  0  0  0  0
    2.8636   -3.0577   -2.6662 C   0  0  0  0  0  0  0  0  0  0  0  0
    4.2635   -3.0539   -1.9979 C   0  0  1  0  0  0  0  0  0  0  0  0
    5.2773   -3.7904   -2.9086 C   0  0  0  0  0  0  0  0  0  0  0  0
    4.2770   -3.7090   -0.5754 C   0  0  2  0  0  0  0  0  0  0  0  0
    3.4772   -4.9724   -0.2620 C   0  0  2  0  0  0  0  0  0  0  0  0
    1.9502   -5.0256   -0.2436 C   0  0  0  0  0  0  0  0  0  0  0  0
    1.9073   -5.1079    1.1995 O   0  0  0  0  0  0  0  0  0  0  0  0
    5.7627   -7.0397    2.3131 H   0  0  0  0  0  0  0  0  0  0  0  0
    5.9464   -5.3634    1.8200 H   0  0  0  0  0  0  0  0  0  0  0  0
    5.5289   -6.5982    0.6299 H   0  0  0  0  0  0  0  0  0  0  0  0
    2.9926   -3.2007    2.4951 H   0  0  0  0  0  0  0  0  0  0  0  0
    4.6839   -3.6554    2.3685 H   0  0  0  0  0  0  0  0  0  0  0  0
    2.9690   -2.2777    0.3152 H   0  0  0  0  0  0  0  0  0  0  0  0
    4.4886   -0.7059    1.0381 H   0  0  0  0  0  0  0  0  0  0  0  0
    5.7549   -1.8466    1.3949 H   0  0  0  0  0  0  0  0  0  0  0  0
    5.9674   -0.2598   -0.7095 H   0  0  0  0  0  0  0  0  0  0  0  0
    6.5359   -1.9118   -0.8171 H   0  0  0  0  0  0  0  0  0  0  0  0
    4.5970    0.4257   -2.5242 H   0  0  0  0  0  0  0  0  0  0  0  0
    1.7754   -2.2079   -4.3009 H   0  0  0  0  0  0  0  0  0  0  0  0
    3.3897   -2.7403   -4.7396 H   0  0  0  0  0  0  0  0  0  0  0  0
    2.1292   -2.6335   -1.9839 H   0  0  0  0  0  0  0  0  0  0  0  0
    2.5168   -4.0598   -2.9022 H   0  0  0  0  0  0  0  0  0  0  0  0
    4.9905   -4.8259   -3.0892 H   0  0  0  0  0  0  0  0  0  0  0  0
    6.2765   -3.8025   -2.4725 H   0  0  0  0  0  0  0  0  0  0  0  0
    5.3773   -3.3095   -3.8813 H   0  0  0  0  0  0  0  0  0  0  0  0
    5.3193   -3.9858   -0.3956 H   0  0  0  0  0  0  0  0  0  0  0  0
    3.8855   -5.8973   -0.6694 H   0  0  0  0  0  0  0  0  0  0  0  0
    1.4530   -4.1316   -0.6123 H   0  0  0  0  0  0  0  0  0  0  0  0
    1.5429   -5.9180   -0.7137 H   0  0  0  0  0  0  0  0  0  0  0  0
  1  2  1  0
  1 20  1  0
  1 21  1  0
  1 22  1  0
  3  2  1  1
  3 17  1  0
  3 19  1  0
  3  4  1  0
  4  5  1  0
  4 23  1  0
  4 24  1  0
  5 16  1  0
  5  6  1  0
  5 25  1  6
  6  7  1  0
  6 26  1  0
  6 27  1  0
  7  8  1  0
  7 28  1  0
  7 29  1  0
  8 14  1  0
  8  9  2  0
  9 10  1  0
  9 30  1  0
 10 11  2  0
 10 12  1  0
 12 13  1  0
 12 31  1  0
 12 32  1  0
 13 14  1  0
 13 33  1  0
 13 34  1  0
 14 15  1  6
 14 16  1  0
 15 35  1  0
 15 36  1  0
 15 37  1  0
 16 17  1  0
 16 38  1  1
 17 18  1  0
 17 39  1  6
 18 19  1  0
 18 40  1  0
 18 41  1  0
M  END
>  <i_m_ct_stereo_status>  (277) 
1

>  <s_m_source_file>  (277) 
/var/tmp/pbs.5076255.sched01/tmp2672eyar/80wl2hclo4.sdf

>  <i_m_source_file_index>  (277) 
28

>  <i_lp_mmshare_version>  (277) 
48012

>  <i_f3d_flags>  (277) 
0

>  <s_epik_input>  (277) 
W0NIM11PW0NAXTEyW0NAQEhdKFtDSDJdTzIpW0NAQEhdM1tDQEBIXShbQ0gyXTEpW0NIMl1bQ0gyXUM9NFtDQF0zKFtDSDNdKVtDSDJdW0NIMl1DKD1PKVtDSF00

>  <s_epik_cmdline>  (277) 
J2VwaWtfcHl0aG9uJywgJy1waHQnLCAnMi4wJywgJy1waCcsICc3LjAnLCAnLXRuJywgJzgnLCAnLW1hJywgJzIwMCcsICctaW1hZScsICc8aW5maWxlLm1hZT4nLCAnLW9tYWUnLCAnPG91dGZpbGUubWFlPic=

>  <r_lp_tautomer_probability>  (277) 
1

>  <r_epik_Ionization_Penalty>  (277) 
4.11041e-12

>  <r_epik_Ionization_Penalty_Charging>  (277) 
0

>  <r_epik_Ionization_Penalty_Neutral>  (277) 
4.11041e-12

>  <r_epik_State_Penalty>  (277) 
-0

>  <r_epik_Charging_Adjusted_Penalty>  (277) 
0

>  <i_epik_Tot_Q>  (277) 
0

>  <i_epik_Tot_abs_Q>  (277) 
0

>  <s_lp_Force_Field>  (277) 
OPLS3e

>  <r_lp_Energy>  (277) 
30.4441

>  <b_lp_Chiralities_Consistent>  (277) 
1

>  <s_lp_Variant>  (277) 
79:0-1

>  <s_i_glide_gridfile>  (277) 
pfpi4k_grid

>  <i_i_glide_lignum>  (277) 
28

>  <i_i_glide_rotatable_bonds>  (277) 
1

>  <r_i_docking_score>  (277) 
-3.63621

>  <r_i_glide_ligand_efficiency>  (277) 
-0.19138

>  <r_i_glide_ligand_efficiency_sa>  (277) 
-0.510678

>  <r_i_glide_ligand_efficiency_ln>  (277) 
-0.921858

>  <r_i_glide_gscore>  (277) 
-3.63621

>  <r_i_glide_lipo>  (277) 
-0.406197

>  <r_i_glide_hbond>  (277) 
-0.0637046

>  <r_i_glide_metal>  (277) 
-0

>  <r_i_glide_rewards>  (277) 
-1.92476

>  <r_i_glide_evdw>  (277) 
-21.4371

>  <r_i_glide_ecoul>  (277) 
-1.13133

>  <r_i_glide_erotb>  (277) 
0

>  <r_i_glide_esite>  (277) 
0

>  <r_i_glide_emodel>  (277) 
-25.7986

>  <r_i_glide_energy>  (277) 
-22.5684

>  <r_i_glide_einternal>  (277) 
3.32531

>  <r_i_glide_intrahb_reward>  (277) 
-0

>  <i_i_glide_confnum>  (277) 
1

>  <i_i_glide_posenum>  (277) 
14

>  <r_i_glide_eff_state_penalty>  (277) 
0

>  <ligand_id>  (277) 
79

>  <original_smiles>  (277) 
COC12CC3CCC4=CC(=O)CCC4(C)C3C1CO2

>  <smiles>  (277) 
[H]C1=C2C([H])([H])C([H])([H])C3([H])C([H])([H])C4(OC([H])([H])[H])OC([H])([H])C4([H])C3([H])C2(C([H])([H])[H])C([H])([H])C([H])([H])C1=O

$$$$
79:0:2
     RDKit          3D

 41 44  0  0  1  0  0  0  0  0999 V2000
    3.4892   -7.3843    1.6500 C   0  0  0  0  0  0  0  0  0  0  0  0
    3.9561   -6.0753    1.9618 O   0  0  0  0  0  0  0  0  0  0  0  0
    3.3144   -4.9997    1.2745 C   0  0  1  0  0  0  0  0  0  0  0  0
    3.7410   -3.6411    1.8330 C   0  0  0  0  0  0  0  0  0  0  0  0
    3.9429   -2.7459    0.5898 C   0  0  1  0  0  0  0  0  0  0  0  0
    4.9988   -1.6256    0.7014 C   0  0  0  0  0  0  0  0  0  0  0  0
    5.6713   -1.3153   -0.6553 C   0  0  0  0  0  0  0  0  0  0  0  0
    4.7482   -1.6030   -1.8339 C   0  0  0  0  0  0  0  0  0  0  0  0
    4.3165   -0.6084   -2.6395 C   0  0  0  0  0  0  0  0  0  0  0  0
    3.3890   -0.8386   -3.7517 C   0  0  0  0  0  0  0  0  0  0  0  0
    3.0569    0.0416   -4.5412 O   0  0  0  0  0  0  0  0  0  0  0  0
    2.8426   -2.2477   -3.9478 C   0  0  0  0  0  0  0  0  0  0  0  0
    2.8856   -3.0557   -2.6513 C   0  0  0  0  0  0  0  0  0  0  0  0
    4.2820   -3.0633   -1.9717 C   0  0  1  0  0  0  0  0  0  0  0  0
    5.2942   -3.8085   -2.8767 C   0  0  0  0  0  0  0  0  0  0  0  0
    4.2840   -3.7210   -0.5491 C   0  0  2  0  0  0  0  0  0  0  0  0
    3.4743   -4.9747   -0.2446 C   0  0  2  0  0  0  0  0  0  0  0  0
    1.9424   -5.0219   -0.2489 C   0  0  0  0  0  0  0  0  0  0  0  0
    1.8715   -5.0940    1.1966 O   0  0  0  0  0  0  0  0  0  0  0  0
    4.0940   -8.1271    2.1660 H   0  0  0  0  0  0  0  0  0  0  0  0
    3.5489   -7.6107    0.5893 H   0  0  0  0  0  0  0  0  0  0  0  0
    2.4572   -7.5124    1.9742 H   0  0  0  0  0  0  0  0  0  0  0  0
    3.0088   -3.2246    2.5248 H   0  0  0  0  0  0  0  0  0  0  0  0
    4.6936   -3.7442    2.3620 H   0  0  0  0  0  0  0  0  0  0  0  0
    2.9809   -2.2891    0.3408 H   0  0  0  0  0  0  0  0  0  0  0  0
    4.5057   -0.7294    1.0730 H   0  0  0  0  0  0  0  0  0  0  0  0
    5.7612   -1.8798    1.4388 H   0  0  0  0  0  0  0  0  0  0  0  0
    5.9959   -0.2769   -0.6666 H   0  0  0  0  0  0  0  0  0  0  0  0
    6.5570   -1.9408   -0.7736 H   0  0  0  0  0  0  0  0  0  0  0  0
    4.6305    0.4121   -2.4855 H   0  0  0  0  0  0  0  0  0  0  0  0
    1.8159   -2.1922   -4.3039 H   0  0  0  0  0  0  0  0  0  0  0  0
    3.4247   -2.7397   -4.7202 H   0  0  0  0  0  0  0  0  0  0  0  0
    2.1520   -2.6236   -1.9719 H   0  0  0  0  0  0  0  0  0  0  0  0
    2.5308   -4.0542   -2.8899 H   0  0  0  0  0  0  0  0  0  0  0  0
    5.0013   -4.8414   -3.0609 H   0  0  0  0  0  0  0  0  0  0  0  0
    6.2909   -3.8290   -2.4353 H   0  0  0  0  0  0  0  0  0  0  0  0
    5.4025   -3.3252   -3.8477 H   0  0  0  0  0  0  0  0  0  0  0  0
    5.3203   -4.0076   -0.3608 H   0  0  0  0  0  0  0  0  0  0  0  0
    3.9154   -5.8867   -0.6508 H   0  0  0  0  0  0  0  0  0  0  0  0
    1.4590   -4.1255   -0.6294 H   0  0  0  0  0  0  0  0  0  0  0  0
    1.5339   -5.9124   -0.7144 H   0  0  0  0  0  0  0  0  0  0  0  0
  1  2  1  0
  1 20  1  0
  1 21  1  0
  1 22  1  0
  3  2  1  1
  3 17  1  0
  3 19  1  0
  3  4  1  0
  4  5  1  0
  4 23  1  0
  4 24  1  0
  5 16  1  0
  5  6  1  0
  5 25  1  6
  6  7  1  0
  6 26  1  0
  6 27  1  0
  7  8  1  0
  7 28  1  0
  7 29  1  0
  8 14  1  0
  8  9  2  0
  9 10  1  0
  9 30  1  0
 10 11  2  0
 10 12  1  0
 12 13  1  0
 12 31  1  0
 12 32  1  0
 13 14  1  0
 13 33  1  0
 13 34  1  0
 14 15  1  6
 14 16  1  0
 15 35  1  0
 15 36  1  0
 15 37  1  0
 16 17  1  0
 16 38  1  1
 17 18  1  0
 17 39  1  6
 18 19  1  0
 18 40  1  0
 18 41  1  0
M  END
>  <i_m_ct_stereo_status>  (278) 
1

>  <s_m_source_file>  (278) 
/var/tmp/pbs.5076255.sched01/tmp2672eyar/80wl2hclo4.sdf

>  <i_m_source_file_index>  (278) 
28

>  <i_lp_mmshare_version>  (278) 
48012

>  <i_f3d_flags>  (278) 
0

>  <s_epik_input>  (278) 
W0NIM11PW0NAXTEyW0NAQEhdKFtDSDJdTzIpW0NAQEhdM1tDQEBIXShbQ0gyXTEpW0NIMl1bQ0gyXUM9NFtDQF0zKFtDSDNdKVtDSDJdW0NIMl1DKD1PKVtDSF00

>  <s_epik_cmdline>  (278) 
J2VwaWtfcHl0aG9uJywgJy1waHQnLCAnMi4wJywgJy1waCcsICc3LjAnLCAnLXRuJywgJzgnLCAnLW1hJywgJzIwMCcsICctaW1hZScsICc8aW5maWxlLm1hZT4nLCAnLW9tYWUnLCAnPG91dGZpbGUubWFlPic=

>  <r_lp_tautomer_probability>  (278) 
1

>  <r_epik_Ionization_Penalty>  (278) 
4.11041e-12

>  <r_epik_Ionization_Penalty_Charging>  (278) 
0

>  <r_epik_Ionization_Penalty_Neutral>  (278) 
4.11041e-12

>  <r_epik_State_Penalty>  (278) 
-0

>  <r_epik_Charging_Adjusted_Penalty>  (278) 
0

>  <i_epik_Tot_Q>  (278) 
0

>  <i_epik_Tot_abs_Q>  (278) 
0

>  <s_lp_Force_Field>  (278) 
OPLS3e

>  <r_lp_Energy>  (278) 
30.4441

>  <b_lp_Chiralities_Consistent>  (278) 
1

>  <s_lp_Variant>  (278) 
79:0-1

>  <s_i_glide_gridfile>  (278) 
pfpi4k_grid

>  <i_i_glide_lignum>  (278) 
28

>  <i_i_glide_rotatable_bonds>  (278) 
1

>  <r_i_docking_score>  (278) 
-3.63615

>  <r_i_glide_ligand_efficiency>  (278) 
-0.191376

>  <r_i_glide_ligand_efficiency_sa>  (278) 
-0.510668

>  <r_i_glide_ligand_efficiency_ln>  (278) 
-0.921841

>  <r_i_glide_gscore>  (278) 
-3.63615

>  <r_i_glide_lipo>  (278) 
-0.377063

>  <r_i_glide_hbond>  (278) 
-0.0699071

>  <r_i_glide_metal>  (278) 
-0

>  <r_i_glide_rewards>  (278) 
-1.92853

>  <r_i_glide_evdw>  (278) 
-21.4431

>  <r_i_glide_ecoul>  (278) 
-1.25658

>  <r_i_glide_erotb>  (278) 
0

>  <r_i_glide_esite>  (278) 
0

>  <r_i_glide_emodel>  (278) 
-26.5415

>  <r_i_glide_energy>  (278) 
-22.6996

>  <r_i_glide_einternal>  (278) 
2.07903

>  <r_i_glide_intrahb_reward>  (278) 
-0

>  <i_i_glide_confnum>  (278) 
1

>  <i_i_glide_posenum>  (278) 
34

>  <r_i_glide_eff_state_penalty>  (278) 
0

>  <ligand_id>  (278) 
79

>  <original_smiles>  (278) 
COC12CC3CCC4=CC(=O)CCC4(C)C3C1CO2

>  <smiles>  (278) 
[H]C1=C2C([H])([H])C([H])([H])C3([H])C([H])([H])C4(OC([H])([H])[H])OC([H])([H])C4([H])C3([H])C2(C([H])([H])[H])C([H])([H])C([H])([H])C1=O

$$$$
80:0:0
     RDKit          3D

 77 83  0  0  1  0  0  0  0  0999 V2000
    7.5613   -8.1484    3.8530 C   0  0  0  0  0  0  0  0  0  0  0  0
    6.0531   -8.3761    3.8102 C   0  0  0  0  0  0  0  0  0  0  0  0
    5.2922   -7.9817    4.8701 C   0  0  0  0  0  0  0  0  0  0  0  0
    3.8393   -8.4052    5.0883 C   0  0  1  0  0  0  0  0  0  0  0  0
    3.8637   -9.8815    5.6732 C   0  0  1  0  0  0  0  0  0  0  0  0
    3.3811   -9.9501    7.1376 C   0  0  0  0  0  0  0  0  0  0  0  0
    3.3187  -10.9840    4.6257 C   0  0  1  0  0  0  0  0  0  0  0  0
    3.0197  -12.2366    5.2189 O   0  0  0  0  0  0  0  0  0  0  0  0
    2.1979  -10.3804    3.7260 C   0  0  2  0  0  0  0  0  0  0  0  0
    1.5129  -10.0664    4.9542 O   0  0  0  0  0  0  0  0  0  0  0  0
    1.0463  -11.0878    3.1036 C   0  0  0  0  0  0  0  0  0  0  0  0
   -0.0009  -10.2540    2.8756 C   0  0  0  0  0  0  0  0  0  0  0  0
    0.0941   -8.7458    3.2358 C   0  0  1  0  0  0  0  0  0  0  0  0
   -0.7438   -8.4825    4.3378 O   0  0  0  0  0  0  0  0  0  0  0  0
    1.6142   -8.0419    3.1971 C   0  0  2  0  0  0  0  0  0  0  0  0
    1.1459   -6.9389    2.1667 C   0  0  0  0  0  0  0  0  0  0  0  0
    2.5350   -9.1711    2.6398 C   0  0  1  0  0  0  0  0  0  0  0  0
    4.0303   -8.7612    1.9972 C   0  0  2  0  0  0  0  0  0  0  0  0
    3.9924   -9.4497    0.7502 O   0  0  0  0  0  0  0  0  0  0  0  0
    5.4806   -9.1900    2.6000 C   0  0  1  0  0  0  0  0  0  0  0  0
    6.4737   -9.3163    1.5938 O   0  0  0  0  0  0  0  0  0  0  0  0
    4.0871   -7.2388    1.5785 C   0  0  2  0  0  0  0  0  0  0  0  0
    5.2882   -6.9369    0.8802 O   0  0  0  0  0  0  0  0  0  0  0  0
    5.9526   -5.9013    1.5160 C   0  0  1  0  0  0  0  0  0  0  0  0
    5.8850   -4.6507    0.6217 C   0  0  0  0  0  0  0  0  0  0  0  0
    5.3812   -5.6566    2.7557 O   0  0  0  0  0  0  0  0  0  0  0  0
    4.0383   -6.0705    2.6370 C   0  0  2  0  0  0  0  0  0  0  0  0
    3.2966   -6.1415    4.0312 C   0  0  1  0  0  0  0  0  0  0  0  0
    2.4470   -4.9076    4.3342 C   0  0  0  0  0  0  0  0  0  0  0  0
    2.1585   -4.9473    5.7189 O   0  0  0  0  0  0  0  0  0  0  0  0
    1.3668   -6.0201    6.1191 C   0  0  0  0  0  0  0  0  0  0  0  0
    1.4405   -6.0950    7.6619 C   0  0  0  0  0  0  0  0  0  0  0  0
    0.0882   -5.5888    8.1921 C   0  0  0  0  0  0  0  0  0  0  0  0
   -0.6053   -4.9220    7.0096 C   0  0  0  0  0  0  0  0  0  0  0  0
   -0.1128   -5.7215    5.8150 C   0  0  0  0  0  0  0  0  0  0  0  0
    1.7475   -7.2787    5.6246 O   0  0  0  0  0  0  0  0  0  0  0  0
    2.5787   -7.4826    4.4678 C   0  0  2  0  0  0  0  0  0  0  0  0
    7.9131   -7.5713    3.0001 H   0  0  0  0  0  0  0  0  0  0  0  0
    8.0857   -9.1066    3.8425 H   0  0  0  0  0  0  0  0  0  0  0  0
    7.8588   -7.6168    4.7616 H   0  0  0  0  0  0  0  0  0  0  0  0
    5.7496   -7.4584    5.7001 H   0  0  0  0  0  0  0  0  0  0  0  0
    3.9795   -8.9102    4.2525 H   0  0  0  0  0  0  0  0  0  0  0  0
    4.9113  -10.1728    5.7741 H   0  0  0  0  0  0  0  0  0  0  0  0
    2.3540   -9.6092    7.2641 H   0  0  0  0  0  0  0  0  0  0  0  0
    4.0115   -9.3213    7.7656 H   0  0  0  0  0  0  0  0  0  0  0  0
    3.4497  -10.9657    7.5274 H   0  0  0  0  0  0  0  0  0  0  0  0
    4.1055  -11.2818    3.9507 H   0  0  0  0  0  0  0  0  0  0  0  0
    2.4979  -12.1437    6.0167 H   0  0  0  0  0  0  0  0  0  0  0  0
    1.4084  -10.8718    5.4384 H   0  0  0  0  0  0  0  0  0  0  0  0
    1.0740  -12.1474    2.8905 H   0  0  0  0  0  0  0  0  0  0  0  0
   -0.9132  -10.5872    2.4178 H   0  0  0  0  0  0  0  0  0  0  0  0
   -0.5539   -8.3849    2.4331 H   0  0  0  0  0  0  0  0  0  0  0  0
   -1.1018   -9.3173    4.6327 H   0  0  0  0  0  0  0  0  0  0  0  0
    1.7854   -6.1278    1.8817 H   0  0  0  0  0  0  0  0  0  0  0  0
    0.2639   -6.4121    2.5434 H   0  0  0  0  0  0  0  0  0  0  0  0
    0.8661   -7.4035    1.2128 H   0  0  0  0  0  0  0  0  0  0  0  0
    2.0115   -9.4353    1.7192 H   0  0  0  0  0  0  0  0  0  0  0  0
    4.0104  -10.4038    0.8801 H   0  0  0  0  0  0  0  0  0  0  0  0
    5.4426  -10.2142    2.9366 H   0  0  0  0  0  0  0  0  0  0  0  0
    6.1754   -9.9894    0.9968 H   0  0  0  0  0  0  0  0  0  0  0  0
    3.3280   -7.0756    0.8190 H   0  0  0  0  0  0  0  0  0  0  0  0
    6.9934   -6.1847    1.6568 H   0  0  0  0  0  0  0  0  0  0  0  0
    4.8547   -4.3900    0.3734 H   0  0  0  0  0  0  0  0  0  0  0  0
    6.4175   -4.8517   -0.3090 H   0  0  0  0  0  0  0  0  0  0  0  0
    6.3651   -3.8080    1.1214 H   0  0  0  0  0  0  0  0  0  0  0  0
    3.6107   -5.2178    2.1108 H   0  0  0  0  0  0  0  0  0  0  0  0
    4.0747   -5.9389    4.7654 H   0  0  0  0  0  0  0  0  0  0  0  0
    3.0253   -4.0025    4.1461 H   0  0  0  0  0  0  0  0  0  0  0  0
    1.5499   -4.8376    3.7324 H   0  0  0  0  0  0  0  0  0  0  0  0
    1.6068   -7.1258    7.9868 H   0  0  0  0  0  0  0  0  0  0  0  0
    2.2725   -5.4922    8.0279 H   0  0  0  0  0  0  0  0  0  0  0  0
   -0.5040   -6.4398    8.5386 H   0  0  0  0  0  0  0  0  0  0  0  0
    0.1973   -4.9053    9.0378 H   0  0  0  0  0  0  0  0  0  0  0  0
   -1.6919   -4.9724    7.1009 H   0  0  0  0  0  0  0  0  0  0  0  0
   -0.3070   -3.8780    6.9269 H   0  0  0  0  0  0  0  0  0  0  0  0
   -0.2618   -5.2282    4.8579 H   0  0  0  0  0  0  0  0  0  0  0  0
   -0.6727   -6.6467    5.8349 H   0  0  0  0  0  0  0  0  0  0  0  0
  1  2  1  0
  1 38  1  0
  1 39  1  0
  1 40  1  0
  2 20  1  0
  2  3  2  3
  3  4  1  0
  3 41  1  0
  4 37  1  0
  4  5  1  0
  4 42  1  1
  5  6  1  0
  5  7  1  0
  5 43  1  1
  6 44  1  0
  6 45  1  0
  6 46  1  0
  7  8  1  0
  7  9  1  0
  7 47  1  6
  8 48  1  0
  9 17  1  0
  9 10  1  1
  9 11  1  0
 10 49  1  0
 11 12  2  0
 11 50  1  0
 12 13  1  0
 12 51  1  0
 13 14  1  0
 13 15  1  0
 13 52  1  6
 14 53  1  0
 15 37  1  0
 15 16  1  6
 15 17  1  0
 16 54  1  0
 16 55  1  0
 16 56  1  0
 17 18  1  0
 17 57  1  6
 18 19  1  6
 18 20  1  0
 18 22  1  0
 19 58  1  0
 20 21  1  0
 20 59  1  1
 21 60  1  0
 22 27  1  0
 22 23  1  0
 22 61  1  6
 23 24  1  0
 24 25  1  0
 24 26  1  0
 24 62  1  1
 25 63  1  0
 25 64  1  0
 25 65  1  0
 26 27  1  0
 27 28  1  0
 27 66  1  6
 28 37  1  0
 28 29  1  0
 28 67  1  1
 29 30  1  0
 29 68  1  0
 29 69  1  0
 30 31  1  0
 31 35  1  0
 31 32  1  0
 31 36  1  0
 32 33  1  0
 32 70  1  0
 32 71  1  0
 33 34  1  0
 33 72  1  0
 33 73  1  0
 34 35  1  0
 34 74  1  0
 34 75  1  0
 35 76  1  0
 35 77  1  0
 37 36  1  1
M  END
>  <i_m_ct_stereo_status>  (279) 
1

>  <s_m_source_file>  (279) 
/var/tmp/pbs.5076255.sched01/tmp2672eyar/80wl2hclo4.sdf

>  <i_m_source_file_index>  (279) 
29

>  <i_lp_mmshare_version>  (279) 
48012

>  <i_f3d_flags>  (279) 
0

>  <s_epik_input>  (279) 
W0NIM11bQ0BAXTEyW0NASF0oW09IXSlbQ0hdPVtDSF1bQ0BAXShbT0hdKShbQ0BIXShbT0hdKVtDQEBIXTNbQ0gzXSlbQ0BIXTFbQ0BAXShbT0hdKShbQ0BIXTRbQ0BASF01T1tDQEBIXShPNClbQ0gzXSlbQ0BASF0oW09IXSlDKFxbQ0gzXSk9W0NIXS9bQ0BASF0zW0NAQF0yKE82KVtDQEBIXTVbQ0gyXU9DNjdbQ0gyXVtDSDJdW0NIMl1bQ0gyXTc=

>  <s_epik_cmdline>  (279) 
J2VwaWtfcHl0aG9uJywgJy1waHQnLCAnMi4wJywgJy1waCcsICc3LjAnLCAnLXRuJywgJzgnLCAnLW1hJywgJzIwMCcsICctaW1hZScsICc8aW5maWxlLm1hZT4nLCAnLW9tYWUnLCAnPG91dGZpbGUubWFlPic=

>  <r_lp_tautomer_probability>  (279) 
1

>  <r_epik_Ionization_Penalty>  (279) 
7.97127e-07

>  <r_epik_Ionization_Penalty_Charging>  (279) 
0

>  <r_epik_Ionization_Penalty_Neutral>  (279) 
7.97127e-07

>  <r_epik_State_Penalty>  (279) 
-0

>  <r_epik_Charging_Adjusted_Penalty>  (279) 
0

>  <i_epik_Tot_Q>  (279) 
0

>  <i_epik_Tot_abs_Q>  (279) 
0

>  <s_epik_Chemistry_Notes>  (279) 
This compound contains an acetal/aminal-like group ( X-CH(R)-Y where X, Y are N, S, or O) that may be acid/base labile, releasing an aldehyde.

>  <s_lp_Force_Field>  (279) 
OPLS3e

>  <r_lp_Energy>  (279) 
277.061

>  <b_lp_Chiralities_Consistent>  (279) 
1

>  <s_lp_Variant>  (279) 
80:0-1

>  <s_i_glide_gridfile>  (279) 
pfpi4k_grid

>  <i_i_glide_lignum>  (279) 
29

>  <i_i_glide_rotatable_bonds>  (279) 
5

>  <r_i_docking_score>  (279) 
-3.45451

>  <r_i_glide_ligand_efficiency>  (279) 
-0.093365

>  <r_i_glide_ligand_efficiency_sa>  (279) 
-0.311113

>  <r_i_glide_ligand_efficiency_ln>  (279) 
-0.749201

>  <r_i_glide_gscore>  (279) 
-3.45451

>  <r_i_glide_lipo>  (279) 
-0.393619

>  <r_i_glide_hbond>  (279) 
0

>  <r_i_glide_metal>  (279) 
-0

>  <r_i_glide_rewards>  (279) 
-0.106445

>  <r_i_glide_evdw>  (279) 
-31.2846

>  <r_i_glide_ecoul>  (279) 
-9.26749

>  <r_i_glide_erotb>  (279) 
0

>  <r_i_glide_esite>  (279) 
-9.0423e-05

>  <r_i_glide_emodel>  (279) 
-49.2871

>  <r_i_glide_energy>  (279) 
-40.5521

>  <r_i_glide_einternal>  (279) 
1.63258

>  <r_i_glide_intrahb_reward>  (279) 
-0

>  <i_i_glide_confnum>  (279) 
4

>  <i_i_glide_posenum>  (279) 
26

>  <r_i_glide_eff_state_penalty>  (279) 
0

>  <ligand_id>  (279) 
80

>  <original_smiles>  (279) 
CC1=CC2C(C)C(O)C3(O)C=CC(O)C4(C)C3C(O)(C1O)C1OC(C)OC1C1COC3(CCCC3)OC214

>  <smiles>  (279) 
[H]OC1([H])C(C([H])([H])[H])=C([H])C2([H])C([H])(C([H])([H])[H])C([H])(O[H])C3(O[H])C([H])=C([H])C([H])(O[H])C4(C([H])([H])[H])C3([H])C1(O[H])C1([H])OC([H])(C([H])([H])[H])OC1([H])C1([H])C([H])([H])OC3(OC214)C([H])([H])C([H])([H])C([H])([H])C3([H])[H]

$$$$
80:0:1
     RDKit          3D

 77 83  0  0  1  0  0  0  0  0999 V2000
    5.8468   -4.7952    6.2983 C   0  0  0  0  0  0  0  0  0  0  0  0
    5.1960   -6.1366    5.9867 C   0  0  0  0  0  0  0  0  0  0  0  0
    3.8475   -6.2094    5.8328 C   0  0  0  0  0  0  0  0  0  0  0  0
    3.0499   -7.5141    5.8094 C   0  0  1  0  0  0  0  0  0  0  0  0
    2.8763   -7.9967    7.3067 C   0  0  1  0  0  0  0  0  0  0  0  0
    1.4169   -7.9130    7.8018 C   0  0  0  0  0  0  0  0  0  0  0  0
    3.7597   -9.3151    7.6532 C   0  0  1  0  0  0  0  0  0  0  0  0
    3.3525   -9.9658    8.8350 O   0  0  0  0  0  0  0  0  0  0  0  0
    3.8500  -10.2480    6.4060 C   0  0  2  0  0  0  0  0  0  0  0  0
    2.4013  -10.2457    6.4304 O   0  0  0  0  0  0  0  0  0  0  0  0
    4.0194  -11.7322    6.3763 C   0  0  0  0  0  0  0  0  0  0  0  0
    3.4989  -12.2630    5.2412 C   0  0  0  0  0  0  0  0  0  0  0  0
    2.9017  -11.3504    4.1342 C   0  0  1  0  0  0  0  0  0  0  0  0
    1.5158  -11.5092    4.1369 O   0  0  0  0  0  0  0  0  0  0  0  0
    3.4894   -9.7844    4.0130 C   0  0  2  0  0  0  0  0  0  0  0  0
    3.8906   -9.9892    2.5094 C   0  0  0  0  0  0  0  0  0  0  0  0
    4.6440   -9.7634    5.0426 C   0  0  1  0  0  0  0  0  0  0  0  0
    5.8224   -8.5758    4.9119 C   0  0  2  0  0  0  0  0  0  0  0  0
    6.9924   -9.3822    4.9848 O   0  0  0  0  0  0  0  0  0  0  0  0
    6.1194   -7.4055    6.0010 C   0  0  1  0  0  0  0  0  0  0  0  0
    7.4809   -7.0025    5.9878 O   0  0  0  0  0  0  0  0  0  0  0  0
    5.8947   -7.9587    3.4639 C   0  0  2  0  0  0  0  0  0  0  0  0
    7.0070   -7.0781    3.3596 O   0  0  0  0  0  0  0  0  0  0  0  0
    6.5683   -5.8425    2.9113 C   0  0  1  0  0  0  0  0  0  0  0  0
    7.0291   -5.6286    1.4615 C   0  0  0  0  0  0  0  0  0  0  0  0
    5.1850   -5.7613    3.0217 O   0  0  0  0  0  0  0  0  0  0  0  0
    4.7181   -7.0807    2.8799 C   0  0  2  0  0  0  0  0  0  0  0  0
    3.1881   -7.2383    3.2691 C   0  0  1  0  0  0  0  0  0  0  0  0
    2.2273   -7.2408    2.0743 C   0  0  0  0  0  0  0  0  0  0  0  0
    0.9258   -7.0244    2.5965 O   0  0  0  0  0  0  0  0  0  0  0  0
    0.4596   -8.0396    3.4197 C   0  0  0  0  0  0  0  0  0  0  0  0
   -0.7743   -7.5197    4.1529 C   0  0  0  0  0  0  0  0  0  0  0  0
   -1.9342   -7.7274    3.1626 C   0  0  0  0  0  0  0  0  0  0  0  0
   -1.5560   -8.9317    2.3208 C   0  0  0  0  0  0  0  0  0  0  0  0
   -0.0739   -9.2093    2.5776 C   0  0  0  0  0  0  0  0  0  0  0  0
    1.3600   -8.4836    4.4135 O   0  0  0  0  0  0  0  0  0  0  0  0
    2.7698   -8.3086    4.3609 C   0  0  2  0  0  0  0  0  0  0  0  0
    6.6173   -4.5297    5.5780 H   0  0  0  0  0  0  0  0  0  0  0  0
    6.3152   -4.8272    7.2837 H   0  0  0  0  0  0  0  0  0  0  0  0
    5.1109   -3.9892    6.3133 H   0  0  0  0  0  0  0  0  0  0  0  0
    3.2556   -5.3030    5.8693 H   0  0  0  0  0  0  0  0  0  0  0  0
    3.9406   -7.9170    5.9703 H   0  0  0  0  0  0  0  0  0  0  0  0
    3.3559   -7.2482    7.9381 H   0  0  0  0  0  0  0  0  0  0  0  0
    0.7381   -8.5334    7.2237 H   0  0  0  0  0  0  0  0  0  0  0  0
    1.0640   -6.8853    7.7229 H   0  0  0  0  0  0  0  0  0  0  0  0
    1.3432   -8.1952    8.8482 H   0  0  0  0  0  0  0  0  0  0  0  0
    4.7709   -9.0247    7.9099 H   0  0  0  0  0  0  0  0  0  0  0  0
    2.5859  -10.5001    8.6196 H   0  0  0  0  0  0  0  0  0  0  0  0
    2.0901  -11.0374    6.8947 H   0  0  0  0  0  0  0  0  0  0  0  0
    4.3966  -12.2830    7.2210 H   0  0  0  0  0  0  0  0  0  0  0  0
    3.4364  -13.3223    5.0833 H   0  0  0  0  0  0  0  0  0  0  0  0
    3.1517  -11.9618    3.2656 H   0  0  0  0  0  0  0  0  0  0  0  0
    1.2084  -11.3724    5.0414 H   0  0  0  0  0  0  0  0  0  0  0  0
    4.2733   -9.1930    1.9004 H   0  0  0  0  0  0  0  0  0  0  0  0
    3.0332  -10.3252    1.9182 H   0  0  0  0  0  0  0  0  0  0  0  0
    4.6589  -10.7641    2.4168 H   0  0  0  0  0  0  0  0  0  0  0  0
    5.2290  -10.6224    4.7111 H   0  0  0  0  0  0  0  0  0  0  0  0
    7.0381   -9.7596    5.8557 H   0  0  0  0  0  0  0  0  0  0  0  0
    6.0560   -7.7986    7.0048 H   0  0  0  0  0  0  0  0  0  0  0  0
    7.6940   -6.8240    5.0772 H   0  0  0  0  0  0  0  0  0  0  0  0
    6.1446   -8.7636    2.7730 H   0  0  0  0  0  0  0  0  0  0  0  0
    6.9969   -5.0637    3.5348 H   0  0  0  0  0  0  0  0  0  0  0  0
    6.6837   -6.4210    0.7950 H   0  0  0  0  0  0  0  0  0  0  0  0
    8.1217   -5.6133    1.4355 H   0  0  0  0  0  0  0  0  0  0  0  0
    6.6682   -4.6660    1.0985 H   0  0  0  0  0  0  0  0  0  0  0  0
    4.7782   -7.2110    1.8007 H   0  0  0  0  0  0  0  0  0  0  0  0
    2.9050   -6.2575    3.6430 H   0  0  0  0  0  0  0  0  0  0  0  0
    2.4748   -6.4157    1.4034 H   0  0  0  0  0  0  0  0  0  0  0  0
    2.2794   -8.1491    1.4800 H   0  0  0  0  0  0  0  0  0  0  0  0
   -0.9432   -8.1391    5.0301 H   0  0  0  0  0  0  0  0  0  0  0  0
   -0.6399   -6.4802    4.4740 H   0  0  0  0  0  0  0  0  0  0  0  0
   -2.8848   -7.8945    3.6687 H   0  0  0  0  0  0  0  0  0  0  0  0
   -2.0516   -6.8590    2.5199 H   0  0  0  0  0  0  0  0  0  0  0  0
   -2.1365   -9.8028    2.6274 H   0  0  0  0  0  0  0  0  0  0  0  0
   -1.7635   -8.7587    1.2712 H   0  0  0  0  0  0  0  0  0  0  0  0
    0.5173   -9.3917    1.6840 H   0  0  0  0  0  0  0  0  0  0  0  0
   -0.1252  -10.1011    3.1933 H   0  0  0  0  0  0  0  0  0  0  0  0
  1  2  1  0
  1 38  1  0
  1 39  1  0
  1 40  1  0
  2 20  1  0
  2  3  2  3
  3  4  1  0
  3 41  1  0
  4 37  1  0
  4  5  1  0
  4 42  1  6
  5  6  1  0
  5  7  1  0
  5 43  1  1
  6 44  1  0
  6 45  1  0
  6 46  1  0
  7  8  1  0
  7  9  1  0
  7 47  1  1
  8 48  1  0
  9 17  1  0
  9 10  1  6
  9 11  1  0
 10 49  1  0
 11 12  2  0
 11 50  1  0
 12 13  1  0
 12 51  1  0
 13 14  1  0
 13 15  1  0
 13 52  1  6
 14 53  1  0
 15 37  1  0
 15 16  1  6
 15 17  1  0
 16 54  1  0
 16 55  1  0
 16 56  1  0
 17 18  1  0
 17 57  1  6
 18 19  1  6
 18 20  1  0
 18 22  1  0
 19 58  1  0
 20 21  1  0
 20 59  1  1
 21 60  1  0
 22 27  1  0
 22 23  1  0
 22 61  1  6
 23 24  1  0
 24 25  1  0
 24 26  1  0
 24 62  1  1
 25 63  1  0
 25 64  1  0
 25 65  1  0
 26 27  1  0
 27 28  1  0
 27 66  1  6
 28 37  1  0
 28 29  1  0
 28 67  1  1
 29 30  1  0
 29 68  1  0
 29 69  1  0
 30 31  1  0
 31 35  1  0
 31 32  1  0
 31 36  1  0
 32 33  1  0
 32 70  1  0
 32 71  1  0
 33 34  1  0
 33 72  1  0
 33 73  1  0
 34 35  1  0
 34 74  1  0
 34 75  1  0
 35 76  1  0
 35 77  1  0
 37 36  1  6
M  END
>  <i_m_ct_stereo_status>  (280) 
1

>  <s_m_source_file>  (280) 
/var/tmp/pbs.5076255.sched01/tmp2672eyar/80wl2hclo4.sdf

>  <i_m_source_file_index>  (280) 
29

>  <i_lp_mmshare_version>  (280) 
48012

>  <i_f3d_flags>  (280) 
0

>  <s_epik_input>  (280) 
W0NIM11bQ0BAXTEyW0NASF0oW09IXSlbQ0hdPVtDSF1bQ0BAXShbT0hdKShbQ0BIXShbT0hdKVtDQEBIXTNbQ0gzXSlbQ0BIXTFbQ0BAXShbT0hdKShbQ0BIXTRbQ0BASF01T1tDQEBIXShPNClbQ0gzXSlbQ0BASF0oW09IXSlDKFxbQ0gzXSk9W0NIXS9bQ0BASF0zW0NAQF0yKE82KVtDQEBIXTVbQ0gyXU9DNjdbQ0gyXVtDSDJdW0NIMl1bQ0gyXTc=

>  <s_epik_cmdline>  (280) 
J2VwaWtfcHl0aG9uJywgJy1waHQnLCAnMi4wJywgJy1waCcsICc3LjAnLCAnLXRuJywgJzgnLCAnLW1hJywgJzIwMCcsICctaW1hZScsICc8aW5maWxlLm1hZT4nLCAnLW9tYWUnLCAnPG91dGZpbGUubWFlPic=

>  <r_lp_tautomer_probability>  (280) 
1

>  <r_epik_Ionization_Penalty>  (280) 
7.97127e-07

>  <r_epik_Ionization_Penalty_Charging>  (280) 
0

>  <r_epik_Ionization_Penalty_Neutral>  (280) 
7.97127e-07

>  <r_epik_State_Penalty>  (280) 
-0

>  <r_epik_Charging_Adjusted_Penalty>  (280) 
0

>  <i_epik_Tot_Q>  (280) 
0

>  <i_epik_Tot_abs_Q>  (280) 
0

>  <s_epik_Chemistry_Notes>  (280) 
This compound contains an acetal/aminal-like group ( X-CH(R)-Y where X, Y are N, S, or O) that may be acid/base labile, releasing an aldehyde.

>  <s_lp_Force_Field>  (280) 
OPLS3e

>  <r_lp_Energy>  (280) 
277.061

>  <b_lp_Chiralities_Consistent>  (280) 
1

>  <s_lp_Variant>  (280) 
80:0-1

>  <s_i_glide_gridfile>  (280) 
pfpi4k_grid

>  <i_i_glide_lignum>  (280) 
29

>  <i_i_glide_rotatable_bonds>  (280) 
5

>  <r_i_docking_score>  (280) 
-3.07576

>  <r_i_glide_ligand_efficiency>  (280) 
-0.0831288

>  <r_i_glide_ligand_efficiency_sa>  (280) 
-0.277003

>  <r_i_glide_ligand_efficiency_ln>  (280) 
-0.667061

>  <r_i_glide_gscore>  (280) 
-3.07576

>  <r_i_glide_lipo>  (280) 
-0.308352

>  <r_i_glide_hbond>  (280) 
0

>  <r_i_glide_metal>  (280) 
-0

>  <r_i_glide_rewards>  (280) 
-0.519063

>  <r_i_glide_evdw>  (280) 
-26.2414

>  <r_i_glide_ecoul>  (280) 
-6.05651

>  <r_i_glide_erotb>  (280) 
0

>  <r_i_glide_esite>  (280) 
-0.0278018

>  <r_i_glide_emodel>  (280) 
-44.1422

>  <r_i_glide_energy>  (280) 
-32.2979

>  <r_i_glide_einternal>  (280) 
1.95785

>  <r_i_glide_intrahb_reward>  (280) 
-0.5

>  <i_i_glide_confnum>  (280) 
5

>  <i_i_glide_posenum>  (280) 
2

>  <r_i_glide_eff_state_penalty>  (280) 
0

>  <ligand_id>  (280) 
80

>  <original_smiles>  (280) 
CC1=CC2C(C)C(O)C3(O)C=CC(O)C4(C)C3C(O)(C1O)C1OC(C)OC1C1COC3(CCCC3)OC214

>  <smiles>  (280) 
[H]OC1([H])C(C([H])([H])[H])=C([H])C2([H])C([H])(C([H])([H])[H])C([H])(O[H])C3(O[H])C([H])=C([H])C([H])(O[H])C4(C([H])([H])[H])C3([H])C1(O[H])C1([H])OC([H])(C([H])([H])[H])OC1([H])C1([H])C([H])([H])OC3(OC214)C([H])([H])C([H])([H])C([H])([H])C3([H])[H]

$$$$
80:0:2
     RDKit          3D

 77 83  0  0  1  0  0  0  0  0999 V2000
    6.2532   -4.9184    6.1003 C   0  0  0  0  0  0  0  0  0  0  0  0
    5.5546   -6.2473    5.8421 C   0  0  0  0  0  0  0  0  0  0  0  0
    4.2010   -6.2854    5.7291 C   0  0  0  0  0  0  0  0  0  0  0  0
    3.3696   -7.5682    5.7653 C   0  0  1  0  0  0  0  0  0  0  0  0
    3.2335   -8.0068    7.2803 C   0  0  1  0  0  0  0  0  0  0  0  0
    1.7886   -7.8715    7.8105 C   0  0  0  0  0  0  0  0  0  0  0  0
    4.0879   -9.3423    7.6324 C   0  0  1  0  0  0  0  0  0  0  0  0
    3.6872   -9.9494    8.8384 O   0  0  0  0  0  0  0  0  0  0  0  0
    4.1062  -10.3096    6.4083 C   0  0  2  0  0  0  0  0  0  0  0  0
    2.6586  -10.2847    6.4856 O   0  0  0  0  0  0  0  0  0  0  0  0
    4.2194  -11.8036    6.4108 C   0  0  0  0  0  0  0  0  0  0  0  0
    3.6718  -12.3420    5.3021 C   0  0  0  0  0  0  0  0  0  0  0  0
    3.0671  -11.4391    4.1929 C   0  0  1  0  0  0  0  0  0  0  0  0
    1.6772  -11.5492    4.2373 O   0  0  0  0  0  0  0  0  0  0  0  0
    3.6965   -9.8955    4.0170 C   0  0  2  0  0  0  0  0  0  0  0  0
    4.0471  -10.1508    2.5103 C   0  0  0  0  0  0  0  0  0  0  0  0
    4.8782   -9.8839    5.0110 C   0  0  1  0  0  0  0  0  0  0  0  0
    6.0861   -8.7309    4.8177 C   0  0  2  0  0  0  0  0  0  0  0  0
    7.2342   -9.5633    4.9207 O   0  0  0  0  0  0  0  0  0  0  0  0
    6.4480   -7.5370    5.8608 C   0  0  1  0  0  0  0  0  0  0  0  0
    7.8194   -7.1596    5.7923 O   0  0  0  0  0  0  0  0  0  0  0  0
    6.1314   -8.1545    3.3486 C   0  0  2  0  0  0  0  0  0  0  0  0
    7.2653   -7.3132    3.1802 O   0  0  0  0  0  0  0  0  0  0  0  0
    6.8492   -6.0724    2.7217 C   0  0  1  0  0  0  0  0  0  0  0  0
    7.2716   -5.9016    1.2547 C   0  0  0  0  0  0  0  0  0  0  0  0
    5.4685   -5.9474    2.8658 O   0  0  0  0  0  0  0  0  0  0  0  0
    4.9627   -7.2560    2.7760 C   0  0  2  0  0  0  0  0  0  0  0  0
    3.4418   -7.3602    3.2122 C   0  0  1  0  0  0  0  0  0  0  0  0
    2.4472   -7.3686    2.0446 C   0  0  0  0  0  0  0  0  0  0  0  0
    1.1704   -7.1038    2.5963 O   0  0  0  0  0  0  0  0  0  0  0  0
    0.6994   -8.0827    3.4569 C   0  0  0  0  0  0  0  0  0  0  0  0
   -0.4944   -7.5038    4.2138 C   0  0  0  0  0  0  0  0  0  0  0  0
   -1.6895   -7.6996    3.2731 C   0  0  0  0  0  0  0  0  0  0  0  0
   -1.3808   -8.9381    2.4399 C   0  0  0  0  0  0  0  0  0  0  0  0
    0.0946   -9.2556    2.6723 C   0  0  0  0  0  0  0  0  0  0  0  0
    1.6117   -8.5289    4.4371 O   0  0  0  0  0  0  0  0  0  0  0  0
    3.0250   -8.3906    4.3455 C   0  0  2  0  0  0  0  0  0  0  0  0
    7.0107   -4.6955    5.3497 H   0  0  0  0  0  0  0  0  0  0  0  0
    6.7504   -4.9408    7.0735 H   0  0  0  0  0  0  0  0  0  0  0  0
    5.5418   -4.0909    6.1130 H   0  0  0  0  0  0  0  0  0  0  0  0
    3.6390   -5.3625    5.7590 H   0  0  0  0  0  0  0  0  0  0  0  0
    4.2513   -7.9929    5.9068 H   0  0  0  0  0  0  0  0  0  0  0  0
    3.7494   -7.2549    7.8781 H   0  0  0  0  0  0  0  0  0  0  0  0
    1.0745   -8.4865    7.2690 H   0  0  0  0  0  0  0  0  0  0  0  0
    1.4601   -6.8363    7.7151 H   0  0  0  0  0  0  0  0  0  0  0  0
    1.7363   -8.1254    8.8666 H   0  0  0  0  0  0  0  0  0  0  0  0
    5.1167   -9.0776    7.8515 H   0  0  0  0  0  0  0  0  0  0  0  0
    2.8629  -10.4052    8.6651 H   0  0  0  0  0  0  0  0  0  0  0  0
    2.3450  -11.0826    6.8877 H   0  0  0  0  0  0  0  0  0  0  0  0
    4.6253  -12.3386    7.2521 H   0  0  0  0  0  0  0  0  0  0  0  0
    3.5854  -13.4070    5.1683 H   0  0  0  0  0  0  0  0  0  0  0  0
    3.2724  -12.0834    3.3337 H   0  0  0  0  0  0  0  0  0  0  0  0
    1.3966  -11.4526    5.1514 H   0  0  0  0  0  0  0  0  0  0  0  0
    4.4272   -9.3803    1.8676 H   0  0  0  0  0  0  0  0  0  0  0  0
    3.1615  -10.4693    1.9582 H   0  0  0  0  0  0  0  0  0  0  0  0
    4.7874  -10.9459    2.4147 H   0  0  0  0  0  0  0  0  0  0  0  0
    5.4302  -10.7628    4.6859 H   0  0  0  0  0  0  0  0  0  0  0  0
    7.1834  -10.2284    4.2470 H   0  0  0  0  0  0  0  0  0  0  0  0
    6.4075   -7.9128    6.8741 H   0  0  0  0  0  0  0  0  0  0  0  0
    8.0157   -7.0404    4.8696 H   0  0  0  0  0  0  0  0  0  0  0  0
    6.3385   -8.9785    2.6671 H   0  0  0  0  0  0  0  0  0  0  0  0
    7.3282   -5.3143    3.3217 H   0  0  0  0  0  0  0  0  0  0  0  0
    6.8794   -6.6922    0.6216 H   0  0  0  0  0  0  0  0  0  0  0  0
    8.3636   -5.9232    1.1966 H   0  0  0  0  0  0  0  0  0  0  0  0
    6.9276   -4.9358    0.8788 H   0  0  0  0  0  0  0  0  0  0  0  0
    4.9838   -7.4117    1.6952 H   0  0  0  0  0  0  0  0  0  0  0  0
    3.1963   -6.3627    3.5700 H   0  0  0  0  0  0  0  0  0  0  0  0
    2.6961   -6.5672    1.3469 H   0  0  0  0  0  0  0  0  0  0  0  0
    2.4564   -8.2926    1.4736 H   0  0  0  0  0  0  0  0  0  0  0  0
   -0.6537   -8.0968    5.1120 H   0  0  0  0  0  0  0  0  0  0  0  0
   -0.3218   -6.4668    4.5040 H   0  0  0  0  0  0  0  0  0  0  0  0
   -2.5979   -7.8323    3.8533 H   0  0  0  0  0  0  0  0  0  0  0  0
   -1.8213   -6.8445    2.6189 H   0  0  0  0  0  0  0  0  0  0  0  0
   -1.9747   -9.7838    2.7855 H   0  0  0  0  0  0  0  0  0  0  0  0
   -1.6139   -8.7807    1.3904 H   0  0  0  0  0  0  0  0  0  0  0  0
    0.6560   -9.4896    1.7683 H   0  0  0  0  0  0  0  0  0  0  0  0
    0.0512  -10.1299    3.2998 H   0  0  0  0  0  0  0  0  0  0  0  0
  1  2  1  0
  1 38  1  0
  1 39  1  0
  1 40  1  0
  2 20  1  0
  2  3  2  3
  3  4  1  0
  3 41  1  0
  4 37  1  0
  4  5  1  0
  4 42  1  1
  5  6  1  0
  5  7  1  0
  5 43  1  1
  6 44  1  0
  6 45  1  0
  6 46  1  0
  7  8  1  0
  7  9  1  0
  7 47  1  1
  8 48  1  0
  9 17  1  0
  9 10  1  6
  9 11  1  0
 10 49  1  0
 11 12  2  0
 11 50  1  0
 12 13  1  0
 12 51  1  0
 13 14  1  0
 13 15  1  0
 13 52  1  6
 14 53  1  0
 15 37  1  0
 15 16  1  6
 15 17  1  0
 16 54  1  0
 16 55  1  0
 16 56  1  0
 17 18  1  0
 17 57  1  6
 18 19  1  6
 18 20  1  0
 18 22  1  0
 19 58  1  0
 20 21  1  0
 20 59  1  1
 21 60  1  0
 22 27  1  0
 22 23  1  0
 22 61  1  6
 23 24  1  0
 24 25  1  0
 24 26  1  0
 24 62  1  1
 25 63  1  0
 25 64  1  0
 25 65  1  0
 26 27  1  0
 27 28  1  0
 27 66  1  6
 28 37  1  0
 28 29  1  0
 28 67  1  1
 29 30  1  0
 29 68  1  0
 29 69  1  0
 30 31  1  0
 31 35  1  0
 31 32  1  0
 31 36  1  0
 32 33  1  0
 32 70  1  0
 32 71  1  0
 33 34  1  0
 33 72  1  0
 33 73  1  0
 34 35  1  0
 34 74  1  0
 34 75  1  0
 35 76  1  0
 35 77  1  0
 37 36  1  1
M  END
>  <i_m_ct_stereo_status>  (281) 
1

>  <s_m_source_file>  (281) 
/var/tmp/pbs.5076255.sched01/tmp2672eyar/80wl2hclo4.sdf

>  <i_m_source_file_index>  (281) 
29

>  <i_lp_mmshare_version>  (281) 
48012

>  <i_f3d_flags>  (281) 
0

>  <s_epik_input>  (281) 
W0NIM11bQ0BAXTEyW0NASF0oW09IXSlbQ0hdPVtDSF1bQ0BAXShbT0hdKShbQ0BIXShbT0hdKVtDQEBIXTNbQ0gzXSlbQ0BIXTFbQ0BAXShbT0hdKShbQ0BIXTRbQ0BASF01T1tDQEBIXShPNClbQ0gzXSlbQ0BASF0oW09IXSlDKFxbQ0gzXSk9W0NIXS9bQ0BASF0zW0NAQF0yKE82KVtDQEBIXTVbQ0gyXU9DNjdbQ0gyXVtDSDJdW0NIMl1bQ0gyXTc=

>  <s_epik_cmdline>  (281) 
J2VwaWtfcHl0aG9uJywgJy1waHQnLCAnMi4wJywgJy1waCcsICc3LjAnLCAnLXRuJywgJzgnLCAnLW1hJywgJzIwMCcsICctaW1hZScsICc8aW5maWxlLm1hZT4nLCAnLW9tYWUnLCAnPG91dGZpbGUubWFlPic=

>  <r_lp_tautomer_probability>  (281) 
1

>  <r_epik_Ionization_Penalty>  (281) 
7.97127e-07

>  <r_epik_Ionization_Penalty_Charging>  (281) 
0

>  <r_epik_Ionization_Penalty_Neutral>  (281) 
7.97127e-07

>  <r_epik_State_Penalty>  (281) 
-0

>  <r_epik_Charging_Adjusted_Penalty>  (281) 
0

>  <i_epik_Tot_Q>  (281) 
0

>  <i_epik_Tot_abs_Q>  (281) 
0

>  <s_epik_Chemistry_Notes>  (281) 
This compound contains an acetal/aminal-like group ( X-CH(R)-Y where X, Y are N, S, or O) that may be acid/base labile, releasing an aldehyde.

>  <s_lp_Force_Field>  (281) 
OPLS3e

>  <r_lp_Energy>  (281) 
277.061

>  <b_lp_Chiralities_Consistent>  (281) 
1

>  <s_lp_Variant>  (281) 
80:0-1

>  <s_i_glide_gridfile>  (281) 
pfpi4k_grid

>  <i_i_glide_lignum>  (281) 
29

>  <i_i_glide_rotatable_bonds>  (281) 
5

>  <r_i_docking_score>  (281) 
-2.89834

>  <r_i_glide_ligand_efficiency>  (281) 
-0.0783336

>  <r_i_glide_ligand_efficiency_sa>  (281) 
-0.261025

>  <r_i_glide_ligand_efficiency_ln>  (281) 
-0.628583

>  <r_i_glide_gscore>  (281) 
-2.89834

>  <r_i_glide_lipo>  (281) 
-0.244403

>  <r_i_glide_hbond>  (281) 
0

>  <r_i_glide_metal>  (281) 
-0

>  <r_i_glide_rewards>  (281) 
-0.522794

>  <r_i_glide_evdw>  (281) 
-27.5067

>  <r_i_glide_ecoul>  (281) 
-4.8849

>  <r_i_glide_erotb>  (281) 
0

>  <r_i_glide_esite>  (281) 
-0.0230779

>  <r_i_glide_emodel>  (281) 
-43.727

>  <r_i_glide_energy>  (281) 
-32.3916

>  <r_i_glide_einternal>  (281) 
2.02666

>  <r_i_glide_intrahb_reward>  (281) 
-0.5

>  <i_i_glide_confnum>  (281) 
5

>  <i_i_glide_posenum>  (281) 
23

>  <r_i_glide_eff_state_penalty>  (281) 
0

>  <ligand_id>  (281) 
80

>  <original_smiles>  (281) 
CC1=CC2C(C)C(O)C3(O)C=CC(O)C4(C)C3C(O)(C1O)C1OC(C)OC1C1COC3(CCCC3)OC214

>  <smiles>  (281) 
[H]OC1([H])C(C([H])([H])[H])=C([H])C2([H])C([H])(C([H])([H])[H])C([H])(O[H])C3(O[H])C([H])=C([H])C([H])(O[H])C4(C([H])([H])[H])C3([H])C1(O[H])C1([H])OC([H])(C([H])([H])[H])OC1([H])C1([H])C([H])([H])OC3(OC214)C([H])([H])C([H])([H])C([H])([H])C3([H])[H]

$$$$
80:1:0
     RDKit          3D

 77 83  0  0  1  0  0  0  0  0999 V2000
    1.8120   -6.4390    7.8532 C   0  0  0  0  0  0  0  0  0  0  0  0
    2.3797   -7.3266    6.7461 C   0  0  0  0  0  0  0  0  0  0  0  0
    3.2597   -6.7926    5.8817 C   0  0  0  0  0  0  0  0  0  0  0  0
    4.2055   -7.1504    4.7677 C   0  0  1  0  0  0  0  0  0  0  0  0
    5.5015   -7.8808    5.3016 C   0  0  1  0  0  0  0  0  0  0  0  0
    6.3750   -6.9000    6.1201 C   0  0  0  0  0  0  0  0  0  0  0  0
    5.2726   -9.2297    6.0519 C   0  0  1  0  0  0  0  0  0  0  0  0
    4.9996   -8.9575    7.4101 O   0  0  0  0  0  0  0  0  0  0  0  0
    4.3908  -10.3598    5.3925 C   0  0  2  0  0  0  0  0  0  0  0  0
    3.9598  -11.2509    6.4056 O   0  0  0  0  0  0  0  0  0  0  0  0
    5.3218  -11.2052    4.5361 C   0  0  0  0  0  0  0  0  0  0  0  0
    5.5859  -10.9181    3.2664 C   0  0  0  0  0  0  0  0  0  0  0  0
    5.0386   -9.6930    2.6003 C   0  0  1  0  0  0  0  0  0  0  0  0
    5.2093   -9.8693    1.1934 O   0  0  0  0  0  0  0  0  0  0  0  0
    3.5937   -9.2119    3.1543 C   0  0  1  0  0  0  0  0  0  0  0  0
    2.6685   -9.7135    2.0033 C   0  0  0  0  0  0  0  0  0  0  0  0
    3.1452   -9.9262    4.5209 C   0  0  2  0  0  0  0  0  0  0  0  0
    1.7800   -9.4797    5.2894 C   0  0  1  0  0  0  0  0  0  0  0  0
    1.0785  -10.6588    5.6121 O   0  0  0  0  0  0  0  0  0  0  0  0
    1.8480   -8.7557    6.7091 C   0  0  1  0  0  0  0  0  0  0  0  0
    2.3803   -9.4569    7.7898 O   0  0  0  0  0  0  0  0  0  0  0  0
    0.6777   -8.6747    4.4952 C   0  0  2  0  0  0  0  0  0  0  0  0
   -0.0846   -9.3611    3.5209 O   0  0  0  0  0  0  0  0  0  0  0  0
   -0.6414   -8.4077    2.6966 C   0  0  1  0  0  0  0  0  0  0  0  0
   -2.1698   -8.4453    2.8223 C   0  0  0  0  0  0  0  0  0  0  0  0
   -0.2112   -7.1460    3.0825 O   0  0  0  0  0  0  0  0  0  0  0  0
    0.9454   -7.2952    3.8943 C   0  0  2  0  0  0  0  0  0  0  0  0
    2.1882   -6.9958    3.0087 C   0  0  1  0  0  0  0  0  0  0  0  0
    2.3183   -5.4816    2.8022 C   0  0  0  0  0  0  0  0  0  0  0  0
    3.2044   -5.2166    1.7198 O   0  0  0  0  0  0  0  0  0  0  0  0
    4.4590   -5.7979    1.8487 C   0  0  0  0  0  0  0  0  0  0  0  0
    5.1086   -5.8143    0.4386 C   0  0  0  0  0  0  0  0  0  0  0  0
    6.2096   -4.7405    0.4353 C   0  0  0  0  0  0  0  0  0  0  0  0
    5.9847   -3.9114    1.6852 C   0  0  0  0  0  0  0  0  0  0  0  0
    5.4030   -4.8945    2.6802 C   0  0  0  0  0  0  0  0  0  0  0  0
    4.4405   -7.1231    2.3126 O   0  0  0  0  0  0  0  0  0  0  0  0
    3.5715   -7.6310    3.3399 C   0  0  1  0  0  0  0  0  0  0  0  0
    0.7342   -6.4094    7.7432 H   0  0  0  0  0  0  0  0  0  0  0  0
    2.1776   -5.3981    7.8850 H   0  0  0  0  0  0  0  0  0  0  0  0
    2.0256   -6.9009    8.8126 H   0  0  0  0  0  0  0  0  0  0  0  0
    3.3034   -7.6905    5.4117 H   0  0  0  0  0  0  0  0  0  0  0  0
    4.5671   -6.1810    4.5969 H   0  0  0  0  0  0  0  0  0  0  0  0
    6.1623   -8.0619    4.4769 H   0  0  0  0  0  0  0  0  0  0  0  0
    5.8735   -6.5463    7.0146 H   0  0  0  0  0  0  0  0  0  0  0  0
    6.6768   -6.0244    5.5477 H   0  0  0  0  0  0  0  0  0  0  0  0
    7.2980   -7.3855    6.4488 H   0  0  0  0  0  0  0  0  0  0  0  0
    6.2733   -9.6395    6.1431 H   0  0  0  0  0  0  0  0  0  0  0  0
    4.0598   -8.9274    7.5353 H   0  0  0  0  0  0  0  0  0  0  0  0
    3.1711  -11.6807    6.1189 H   0  0  0  0  0  0  0  0  0  0  0  0
    5.7850  -12.0617    5.0020 H   0  0  0  0  0  0  0  0  0  0  0  0
    6.2837  -11.5372    2.7088 H   0  0  0  0  0  0  0  0  0  0  0  0
    5.8143   -8.9481    2.7618 H   0  0  0  0  0  0  0  0  0  0  0  0
    4.6799  -10.6130    0.8854 H   0  0  0  0  0  0  0  0  0  0  0  0
    1.6274   -9.6970    2.2062 H   0  0  0  0  0  0  0  0  0  0  0  0
    2.8624  -10.7596    1.8051 H   0  0  0  0  0  0  0  0  0  0  0  0
    2.7924   -9.1835    1.0683 H   0  0  0  0  0  0  0  0  0  0  0  0
    2.8458  -10.8890    4.1075 H   0  0  0  0  0  0  0  0  0  0  0  0
    1.4853  -11.1307    6.3387 H   0  0  0  0  0  0  0  0  0  0  0  0
    0.8233   -8.5813    7.0297 H   0  0  0  0  0  0  0  0  0  0  0  0
    2.0022  -10.3194    7.7637 H   0  0  0  0  0  0  0  0  0  0  0  0
   -0.1322   -8.4968    5.2012 H   0  0  0  0  0  0  0  0  0  0  0  0
   -0.3346   -8.6132    1.6669 H   0  0  0  0  0  0  0  0  0  0  0  0
   -2.4738   -8.2139    3.8436 H   0  0  0  0  0  0  0  0  0  0  0  0
   -2.5472   -9.4337    2.5447 H   0  0  0  0  0  0  0  0  0  0  0  0
   -2.5918   -7.7058    2.1516 H   0  0  0  0  0  0  0  0  0  0  0  0
    0.8766   -6.5438    4.6737 H   0  0  0  0  0  0  0  0  0  0  0  0
    1.9324   -7.3473    2.0168 H   0  0  0  0  0  0  0  0  0  0  0  0
    1.3589   -5.0515    2.5343 H   0  0  0  0  0  0  0  0  0  0  0  0
    2.6375   -4.9793    3.7069 H   0  0  0  0  0  0  0  0  0  0  0  0
    5.5425   -6.7970    0.2416 H   0  0  0  0  0  0  0  0  0  0  0  0
    4.3492   -5.6248   -0.3245 H   0  0  0  0  0  0  0  0  0  0  0  0
    7.1908   -5.2210    0.4904 H   0  0  0  0  0  0  0  0  0  0  0  0
    6.1905   -4.1253   -0.4658 H   0  0  0  0  0  0  0  0  0  0  0  0
    6.9033   -3.4502    2.0576 H   0  0  0  0  0  0  0  0  0  0  0  0
    5.2637   -3.1150    1.4963 H   0  0  0  0  0  0  0  0  0  0  0  0
    4.8772   -4.3778    3.4731 H   0  0  0  0  0  0  0  0  0  0  0  0
    6.2019   -5.5066    3.0997 H   0  0  0  0  0  0  0  0  0  0  0  0
  1  2  1  0
  1 38  1  0
  1 39  1  0
  1 40  1  0
  2 20  1  0
  2  3  2  3
  3  4  1  0
  3 41  1  0
  4 37  1  0
  4  5  1  0
  4 42  1  6
  5  6  1  0
  5  7  1  0
  5 43  1  6
  6 44  1  0
  6 45  1  0
  6 46  1  0
  7  8  1  0
  7  9  1  0
  7 47  1  1
  8 48  1  0
  9 17  1  0
  9 10  1  1
  9 11  1  0
 10 49  1  0
 11 12  2  0
 11 50  1  0
 12 13  1  0
 12 51  1  0
 13 14  1  0
 13 15  1  0
 13 52  1  1
 14 53  1  0
 15 37  1  0
 15 16  1  6
 15 17  1  0
 16 54  1  0
 16 55  1  0
 16 56  1  0
 17 18  1  0
 17 57  1  6
 18 19  1  1
 18 20  1  0
 18 22  1  0
 19 58  1  0
 20 21  1  0
 20 59  1  1
 21 60  1  0
 22 27  1  0
 22 23  1  0
 22 61  1  1
 23 24  1  0
 24 25  1  0
 24 26  1  0
 24 62  1  6
 25 63  1  0
 25 64  1  0
 25 65  1  0
 26 27  1  0
 27 28  1  0
 27 66  1  1
 28 37  1  0
 28 29  1  0
 28 67  1  6
 29 30  1  0
 29 68  1  0
 29 69  1  0
 30 31  1  0
 31 35  1  0
 31 32  1  0
 31 36  1  0
 32 33  1  0
 32 70  1  0
 32 71  1  0
 33 34  1  0
 33 72  1  0
 33 73  1  0
 34 35  1  0
 34 74  1  0
 34 75  1  0
 35 76  1  0
 35 77  1  0
 37 36  1  6
M  END
>  <i_m_ct_stereo_status>  (282) 
1

>  <s_m_source_file>  (282) 
/var/tmp/pbs.5076255.sched01/tmp2672eyar/80wl2hclo4.sdf

>  <i_m_source_file_index>  (282) 
30

>  <i_lp_mmshare_version>  (282) 
48012

>  <i_f3d_flags>  (282) 
2

>  <s_epik_input>  (282) 
W0NIM11bQ0BAXTEyW0NASF0oW09IXSlbQ0hdPVtDSF1bQ0BAXShbT0hdKShbQ0BIXShbT0hdKVtDQEBIXTNbQ0gzXSlbQ0BIXTFbQ0BAXShbT0hdKShbQ0BIXTRbQ0BASF01T1tDQEBIXShPNClbQ0gzXSlbQ0BASF0oW09IXSlDKFxbQ0gzXSk9W0NIXS9bQ0BASF0zW0NAQF0yKE82KVtDQEBIXTVbQ0gyXU9DNjdbQ0gyXVtDSDJdW0NIMl1bQ0gyXTc=

>  <s_epik_cmdline>  (282) 
J2VwaWtfcHl0aG9uJywgJy1waHQnLCAnMi4wJywgJy1waCcsICc3LjAnLCAnLXRuJywgJzgnLCAnLW1hJywgJzIwMCcsICctaW1hZScsICc8aW5maWxlLm1hZT4nLCAnLW9tYWUnLCAnPG91dGZpbGUubWFlPic=

>  <r_lp_tautomer_probability>  (282) 
1

>  <r_epik_Ionization_Penalty>  (282) 
7.97127e-07

>  <r_epik_Ionization_Penalty_Charging>  (282) 
0

>  <r_epik_Ionization_Penalty_Neutral>  (282) 
7.97127e-07

>  <r_epik_State_Penalty>  (282) 
-0

>  <r_epik_Charging_Adjusted_Penalty>  (282) 
0

>  <i_epik_Tot_Q>  (282) 
0

>  <i_epik_Tot_abs_Q>  (282) 
0

>  <s_epik_Chemistry_Notes>  (282) 
This compound contains an acetal/aminal-like group ( X-CH(R)-Y where X, Y are N, S, or O) that may be acid/base labile, releasing an aldehyde.

>  <s_lp_Force_Field>  (282) 
OPLS3e

>  <r_lp_Energy>  (282) 
107.505

>  <b_lp_Chiralities_Consistent>  (282) 
0

>  <s_lp_Variant>  (282) 
80:0-2

>  <s_i_glide_gridfile>  (282) 
pfpi4k_grid

>  <i_i_glide_lignum>  (282) 
30

>  <i_i_glide_rotatable_bonds>  (282) 
5

>  <r_i_docking_score>  (282) 
-3.83749

>  <r_i_glide_ligand_efficiency>  (282) 
-0.103716

>  <r_i_glide_ligand_efficiency_sa>  (282) 
-0.345604

>  <r_i_glide_ligand_efficiency_ln>  (282) 
-0.832261

>  <r_i_glide_gscore>  (282) 
-3.83749

>  <r_i_glide_lipo>  (282) 
-0.31638

>  <r_i_glide_hbond>  (282) 
-0.00342697

>  <r_i_glide_metal>  (282) 
-0

>  <r_i_glide_rewards>  (282) 
-0.536179

>  <r_i_glide_evdw>  (282) 
-26.1044

>  <r_i_glide_ecoul>  (282) 
-10.866

>  <r_i_glide_erotb>  (282) 
0

>  <r_i_glide_esite>  (282) 
-0.0463756

>  <r_i_glide_emodel>  (282) 
-50.7783

>  <r_i_glide_energy>  (282) 
-36.9705

>  <r_i_glide_einternal>  (282) 
1.65659

>  <r_i_glide_intrahb_reward>  (282) 
-0.5

>  <i_i_glide_confnum>  (282) 
3

>  <i_i_glide_posenum>  (282) 
6

>  <r_i_glide_eff_state_penalty>  (282) 
0

>  <ligand_id>  (282) 
80

>  <original_smiles>  (282) 
CC1=CC2C(C)C(O)C3(O)C=CC(O)C4(C)C3C(O)(C1O)C1OC(C)OC1C1COC3(CCCC3)OC214

>  <smiles>  (282) 
[H]OC1([H])C(C([H])([H])[H])=C([H])C2([H])C([H])(C([H])([H])[H])C([H])(O[H])C3(O[H])C([H])=C([H])C([H])(O[H])C4(C([H])([H])[H])C3([H])C1(O[H])C1([H])OC([H])(C([H])([H])[H])OC1([H])C1([H])C([H])([H])OC3(OC214)C([H])([H])C([H])([H])C([H])([H])C3([H])[H]

$$$$
80:1:1
     RDKit          3D

 77 83  0  0  1  0  0  0  0  0999 V2000
    1.7869   -6.8980    7.8838 C   0  0  0  0  0  0  0  0  0  0  0  0
    2.3875   -7.6797    6.7055 C   0  0  0  0  0  0  0  0  0  0  0  0
    3.2010   -7.0148    5.8753 C   0  0  0  0  0  0  0  0  0  0  0  0
    4.1510   -7.2074    4.7093 C   0  0  1  0  0  0  0  0  0  0  0  0
    5.4996   -7.9059    5.1651 C   0  0  1  0  0  0  0  0  0  0  0  0
    6.3373   -6.9607    6.0481 C   0  0  0  0  0  0  0  0  0  0  0  0
    5.3702   -9.3288    5.7981 C   0  0  1  0  0  0  0  0  0  0  0  0
    5.0994   -9.1980    7.1783 O   0  0  0  0  0  0  0  0  0  0  0  0
    4.5362  -10.4440    5.0495 C   0  0  2  0  0  0  0  0  0  0  0  0
    4.1818  -11.4713    5.9511 O   0  0  0  0  0  0  0  0  0  0  0  0
    5.4880  -11.1535    4.1101 C   0  0  0  0  0  0  0  0  0  0  0  0
    5.7255  -10.7452    2.8668 C   0  0  0  0  0  0  0  0  0  0  0  0
    5.0857   -9.4994    2.3092 C   0  0  1  0  0  0  0  0  0  0  0  0
    5.2047   -9.5446    0.8875 O   0  0  0  0  0  0  0  0  0  0  0  0
    3.6362   -9.1466    2.9322 C   0  0  1  0  0  0  0  0  0  0  0  0
    2.7146   -9.5987    1.7588 C   0  0  0  0  0  0  0  0  0  0  0  0
    3.2438  -10.0081    4.2382 C   0  0  2  0  0  0  0  0  0  0  0  0
    1.8658   -9.7055    5.0588 C   0  0  1  0  0  0  0  0  0  0  0  0
    1.2446  -10.9521    5.2732 O   0  0  0  0  0  0  0  0  0  0  0  0
    1.9147   -9.1207    6.5419 C   0  0  1  0  0  0  0  0  0  0  0  0
    2.5267   -9.8814    7.5229 O   0  0  0  0  0  0  0  0  0  0  0  0
    0.7137   -8.8864    4.3531 C   0  0  2  0  0  0  0  0  0  0  0  0
   -0.0255   -9.5177    3.3322 O   0  0  0  0  0  0  0  0  0  0  0  0
   -0.6533   -8.5276    2.6050 C   0  0  1  0  0  0  0  0  0  0  0  0
   -2.1697   -8.6560    2.7400 C   0  0  0  0  0  0  0  0  0  0  0  0
   -0.2809   -7.2853    3.0975 O   0  0  0  0  0  0  0  0  0  0  0  0
    0.9037   -7.4426    3.8672 C   0  0  2  0  0  0  0  0  0  0  0  0
    2.1122   -7.0078    2.9938 C   0  0  1  0  0  0  0  0  0  0  0  0
    2.1627   -5.4791    2.9168 C   0  0  0  0  0  0  0  0  0  0  0  0
    3.0146   -5.1064    1.8465 O   0  0  0  0  0  0  0  0  0  0  0  0
    4.3075   -5.5892    1.9337 C   0  0  0  0  0  0  0  0  0  0  0  0
    4.9248   -5.4989    0.5110 C   0  0  0  0  0  0  0  0  0  0  0  0
    6.4369   -5.4444    0.7601 C   0  0  0  0  0  0  0  0  0  0  0  0
    6.6038   -4.7596    2.1142 C   0  0  0  0  0  0  0  0  0  0  0  0
    5.2184   -4.6472    2.7778 C   0  0  0  0  0  0  0  0  0  0  0  0
    4.3930   -6.9450    2.3133 O   0  0  0  0  0  0  0  0  0  0  0  0
    3.5314   -7.5952    3.2582 C   0  0  1  0  0  0  0  0  0  0  0  0
    0.7050   -6.9036    7.7908 H   0  0  0  0  0  0  0  0  0  0  0  0
    2.1070   -5.8424    7.9921 H   0  0  0  0  0  0  0  0  0  0  0  0
    2.0410   -7.4212    8.7982 H   0  0  0  0  0  0  0  0  0  0  0  0
    3.2962   -7.8440    5.2957 H   0  0  0  0  0  0  0  0  0  0  0  0
    4.3830   -6.2041    4.6353 H   0  0  0  0  0  0  0  0  0  0  0  0
    6.1499   -7.9938    4.3191 H   0  0  0  0  0  0  0  0  0  0  0  0
    5.8366   -6.7063    6.9731 H   0  0  0  0  0  0  0  0  0  0  0  0
    6.5747   -6.0297    5.5427 H   0  0  0  0  0  0  0  0  0  0  0  0
    7.2886   -7.4124    6.3205 H   0  0  0  0  0  0  0  0  0  0  0  0
    6.3909   -9.7010    5.8434 H   0  0  0  0  0  0  0  0  0  0  0  0
    4.1608   -9.1926    7.3174 H   0  0  0  0  0  0  0  0  0  0  0  0
    3.2834  -11.3561    6.1997 H   0  0  0  0  0  0  0  0  0  0  0  0
    6.0003  -12.0318    4.4925 H   0  0  0  0  0  0  0  0  0  0  0  0
    6.4334  -11.2862    2.2506 H   0  0  0  0  0  0  0  0  0  0  0  0
    5.8307   -8.7390    2.5147 H   0  0  0  0  0  0  0  0  0  0  0  0
    4.8176  -10.3677    0.5889 H   0  0  0  0  0  0  0  0  0  0  0  0
    1.6745   -9.6529    1.9707 H   0  0  0  0  0  0  0  0  0  0  0  0
    2.9503  -10.6180    1.4651 H   0  0  0  0  0  0  0  0  0  0  0  0
    2.7963   -8.9797    0.8688 H   0  0  0  0  0  0  0  0  0  0  0  0
    2.9904  -10.9460    3.7450 H   0  0  0  0  0  0  0  0  0  0  0  0
    1.4286  -11.2657    6.1724 H   0  0  0  0  0  0  0  0  0  0  0  0
    0.8913   -9.0165    6.8960 H   0  0  0  0  0  0  0  0  0  0  0  0
    2.0243  -10.6946    7.6204 H   0  0  0  0  0  0  0  0  0  0  0  0
   -0.0928   -8.8102    5.0806 H   0  0  0  0  0  0  0  0  0  0  0  0
   -0.3447   -8.6380    1.5670 H   0  0  0  0  0  0  0  0  0  0  0  0
   -2.4712   -8.5314    3.7784 H   0  0  0  0  0  0  0  0  0  0  0  0
   -2.4961   -9.6312    2.3808 H   0  0  0  0  0  0  0  0  0  0  0  0
   -2.6344   -7.8813    2.1349 H   0  0  0  0  0  0  0  0  0  0  0  0
    0.8101   -6.7695    4.7120 H   0  0  0  0  0  0  0  0  0  0  0  0
    1.8563   -7.2834    1.9829 H   0  0  0  0  0  0  0  0  0  0  0  0
    1.1722   -5.0763    2.7081 H   0  0  0  0  0  0  0  0  0  0  0  0
    2.4800   -5.0299    3.8523 H   0  0  0  0  0  0  0  0  0  0  0  0
    4.6304   -6.3478   -0.1174 H   0  0  0  0  0  0  0  0  0  0  0  0
    4.5873   -4.5759    0.0183 H   0  0  0  0  0  0  0  0  0  0  0  0
    6.8370   -6.4660    0.8061 H   0  0  0  0  0  0  0  0  0  0  0  0
    6.9796   -4.9060   -0.0243 H   0  0  0  0  0  0  0  0  0  0  0  0
    7.2654   -5.3631    2.7307 H   0  0  0  0  0  0  0  0  0  0  0  0
    7.0489   -3.7698    2.0081 H   0  0  0  0  0  0  0  0  0  0  0  0
    4.8565   -3.6235    2.6309 H   0  0  0  0  0  0  0  0  0  0  0  0
    5.3091   -4.8683    3.8211 H   0  0  0  0  0  0  0  0  0  0  0  0
  1  2  1  0
  1 38  1  0
  1 39  1  0
  1 40  1  0
  2 20  1  0
  2  3  2  3
  3  4  1  0
  3 41  1  0
  4 37  1  0
  4  5  1  0
  4 42  1  6
  5  6  1  0
  5  7  1  0
  5 43  1  6
  6 44  1  0
  6 45  1  0
  6 46  1  0
  7  8  1  0
  7  9  1  0
  7 47  1  1
  8 48  1  0
  9 17  1  0
  9 10  1  1
  9 11  1  0
 10 49  1  0
 11 12  2  0
 11 50  1  0
 12 13  1  0
 12 51  1  0
 13 14  1  0
 13 15  1  0
 13 52  1  1
 14 53  1  0
 15 37  1  0
 15 16  1  6
 15 17  1  0
 16 54  1  0
 16 55  1  0
 16 56  1  0
 17 18  1  0
 17 57  1  6
 18 19  1  1
 18 20  1  0
 18 22  1  0
 19 58  1  0
 20 21  1  0
 20 59  1  1
 21 60  1  0
 22 27  1  0
 22 23  1  0
 22 61  1  1
 23 24  1  0
 24 25  1  0
 24 26  1  0
 24 62  1  6
 25 63  1  0
 25 64  1  0
 25 65  1  0
 26 27  1  0
 27 28  1  0
 27 66  1  1
 28 37  1  0
 28 29  1  0
 28 67  1  6
 29 30  1  0
 29 68  1  0
 29 69  1  0
 30 31  1  0
 31 35  1  0
 31 32  1  0
 31 36  1  0
 32 33  1  0
 32 70  1  0
 32 71  1  0
 33 34  1  0
 33 72  1  0
 33 73  1  0
 34 35  1  0
 34 74  1  0
 34 75  1  0
 35 76  1  0
 35 77  1  0
 37 36  1  6
M  END
>  <i_m_ct_stereo_status>  (283) 
1

>  <s_m_source_file>  (283) 
/var/tmp/pbs.5076255.sched01/tmp2672eyar/80wl2hclo4.sdf

>  <i_m_source_file_index>  (283) 
30

>  <i_lp_mmshare_version>  (283) 
48012

>  <i_f3d_flags>  (283) 
2

>  <s_epik_input>  (283) 
W0NIM11bQ0BAXTEyW0NASF0oW09IXSlbQ0hdPVtDSF1bQ0BAXShbT0hdKShbQ0BIXShbT0hdKVtDQEBIXTNbQ0gzXSlbQ0BIXTFbQ0BAXShbT0hdKShbQ0BIXTRbQ0BASF01T1tDQEBIXShPNClbQ0gzXSlbQ0BASF0oW09IXSlDKFxbQ0gzXSk9W0NIXS9bQ0BASF0zW0NAQF0yKE82KVtDQEBIXTVbQ0gyXU9DNjdbQ0gyXVtDSDJdW0NIMl1bQ0gyXTc=

>  <s_epik_cmdline>  (283) 
J2VwaWtfcHl0aG9uJywgJy1waHQnLCAnMi4wJywgJy1waCcsICc3LjAnLCAnLXRuJywgJzgnLCAnLW1hJywgJzIwMCcsICctaW1hZScsICc8aW5maWxlLm1hZT4nLCAnLW9tYWUnLCAnPG91dGZpbGUubWFlPic=

>  <r_lp_tautomer_probability>  (283) 
1

>  <r_epik_Ionization_Penalty>  (283) 
7.97127e-07

>  <r_epik_Ionization_Penalty_Charging>  (283) 
0

>  <r_epik_Ionization_Penalty_Neutral>  (283) 
7.97127e-07

>  <r_epik_State_Penalty>  (283) 
-0

>  <r_epik_Charging_Adjusted_Penalty>  (283) 
0

>  <i_epik_Tot_Q>  (283) 
0

>  <i_epik_Tot_abs_Q>  (283) 
0

>  <s_epik_Chemistry_Notes>  (283) 
This compound contains an acetal/aminal-like group ( X-CH(R)-Y where X, Y are N, S, or O) that may be acid/base labile, releasing an aldehyde.

>  <s_lp_Force_Field>  (283) 
OPLS3e

>  <r_lp_Energy>  (283) 
107.505

>  <b_lp_Chiralities_Consistent>  (283) 
0

>  <s_lp_Variant>  (283) 
80:0-2

>  <s_i_glide_gridfile>  (283) 
pfpi4k_grid

>  <i_i_glide_lignum>  (283) 
30

>  <i_i_glide_rotatable_bonds>  (283) 
5

>  <r_i_docking_score>  (283) 
-3.82878

>  <r_i_glide_ligand_efficiency>  (283) 
-0.103481

>  <r_i_glide_ligand_efficiency_sa>  (283) 
-0.34482

>  <r_i_glide_ligand_efficiency_ln>  (283) 
-0.830372

>  <r_i_glide_gscore>  (283) 
-3.82878

>  <r_i_glide_lipo>  (283) 
-0.28874

>  <r_i_glide_hbond>  (283) 
0

>  <r_i_glide_metal>  (283) 
-0

>  <r_i_glide_rewards>  (283) 
-0.523621

>  <r_i_glide_evdw>  (283) 
-26.2647

>  <r_i_glide_ecoul>  (283) 
-11.1098

>  <r_i_glide_erotb>  (283) 
0

>  <r_i_glide_esite>  (283) 
-0.0367158

>  <r_i_glide_emodel>  (283) 
-49.5334

>  <r_i_glide_energy>  (283) 
-37.3745

>  <r_i_glide_einternal>  (283) 
2.33835

>  <r_i_glide_intrahb_reward>  (283) 
-0.5

>  <i_i_glide_confnum>  (283) 
5

>  <i_i_glide_posenum>  (283) 
19

>  <r_i_glide_eff_state_penalty>  (283) 
0

>  <ligand_id>  (283) 
80

>  <original_smiles>  (283) 
CC1=CC2C(C)C(O)C3(O)C=CC(O)C4(C)C3C(O)(C1O)C1OC(C)OC1C1COC3(CCCC3)OC214

>  <smiles>  (283) 
[H]OC1([H])C(C([H])([H])[H])=C([H])C2([H])C([H])(C([H])([H])[H])C([H])(O[H])C3(O[H])C([H])=C([H])C([H])(O[H])C4(C([H])([H])[H])C3([H])C1(O[H])C1([H])OC([H])(C([H])([H])[H])OC1([H])C1([H])C([H])([H])OC3(OC214)C([H])([H])C([H])([H])C([H])([H])C3([H])[H]

$$$$
80:1:2
     RDKit          3D

 77 83  0  0  1  0  0  0  0  0999 V2000
    1.8404   -6.4824    7.7443 C   0  0  0  0  0  0  0  0  0  0  0  0
    2.4168   -7.3047    6.5988 C   0  0  0  0  0  0  0  0  0  0  0  0
    3.2519   -6.7013    5.7386 C   0  0  0  0  0  0  0  0  0  0  0  0
    4.2005   -6.9865    4.5709 C   0  0  1  0  0  0  0  0  0  0  0  0
    5.5323   -7.6759    5.0657 C   0  0  1  0  0  0  0  0  0  0  0  0
    6.3835   -6.6899    5.9021 C   0  0  0  0  0  0  0  0  0  0  0  0
    5.3718   -9.0573    5.7704 C   0  0  1  0  0  0  0  0  0  0  0  0
    5.1158   -8.8491    7.1387 O   0  0  0  0  0  0  0  0  0  0  0  0
    4.5216  -10.2001    5.0877 C   0  0  2  0  0  0  0  0  0  0  0  0
    4.1549  -11.1557    6.0625 O   0  0  0  0  0  0  0  0  0  0  0  0
    5.4654  -10.9708    4.1826 C   0  0  0  0  0  0  0  0  0  0  0  0
    5.6975  -10.6272    2.9142 C   0  0  0  0  0  0  0  0  0  0  0  0
    5.0749   -9.4029    2.2993 C   0  0  1  0  0  0  0  0  0  0  0  0
    5.1796   -9.5143    0.8846 O   0  0  0  0  0  0  0  0  0  0  0  0
    3.6323   -9.0021    2.9058 C   0  0  1  0  0  0  0  0  0  0  0  0
    2.6997   -9.5047    1.7699 C   0  0  0  0  0  0  0  0  0  0  0  0
    3.2448   -9.7818    4.2481 C   0  0  2  0  0  0  0  0  0  0  0  0
    1.8846   -9.4058    5.0627 C   0  0  1  0  0  0  0  0  0  0  0  0
    1.2936  -10.6413    5.3685 O   0  0  0  0  0  0  0  0  0  0  0  0
    1.9365   -8.7497    6.5049 C   0  0  1  0  0  0  0  0  0  0  0  0
    2.5096   -9.4659    7.5441 O   0  0  0  0  0  0  0  0  0  0  0  0
    0.7230   -8.6362    4.3321 C   0  0  2  0  0  0  0  0  0  0  0  0
   -0.0164   -9.3246    3.3526 O   0  0  0  0  0  0  0  0  0  0  0  0
   -0.6249   -8.3633    2.5746 C   0  0  1  0  0  0  0  0  0  0  0  0
   -2.1445   -8.4721    2.7341 C   0  0  0  0  0  0  0  0  0  0  0  0
   -0.2520   -7.0984    2.9995 O   0  0  0  0  0  0  0  0  0  0  0  0
    0.9281   -7.2236    3.7748 C   0  0  2  0  0  0  0  0  0  0  0  0
    2.1269   -6.8467    2.8724 C   0  0  1  0  0  0  0  0  0  0  0  0
    2.1980   -5.3208    2.7190 C   0  0  0  0  0  0  0  0  0  0  0  0
    3.0421   -4.9837    1.6325 O   0  0  0  0  0  0  0  0  0  0  0  0
    4.3287   -5.5110    1.7095 C   0  0  0  0  0  0  0  0  0  0  0  0
    4.9431   -5.4549    0.2864 C   0  0  0  0  0  0  0  0  0  0  0  0
    5.9988   -4.3325    0.3014 C   0  0  0  0  0  0  0  0  0  0  0  0
    5.7676   -3.5562    1.5888 C   0  0  0  0  0  0  0  0  0  0  0  0
    5.2452   -4.6060    2.5540 C   0  0  0  0  0  0  0  0  0  0  0  0
    4.3670   -6.8572    2.1284 O   0  0  0  0  0  0  0  0  0  0  0  0
    3.5484   -7.4346    3.1544 C   0  0  1  0  0  0  0  0  0  0  0  0
    0.7607   -6.4926    7.6612 H   0  0  0  0  0  0  0  0  0  0  0  0
    2.1645   -5.4263    7.8075 H   0  0  0  0  0  0  0  0  0  0  0  0
    2.0933   -6.9674    8.6810 H   0  0  0  0  0  0  0  0  0  0  0  0
    3.3028   -7.5736    5.2410 H   0  0  0  0  0  0  0  0  0  0  0  0
    4.5207   -5.9747    4.4391 H   0  0  0  0  0  0  0  0  0  0  0  0
    6.1770   -7.7999    4.2166 H   0  0  0  0  0  0  0  0  0  0  0  0
    5.8828   -6.3871    6.8169 H   0  0  0  0  0  0  0  0  0  0  0  0
    6.6287   -5.7789    5.3549 H   0  0  0  0  0  0  0  0  0  0  0  0
    7.3258   -7.1425    6.1902 H   0  0  0  0  0  0  0  0  0  0  0  0
    6.3844   -9.4291    5.8257 H   0  0  0  0  0  0  0  0  0  0  0  0
    4.1716   -8.8369    7.2860 H   0  0  0  0  0  0  0  0  0  0  0  0
    3.3582  -11.5968    5.7817 H   0  0  0  0  0  0  0  0  0  0  0  0
    5.9753  -11.8272    4.6058 H   0  0  0  0  0  0  0  0  0  0  0  0
    6.4010  -11.2043    2.3236 H   0  0  0  0  0  0  0  0  0  0  0  0
    5.8249   -8.6403    2.4652 H   0  0  0  0  0  0  0  0  0  0  0  0
    4.7965  -10.3540    0.6189 H   0  0  0  0  0  0  0  0  0  0  0  0
    1.6612   -9.5339    1.9862 H   0  0  0  0  0  0  0  0  0  0  0  0
    2.9202  -10.5389    1.5281 H   0  0  0  0  0  0  0  0  0  0  0  0
    2.7823   -8.9341    0.8515 H   0  0  0  0  0  0  0  0  0  0  0  0
    2.9818  -10.7454    3.8073 H   0  0  0  0  0  0  0  0  0  0  0  0
    1.0617  -11.0653    4.5509 H   0  0  0  0  0  0  0  0  0  0  0  0
    0.9212   -8.6319    6.8560 H   0  0  0  0  0  0  0  0  0  0  0  0
    2.1330  -10.3351    7.4719 H   0  0  0  0  0  0  0  0  0  0  0  0
   -0.0783   -8.5203    5.0616 H   0  0  0  0  0  0  0  0  0  0  0  0
   -0.3422   -8.5112    1.5339 H   0  0  0  0  0  0  0  0  0  0  0  0
   -2.4291   -8.2863    3.7638 H   0  0  0  0  0  0  0  0  0  0  0  0
   -2.4794   -9.4570    2.4273 H   0  0  0  0  0  0  0  0  0  0  0  0
   -2.6012   -7.7311    2.0993 H   0  0  0  0  0  0  0  0  0  0  0  0
    0.8384   -6.5061    4.5864 H   0  0  0  0  0  0  0  0  0  0  0  0
    1.8658   -7.1695    1.8798 H   0  0  0  0  0  0  0  0  0  0  0  0
    1.2099   -4.9211    2.4908 H   0  0  0  0  0  0  0  0  0  0  0  0
    2.5110   -4.8353    3.6401 H   0  0  0  0  0  0  0  0  0  0  0  0
    5.4147   -6.4094    0.0418 H   0  0  0  0  0  0  0  0  0  0  0  0
    4.1588   -5.2681   -0.4508 H   0  0  0  0  0  0  0  0  0  0  0  0
    6.9967   -4.7733    0.3180 H   0  0  0  0  0  0  0  0  0  0  0  0
    5.9322   -3.6881   -0.5751 H   0  0  0  0  0  0  0  0  0  0  0  0
    6.6704   -3.0706    1.9622 H   0  0  0  0  0  0  0  0  0  0  0  0
    5.0083   -2.7880    1.4436 H   0  0  0  0  0  0  0  0  0  0  0  0
    4.7194   -4.1330    3.3760 H   0  0  0  0  0  0  0  0  0  0  0  0
    6.0804   -5.1927    2.9384 H   0  0  0  0  0  0  0  0  0  0  0  0
  1  2  1  0
  1 38  1  0
  1 39  1  0
  1 40  1  0
  2 20  1  0
  2  3  2  3
  3  4  1  0
  3 41  1  0
  4 37  1  0
  4  5  1  0
  4 42  1  6
  5  6  1  0
  5  7  1  0
  5 43  1  6
  6 44  1  0
  6 45  1  0
  6 46  1  0
  7  8  1  0
  7  9  1  0
  7 47  1  1
  8 48  1  0
  9 17  1  0
  9 10  1  1
  9 11  1  0
 10 49  1  0
 11 12  2  0
 11 50  1  0
 12 13  1  0
 12 51  1  0
 13 14  1  0
 13 15  1  0
 13 52  1  1
 14 53  1  0
 15 37  1  0
 15 16  1  6
 15 17  1  0
 16 54  1  0
 16 55  1  0
 16 56  1  0
 17 18  1  0
 17 57  1  6
 18 19  1  1
 18 20  1  0
 18 22  1  0
 19 58  1  0
 20 21  1  0
 20 59  1  1
 21 60  1  0
 22 27  1  0
 22 23  1  0
 22 61  1  1
 23 24  1  0
 24 25  1  0
 24 26  1  0
 24 62  1  6
 25 63  1  0
 25 64  1  0
 25 65  1  0
 26 27  1  0
 27 28  1  0
 27 66  1  1
 28 37  1  0
 28 29  1  0
 28 67  1  6
 29 30  1  0
 29 68  1  0
 29 69  1  0
 30 31  1  0
 31 35  1  0
 31 32  1  0
 31 36  1  0
 32 33  1  0
 32 70  1  0
 32 71  1  0
 33 34  1  0
 33 72  1  0
 33 73  1  0
 34 35  1  0
 34 74  1  0
 34 75  1  0
 35 76  1  0
 35 77  1  0
 37 36  1  6
M  END
>  <i_m_ct_stereo_status>  (284) 
1

>  <s_m_source_file>  (284) 
/var/tmp/pbs.5076255.sched01/tmp2672eyar/80wl2hclo4.sdf

>  <i_m_source_file_index>  (284) 
30

>  <i_lp_mmshare_version>  (284) 
48012

>  <i_f3d_flags>  (284) 
2

>  <s_epik_input>  (284) 
W0NIM11bQ0BAXTEyW0NASF0oW09IXSlbQ0hdPVtDSF1bQ0BAXShbT0hdKShbQ0BIXShbT0hdKVtDQEBIXTNbQ0gzXSlbQ0BIXTFbQ0BAXShbT0hdKShbQ0BIXTRbQ0BASF01T1tDQEBIXShPNClbQ0gzXSlbQ0BASF0oW09IXSlDKFxbQ0gzXSk9W0NIXS9bQ0BASF0zW0NAQF0yKE82KVtDQEBIXTVbQ0gyXU9DNjdbQ0gyXVtDSDJdW0NIMl1bQ0gyXTc=

>  <s_epik_cmdline>  (284) 
J2VwaWtfcHl0aG9uJywgJy1waHQnLCAnMi4wJywgJy1waCcsICc3LjAnLCAnLXRuJywgJzgnLCAnLW1hJywgJzIwMCcsICctaW1hZScsICc8aW5maWxlLm1hZT4nLCAnLW9tYWUnLCAnPG91dGZpbGUubWFlPic=

>  <r_lp_tautomer_probability>  (284) 
1

>  <r_epik_Ionization_Penalty>  (284) 
7.97127e-07

>  <r_epik_Ionization_Penalty_Charging>  (284) 
0

>  <r_epik_Ionization_Penalty_Neutral>  (284) 
7.97127e-07

>  <r_epik_State_Penalty>  (284) 
-0

>  <r_epik_Charging_Adjusted_Penalty>  (284) 
0

>  <i_epik_Tot_Q>  (284) 
0

>  <i_epik_Tot_abs_Q>  (284) 
0

>  <s_epik_Chemistry_Notes>  (284) 
This compound contains an acetal/aminal-like group ( X-CH(R)-Y where X, Y are N, S, or O) that may be acid/base labile, releasing an aldehyde.

>  <s_lp_Force_Field>  (284) 
OPLS3e

>  <r_lp_Energy>  (284) 
107.505

>  <b_lp_Chiralities_Consistent>  (284) 
0

>  <s_lp_Variant>  (284) 
80:0-2

>  <s_i_glide_gridfile>  (284) 
pfpi4k_grid

>  <i_i_glide_lignum>  (284) 
30

>  <i_i_glide_rotatable_bonds>  (284) 
5

>  <r_i_docking_score>  (284) 
-3.69495

>  <r_i_glide_ligand_efficiency>  (284) 
-0.0998634

>  <r_i_glide_ligand_efficiency_sa>  (284) 
-0.332767

>  <r_i_glide_ligand_efficiency_ln>  (284) 
-0.801347

>  <r_i_glide_gscore>  (284) 
-3.69495

>  <r_i_glide_lipo>  (284) 
-0.283498

>  <r_i_glide_hbond>  (284) 
-0.0351815

>  <r_i_glide_metal>  (284) 
-0

>  <r_i_glide_rewards>  (284) 
-1.03307

>  <r_i_glide_evdw>  (284) 
-28.8907

>  <r_i_glide_ecoul>  (284) 
-5.66571

>  <r_i_glide_erotb>  (284) 
0

>  <r_i_glide_esite>  (284) 
-0.0488075

>  <r_i_glide_emodel>  (284) 
-52.5738

>  <r_i_glide_energy>  (284) 
-34.5564

>  <r_i_glide_einternal>  (284) 
1.32237

>  <r_i_glide_intrahb_reward>  (284) 
-1

>  <i_i_glide_confnum>  (284) 
4

>  <i_i_glide_posenum>  (284) 
26

>  <r_i_glide_eff_state_penalty>  (284) 
0

>  <ligand_id>  (284) 
80

>  <original_smiles>  (284) 
CC1=CC2C(C)C(O)C3(O)C=CC(O)C4(C)C3C(O)(C1O)C1OC(C)OC1C1COC3(CCCC3)OC214

>  <smiles>  (284) 
[H]OC1([H])C(C([H])([H])[H])=C([H])C2([H])C([H])(C([H])([H])[H])C([H])(O[H])C3(O[H])C([H])=C([H])C([H])(O[H])C4(C([H])([H])[H])C3([H])C1(O[H])C1([H])OC([H])(C([H])([H])[H])OC1([H])C1([H])C([H])([H])OC3(OC214)C([H])([H])C([H])([H])C([H])([H])C3([H])[H]

$$$$
81:0:0
     RDKit          3D

 81 88  0  0  1  0  0  0  0  0999 V2000
    0.8801  -11.3661    3.7402 C   0  0  0  0  0  0  0  0  0  0  0  0
    1.8562  -10.6689    4.5031 O   0  0  0  0  0  0  0  0  0  0  0  0
    1.2991   -9.8462    5.4911 C   0  0  2  0  0  0  0  0  0  0  0  0
    0.5845   -8.5170    5.1430 C   0  0  2  0  0  0  0  0  0  0  0  0
   -0.8204   -8.6619    5.2034 O   0  0  0  0  0  0  0  0  0  0  0  0
    0.7119   -7.7538    3.7182 C   0  0  0  0  0  0  0  0  0  0  0  0
    2.1044   -7.4395    3.1021 C   0  0  0  0  0  0  0  0  0  0  0  0
    2.8870   -8.5228    2.8670 C   0  0  0  0  0  0  0  0  0  0  0  0
    4.4027   -8.5961    2.8836 C   0  0  1  0  0  0  0  0  0  0  0  0
    4.7847   -9.9279    3.1974 O   0  0  0  0  0  0  0  0  0  0  0  0
    4.8830   -8.3003    1.4631 C   0  0  1  0  0  0  0  0  0  0  0  0
    4.3446   -9.2206    0.5399 O   0  0  0  0  0  0  0  0  0  0  0  0
    4.3461   -6.9386    1.0261 C   0  0  0  0  0  0  0  0  0  0  0  0
    4.0864   -5.9734    2.2126 C   0  0  1  0  0  0  0  0  0  0  0  0
    4.2214   -4.6963    1.6101 O   0  0  0  0  0  0  0  0  0  0  0  0
    2.6675   -5.9810    2.9135 C   0  0  2  0  0  0  0  0  0  0  0  0
    3.0370   -4.9996    4.1224 C   0  0  2  0  0  0  0  0  0  0  0  0
    4.5382   -5.1433    4.4123 C   0  0  0  0  0  0  0  0  0  0  0  0
    5.0971   -6.1495    3.4056 C   0  0  2  0  0  0  0  0  0  0  0  0
    6.5183   -5.6797    2.9701 C   0  0  0  0  0  0  0  0  0  0  0  0
    5.0877   -7.6546    3.9643 C   0  0  2  0  0  0  0  0  0  0  0  0
    6.4331   -8.1113    3.9706 O   0  0  0  0  0  0  0  0  0  0  0  0
    4.6768   -7.9667    5.5044 C   0  0  1  0  0  0  0  0  0  0  0  0
    5.4734   -7.3415    6.4834 O   0  0  0  0  0  0  0  0  0  0  0  0
    3.1864   -7.8639    5.9106 C   0  0  2  0  0  0  0  0  0  0  0  0
    2.2656   -6.9152    6.7513 C   0  0  1  0  0  0  0  0  0  0  0  0
    2.8122   -6.5564    8.1439 C   0  0  0  0  0  0  0  0  0  0  0  0
    1.5147   -5.6568    6.1739 C   0  0  1  0  0  0  0  0  0  0  0  0
    0.5062   -4.9236    7.0667 C   0  0  0  0  0  0  0  0  0  0  0  0
   -0.0657   -3.8291    6.1442 C   0  0  1  0  0  0  0  0  0  0  0  0
   -0.4259   -2.6735    6.8720 O   0  0  0  0  0  0  0  0  0  0  0  0
    1.0011   -3.6075    5.0319 C   0  0  1  0  0  0  0  0  0  0  0  0
    1.3444   -2.1263    4.7353 C   0  0  0  0  0  0  0  0  0  0  0  0
    2.1945   -4.5605    5.3663 C   0  0  2  0  0  0  0  0  0  0  0  0
    3.0092   -3.8238    6.2615 O   0  0  0  0  0  0  0  0  0  0  0  0
    1.2178   -8.0681    6.5718 C   0  0  1  0  0  0  0  0  0  0  0  0
    0.3932   -8.2678    7.6968 O   0  0  0  0  0  0  0  0  0  0  0  0
    2.3495   -9.0976    6.3517 C   0  0  1  0  0  0  0  0  0  0  0  0
    2.9522   -9.9392    7.4771 C   0  0  0  0  0  0  0  0  0  0  0  0
    1.3830  -11.9481    2.9670 H   0  0  0  0  0  0  0  0  0  0  0  0
    0.1950  -10.6808    3.2382 H   0  0  0  0  0  0  0  0  0  0  0  0
    0.3019  -12.0425    4.3689 H   0  0  0  0  0  0  0  0  0  0  0  0
    0.6720  -10.4575    6.1459 H   0  0  0  0  0  0  0  0  0  0  0  0
   -1.0544   -9.5763    5.2848 H   0  0  0  0  0  0  0  0  0  0  0  0
    0.2324   -8.3788    2.9659 H   0  0  0  0  0  0  0  0  0  0  0  0
    0.0932   -6.8507    3.6778 H   0  0  0  0  0  0  0  0  0  0  0  0
    2.4178   -9.4682    2.8072 H   0  0  0  0  0  0  0  0  0  0  0  0
    4.3630  -10.5160    2.5746 H   0  0  0  0  0  0  0  0  0  0  0  0
    5.9722   -8.3197    1.4269 H   0  0  0  0  0  0  0  0  0  0  0  0
    4.6251  -10.1164    0.7280 H   0  0  0  0  0  0  0  0  0  0  0  0
    5.0634   -6.5156    0.3209 H   0  0  0  0  0  0  0  0  0  0  0  0
    3.4154   -7.0451    0.4715 H   0  0  0  0  0  0  0  0  0  0  0  0
    3.6778   -4.6821    0.8300 H   0  0  0  0  0  0  0  0  0  0  0  0
    1.9338   -5.4789    2.2763 H   0  0  0  0  0  0  0  0  0  0  0  0
    3.0397   -4.0432    3.6026 H   0  0  0  0  0  0  0  0  0  0  0  0
    5.0143   -4.1747    4.2531 H   0  0  0  0  0  0  0  0  0  0  0  0
    4.7756   -5.3874    5.4328 H   0  0  0  0  0  0  0  0  0  0  0  0
    7.2120   -5.6845    3.8146 H   0  0  0  0  0  0  0  0  0  0  0  0
    6.5198   -4.6615    2.5787 H   0  0  0  0  0  0  0  0  0  0  0  0
    6.9525   -6.3075    2.1865 H   0  0  0  0  0  0  0  0  0  0  0  0
    6.3854   -9.0353    4.1932 H   0  0  0  0  0  0  0  0  0  0  0  0
    4.9440   -9.0158    5.6475 H   0  0  0  0  0  0  0  0  0  0  0  0
    5.2748   -7.7414    7.3268 H   0  0  0  0  0  0  0  0  0  0  0  0
    2.8406   -7.3233    5.1274 H   0  0  0  0  0  0  0  0  0  0  0  0
    2.0291   -6.3024    8.8537 H   0  0  0  0  0  0  0  0  0  0  0  0
    3.5057   -5.7180    8.0972 H   0  0  0  0  0  0  0  0  0  0  0  0
    3.3743   -7.3751    8.5901 H   0  0  0  0  0  0  0  0  0  0  0  0
    0.8370   -6.0388    5.4362 H   0  0  0  0  0  0  0  0  0  0  0  0
   -0.2814   -5.5898    7.4177 H   0  0  0  0  0  0  0  0  0  0  0  0
    0.9921   -4.4771    7.9361 H   0  0  0  0  0  0  0  0  0  0  0  0
   -0.9760   -4.2043    5.6786 H   0  0  0  0  0  0  0  0  0  0  0  0
    0.3818   -2.2861    7.2119 H   0  0  0  0  0  0  0  0  0  0  0  0
    0.5532   -3.9908    4.1150 H   0  0  0  0  0  0  0  0  0  0  0  0
    1.7810   -1.6146    5.5940 H   0  0  0  0  0  0  0  0  0  0  0  0
    0.4490   -1.5753    4.4467 H   0  0  0  0  0  0  0  0  0  0  0  0
    2.0502   -2.0347    3.9089 H   0  0  0  0  0  0  0  0  0  0  0  0
    3.7318   -4.3870    6.5119 H   0  0  0  0  0  0  0  0  0  0  0  0
    0.5595   -9.1573    7.9954 H   0  0  0  0  0  0  0  0  0  0  0  0
    3.6398   -9.3988    8.1273 H   0  0  0  0  0  0  0  0  0  0  0  0
    3.5294  -10.7743    7.0559 H   0  0  0  0  0  0  0  0  0  0  0  0
    2.1996  -10.3810    8.1365 H   0  0  0  0  0  0  0  0  0  0  0  0
  1  2  1  0
  1 40  1  0
  1 41  1  0
  1 42  1  0
  2  3  1  0
  3 38  1  0
  3  4  1  0
  3 43  1  1
  4 36  1  0
  4  5  1  1
  4  6  1  0
  5 44  1  0
  6  7  1  0
  6 45  1  0
  6 46  1  0
  7 16  1  0
  7  8  2  0
  8  9  1  0
  8 47  1  0
  9 21  1  0
  9 10  1  1
  9 11  1  0
 10 48  1  0
 11 12  1  0
 11 13  1  0
 11 49  1  1
 12 50  1  0
 13 14  1  0
 13 51  1  0
 13 52  1  0
 14 19  1  0
 14 15  1  6
 14 16  1  0
 15 53  1  0
 16 17  1  0
 16 54  1  6
 17 34  1  0
 17 18  1  0
 17 55  1  6
 18 19  1  0
 18 56  1  0
 18 57  1  0
 19 20  1  6
 19 21  1  0
 20 58  1  0
 20 59  1  0
 20 60  1  0
 21 22  1  1
 21 23  1  0
 22 61  1  0
 23 24  1  0
 23 25  1  0
 23 62  1  1
 24 63  1  0
 25 38  1  0
 25 26  1  0
 25 64  1  6
 26 27  1  1
 26 28  1  0
 26 36  1  0
 27 65  1  0
 27 66  1  0
 27 67  1  0
 28 34  1  0
 28 29  1  0
 28 68  1  6
 29 30  1  0
 29 69  1  0
 29 70  1  0
 30 31  1  0
 30 32  1  0
 30 71  1  6
 31 72  1  0
 32 33  1  0
 32 34  1  0
 32 73  1  6
 33 74  1  0
 33 75  1  0
 33 76  1  0
 34 35  1  1
 35 77  1  0
 36 37  1  1
 36 38  1  0
 37 78  1  0
 38 39  1  1
 39 79  1  0
 39 80  1  0
 39 81  1  0
M  END
>  <i_m_ct_stereo_status>  (285) 
1

>  <s_m_source_file>  (285) 
/var/tmp/pbs.5076255.sched01/tmp2672eyar/80wl2hclo4.sdf

>  <i_m_source_file_index>  (285) 
31

>  <i_lp_mmshare_version>  (285) 
48012

>  <i_f3d_flags>  (285) 
0

>  <s_epik_input>  (285) 
W0NIM11PW0NASF0xW0NAQF0yKFtDSDNdKVtDSF0oW0NAXTMoW0NIM10pW0NAQF0yKFtPSF0pW0NAXTE0W09IXSlbQ0BIXShbT0hdKVtDQEBdNShbT0hdKVtDQEBdNihbT0hdKVtDSF09QyhbQ0gyXTQpW0NAQEhdN1tDQF0oW09IXSkoW0NIMl1bQ0BASF02W09IXSlbQ0BAXTUoW0NIM10pW0NIMl1bQ0BASF03W0NAXTgoW09IXSlbQ0BASF0zW0NIMl1bQ0BASF0oW09IXSlbQ0BIXThbQ0gzXQ==

>  <s_epik_cmdline>  (285) 
J2VwaWtfcHl0aG9uJywgJy1waHQnLCAnMi4wJywgJy1waCcsICc3LjAnLCAnLXRuJywgJzgnLCAnLW1hJywgJzIwMCcsICctaW1hZScsICc8aW5maWxlLm1hZT4nLCAnLW9tYWUnLCAnPG91dGZpbGUubWFlPic=

>  <r_lp_tautomer_probability>  (285) 
1

>  <r_epik_Ionization_Penalty>  (285) 
3.47524e-06

>  <r_epik_Ionization_Penalty_Charging>  (285) 
0

>  <r_epik_Ionization_Penalty_Neutral>  (285) 
3.47524e-06

>  <r_epik_State_Penalty>  (285) 
-0

>  <r_epik_Charging_Adjusted_Penalty>  (285) 
0

>  <i_epik_Tot_Q>  (285) 
0

>  <i_epik_Tot_abs_Q>  (285) 
0

>  <s_lp_Force_Field>  (285) 
OPLS3e

>  <r_lp_Energy>  (285) 
210.626

>  <b_lp_Chiralities_Consistent>  (285) 
1

>  <s_lp_Variant>  (285) 
81:0-1

>  <s_i_glide_gridfile>  (285) 
pfpi4k_grid

>  <i_i_glide_lignum>  (285) 
31

>  <i_i_glide_rotatable_bonds>  (285) 
10

>  <r_i_docking_score>  (285) 
-2.82002

>  <r_i_glide_ligand_efficiency>  (285) 
-0.0723082

>  <r_i_glide_ligand_efficiency_sa>  (285) 
-0.245212

>  <r_i_glide_ligand_efficiency_ln>  (285) 
-0.604692

>  <r_i_glide_gscore>  (285) 
-2.82002

>  <r_i_glide_lipo>  (285) 
-0.322712

>  <r_i_glide_hbond>  (285) 
0

>  <r_i_glide_metal>  (285) 
-0

>  <r_i_glide_rewards>  (285) 
0

>  <r_i_glide_evdw>  (285) 
-19.5954

>  <r_i_glide_ecoul>  (285) 
-10.1169

>  <r_i_glide_erotb>  (285) 
0

>  <r_i_glide_esite>  (285) 
0

>  <r_i_glide_emodel>  (285) 
-34.8793

>  <r_i_glide_energy>  (285) 
-29.7123

>  <r_i_glide_einternal>  (285) 
1.94545

>  <r_i_glide_intrahb_reward>  (285) 
-0

>  <i_i_glide_confnum>  (285) 
1

>  <i_i_glide_posenum>  (285) 
7

>  <r_i_glide_eff_state_penalty>  (285) 
0

>  <ligand_id>  (285) 
81

>  <original_smiles>  (285) 
COC1C2(O)CC3=CC4(O)C(O)CC5(O)C3C3CC5(C)C4(O)C(O)C4C(C)(C5CC(O)C(C)C35O)C2(O)C14C

>  <smiles>  (285) 
[H]OC1([H])C([H])([H])C2(O[H])C3([H])C4=C([H])C1(O[H])C1(O[H])C([H])(O[H])C5([H])C6(C([H])([H])[H])C([H])(OC([H])([H])[H])C(O[H])(C4([H])[H])C6(O[H])C5(C([H])([H])[H])C4([H])C([H])([H])C([H])(O[H])C([H])(C([H])([H])[H])C4(O[H])C3([H])C([H])([H])C21C([H])([H])[H]

$$$$
81:0:1
     RDKit          3D

 81 88  0  0  1  0  0  0  0  0999 V2000
    1.1030  -11.4615    3.9474 C   0  0  0  0  0  0  0  0  0  0  0  0
    2.1090  -10.7389    4.6431 O   0  0  0  0  0  0  0  0  0  0  0  0
    1.6037   -9.9519    5.6882 C   0  0  2  0  0  0  0  0  0  0  0  0
    0.8419   -8.6265    5.4379 C   0  0  2  0  0  0  0  0  0  0  0  0
   -0.5571   -8.7638    5.6202 O   0  0  0  0  0  0  0  0  0  0  0  0
    0.8398   -7.8343    4.0261 C   0  0  0  0  0  0  0  0  0  0  0  0
    2.1755   -7.4701    3.3195 C   0  0  0  0  0  0  0  0  0  0  0  0
    2.9579   -8.5248    2.9972 C   0  0  0  0  0  0  0  0  0  0  0  0
    4.4748   -8.5643    2.8948 C   0  0  1  0  0  0  0  0  0  0  0  0
    4.8968   -9.8980    3.1190 O   0  0  0  0  0  0  0  0  0  0  0  0
    4.8322   -8.2090    1.4526 C   0  0  1  0  0  0  0  0  0  0  0  0
    4.2757   -9.1199    0.5277 O   0  0  0  0  0  0  0  0  0  0  0  0
    4.2339   -6.8486    1.0956 C   0  0  0  0  0  0  0  0  0  0  0  0
    4.0427   -5.9266    2.3326 C   0  0  1  0  0  0  0  0  0  0  0  0
    4.1019   -4.6305    1.7586 O   0  0  0  0  0  0  0  0  0  0  0  0
    2.6833   -5.9916    3.1379 C   0  0  2  0  0  0  0  0  0  0  0  0
    3.1181   -5.0347    4.3435 C   0  0  2  0  0  0  0  0  0  0  0  0
    4.6405   -5.1472    4.5160 C   0  0  0  0  0  0  0  0  0  0  0  0
    5.1470   -6.1127    3.4395 C   0  0  2  0  0  0  0  0  0  0  0  0
    6.5192   -5.5877    2.9121 C   0  0  0  0  0  0  0  0  0  0  0  0
    5.2232   -7.6336    3.9546 C   0  0  2  0  0  0  0  0  0  0  0  0
    6.5913   -8.0362    3.8910 O   0  0  0  0  0  0  0  0  0  0  0  0
    4.9356   -7.9941    5.5126 C   0  0  1  0  0  0  0  0  0  0  0  0
    5.7726   -7.3644    6.4548 O   0  0  0  0  0  0  0  0  0  0  0  0
    3.4720   -7.9450    6.0312 C   0  0  2  0  0  0  0  0  0  0  0  0
    2.5986   -7.0409    6.9638 C   0  0  1  0  0  0  0  0  0  0  0  0
    3.2378   -6.7124    8.3244 C   0  0  0  0  0  0  0  0  0  0  0  0
    1.7721   -5.7919    6.4813 C   0  0  1  0  0  0  0  0  0  0  0  0
    0.8095   -5.1138    7.4662 C   0  0  0  0  0  0  0  0  0  0  0  0
    0.1440   -4.0107    6.6193 C   0  0  1  0  0  0  0  0  0  0  0  0
   -0.1818   -2.8848    7.4128 O   0  0  0  0  0  0  0  0  0  0  0  0
    1.1221   -3.7276    5.4427 C   0  0  1  0  0  0  0  0  0  0  0  0
    1.4034   -2.2284    5.1690 C   0  0  0  0  0  0  0  0  0  0  0  0
    2.3599   -4.6532    5.6616 C   0  0  2  0  0  0  0  0  0  0  0  0
    3.2244   -3.9223    6.5140 O   0  0  0  0  0  0  0  0  0  0  0  0
    1.5691   -8.2164    6.8335 C   0  0  1  0  0  0  0  0  0  0  0  0
    0.8351   -8.4643    8.0090 O   0  0  0  0  0  0  0  0  0  0  0  0
    2.7011   -9.2124    6.4951 C   0  0  1  0  0  0  0  0  0  0  0  0
    3.3945  -10.0849    7.5467 C   0  0  0  0  0  0  0  0  0  0  0  0
    1.5599  -12.0062    3.1211 H   0  0  0  0  0  0  0  0  0  0  0  0
    0.3517  -10.7929    3.5254 H   0  0  0  0  0  0  0  0  0  0  0  0
    0.6082  -12.1762    4.6055 H   0  0  0  0  0  0  0  0  0  0  0  0
    1.0404  -10.5979    6.3646 H   0  0  0  0  0  0  0  0  0  0  0  0
   -0.8061   -9.6455    5.3508 H   0  0  0  0  0  0  0  0  0  0  0  0
    0.3221   -8.4611    3.3034 H   0  0  0  0  0  0  0  0  0  0  0  0
    0.1968   -6.9497    4.0594 H   0  0  0  0  0  0  0  0  0  0  0  0
    2.5069   -9.4800    2.9485 H   0  0  0  0  0  0  0  0  0  0  0  0
    4.4409  -10.4769    2.5176 H   0  0  0  0  0  0  0  0  0  0  0  0
    5.9155   -8.1969    1.3317 H   0  0  0  0  0  0  0  0  0  0  0  0
    4.5725  -10.0119    0.6982 H   0  0  0  0  0  0  0  0  0  0  0  0
    4.8924   -6.3862    0.3586 H   0  0  0  0  0  0  0  0  0  0  0  0
    3.2743   -6.9606    0.5919 H   0  0  0  0  0  0  0  0  0  0  0  0
    3.4677   -4.5879    1.0546 H   0  0  0  0  0  0  0  0  0  0  0  0
    1.8894   -5.4922    2.5758 H   0  0  0  0  0  0  0  0  0  0  0  0
    3.0551   -4.0622    3.8571 H   0  0  0  0  0  0  0  0  0  0  0  0
    5.0780   -4.1603    4.3526 H   0  0  0  0  0  0  0  0  0  0  0  0
    4.9602   -5.4082    5.5096 H   0  0  0  0  0  0  0  0  0  0  0  0
    7.2731   -5.5897    3.7024 H   0  0  0  0  0  0  0  0  0  0  0  0
    6.4609   -4.5606    2.5549 H   0  0  0  0  0  0  0  0  0  0  0  0
    6.9094   -6.1723    2.0760 H   0  0  0  0  0  0  0  0  0  0  0  0
    6.8973   -7.9128    3.0017 H   0  0  0  0  0  0  0  0  0  0  0  0
    5.2422   -9.0374    5.6015 H   0  0  0  0  0  0  0  0  0  0  0  0
    5.6955   -7.8339    7.2771 H   0  0  0  0  0  0  0  0  0  0  0  0
    3.0651   -7.3944    5.2832 H   0  0  0  0  0  0  0  0  0  0  0  0
    2.5039   -6.4996    9.0966 H   0  0  0  0  0  0  0  0  0  0  0  0
    3.9038   -5.8522    8.2527 H   0  0  0  0  0  0  0  0  0  0  0  0
    3.8530   -7.5268    8.7033 H   0  0  0  0  0  0  0  0  0  0  0  0
    1.0503   -6.1722    5.7847 H   0  0  0  0  0  0  0  0  0  0  0  0
    0.0707   -5.8113    7.8598 H   0  0  0  0  0  0  0  0  0  0  0  0
    1.3491   -4.6783    8.3086 H   0  0  0  0  0  0  0  0  0  0  0  0
   -0.7876   -4.3939    6.2020 H   0  0  0  0  0  0  0  0  0  0  0  0
    0.6341   -2.5312    7.7587 H   0  0  0  0  0  0  0  0  0  0  0  0
    0.6173   -4.0971    4.5494 H   0  0  0  0  0  0  0  0  0  0  0  0
    1.8898   -1.7308    6.0090 H   0  0  0  0  0  0  0  0  0  0  0  0
    0.4748   -1.6941    4.9661 H   0  0  0  0  0  0  0  0  0  0  0  0
    2.0430   -2.0942    4.2960 H   0  0  0  0  0  0  0  0  0  0  0  0
    3.9769   -4.4715    6.6912 H   0  0  0  0  0  0  0  0  0  0  0  0
    1.0651   -9.3511    8.2880 H   0  0  0  0  0  0  0  0  0  0  0  0
    4.1089   -9.5450    8.1702 H   0  0  0  0  0  0  0  0  0  0  0  0
    3.9760  -10.8772    7.0558 H   0  0  0  0  0  0  0  0  0  0  0  0
    2.6926  -10.5866    8.2144 H   0  0  0  0  0  0  0  0  0  0  0  0
  1  2  1  0
  1 40  1  0
  1 41  1  0
  1 42  1  0
  2  3  1  0
  3 38  1  0
  3  4  1  0
  3 43  1  1
  4 36  1  0
  4  5  1  1
  4  6  1  0
  5 44  1  0
  6  7  1  0
  6 45  1  0
  6 46  1  0
  7 16  1  0
  7  8  2  0
  8  9  1  0
  8 47  1  0
  9 21  1  0
  9 10  1  1
  9 11  1  0
 10 48  1  0
 11 12  1  0
 11 13  1  0
 11 49  1  1
 12 50  1  0
 13 14  1  0
 13 51  1  0
 13 52  1  0
 14 19  1  0
 14 15  1  6
 14 16  1  0
 15 53  1  0
 16 17  1  0
 16 54  1  6
 17 34  1  0
 17 18  1  0
 17 55  1  6
 18 19  1  0
 18 56  1  0
 18 57  1  0
 19 20  1  6
 19 21  1  0
 20 58  1  0
 20 59  1  0
 20 60  1  0
 21 22  1  6
 21 23  1  0
 22 61  1  0
 23 24  1  0
 23 25  1  0
 23 62  1  6
 24 63  1  0
 25 38  1  0
 25 26  1  0
 25 64  1  6
 26 27  1  1
 26 28  1  0
 26 36  1  0
 27 65  1  0
 27 66  1  0
 27 67  1  0
 28 34  1  0
 28 29  1  0
 28 68  1  6
 29 30  1  0
 29 69  1  0
 29 70  1  0
 30 31  1  0
 30 32  1  0
 30 71  1  6
 31 72  1  0
 32 33  1  0
 32 34  1  0
 32 73  1  6
 33 74  1  0
 33 75  1  0
 33 76  1  0
 34 35  1  1
 35 77  1  0
 36 37  1  1
 36 38  1  0
 37 78  1  0
 38 39  1  1
 39 79  1  0
 39 80  1  0
 39 81  1  0
M  END
>  <i_m_ct_stereo_status>  (286) 
1

>  <s_m_source_file>  (286) 
/var/tmp/pbs.5076255.sched01/tmp2672eyar/80wl2hclo4.sdf

>  <i_m_source_file_index>  (286) 
31

>  <i_lp_mmshare_version>  (286) 
48012

>  <i_f3d_flags>  (286) 
0

>  <s_epik_input>  (286) 
W0NIM11PW0NASF0xW0NAQF0yKFtDSDNdKVtDSF0oW0NAXTMoW0NIM10pW0NAQF0yKFtPSF0pW0NAXTE0W09IXSlbQ0BIXShbT0hdKVtDQEBdNShbT0hdKVtDQEBdNihbT0hdKVtDSF09QyhbQ0gyXTQpW0NAQEhdN1tDQF0oW09IXSkoW0NIMl1bQ0BASF02W09IXSlbQ0BAXTUoW0NIM10pW0NIMl1bQ0BASF03W0NAXTgoW09IXSlbQ0BASF0zW0NIMl1bQ0BASF0oW09IXSlbQ0BIXThbQ0gzXQ==

>  <s_epik_cmdline>  (286) 
J2VwaWtfcHl0aG9uJywgJy1waHQnLCAnMi4wJywgJy1waCcsICc3LjAnLCAnLXRuJywgJzgnLCAnLW1hJywgJzIwMCcsICctaW1hZScsICc8aW5maWxlLm1hZT4nLCAnLW9tYWUnLCAnPG91dGZpbGUubWFlPic=

>  <r_lp_tautomer_probability>  (286) 
1

>  <r_epik_Ionization_Penalty>  (286) 
3.47524e-06

>  <r_epik_Ionization_Penalty_Charging>  (286) 
0

>  <r_epik_Ionization_Penalty_Neutral>  (286) 
3.47524e-06

>  <r_epik_State_Penalty>  (286) 
-0

>  <r_epik_Charging_Adjusted_Penalty>  (286) 
0

>  <i_epik_Tot_Q>  (286) 
0

>  <i_epik_Tot_abs_Q>  (286) 
0

>  <s_lp_Force_Field>  (286) 
OPLS3e

>  <r_lp_Energy>  (286) 
210.626

>  <b_lp_Chiralities_Consistent>  (286) 
1

>  <s_lp_Variant>  (286) 
81:0-1

>  <s_i_glide_gridfile>  (286) 
pfpi4k_grid

>  <i_i_glide_lignum>  (286) 
31

>  <i_i_glide_rotatable_bonds>  (286) 
10

>  <r_i_docking_score>  (286) 
-2.73072

>  <r_i_glide_ligand_efficiency>  (286) 
-0.0700184

>  <r_i_glide_ligand_efficiency_sa>  (286) 
-0.237447

>  <r_i_glide_ligand_efficiency_ln>  (286) 
-0.585543

>  <r_i_glide_gscore>  (286) 
-2.73072

>  <r_i_glide_lipo>  (286) 
-0.329071

>  <r_i_glide_hbond>  (286) 
0

>  <r_i_glide_metal>  (286) 
-0

>  <r_i_glide_rewards>  (286) 
0

>  <r_i_glide_evdw>  (286) 
-19.3376

>  <r_i_glide_ecoul>  (286) 
-9.5651

>  <r_i_glide_erotb>  (286) 
0

>  <r_i_glide_esite>  (286) 
0

>  <r_i_glide_emodel>  (286) 
-33.9769

>  <r_i_glide_energy>  (286) 
-28.9027

>  <r_i_glide_einternal>  (286) 
1.76588

>  <r_i_glide_intrahb_reward>  (286) 
-0

>  <i_i_glide_confnum>  (286) 
1

>  <i_i_glide_posenum>  (286) 
3

>  <r_i_glide_eff_state_penalty>  (286) 
0

>  <ligand_id>  (286) 
81

>  <original_smiles>  (286) 
COC1C2(O)CC3=CC4(O)C(O)CC5(O)C3C3CC5(C)C4(O)C(O)C4C(C)(C5CC(O)C(C)C35O)C2(O)C14C

>  <smiles>  (286) 
[H]OC1([H])C([H])([H])C2(O[H])C3([H])C4=C([H])C1(O[H])C1(O[H])C([H])(O[H])C5([H])C6(C([H])([H])[H])C([H])(OC([H])([H])[H])C(O[H])(C4([H])[H])C6(O[H])C5(C([H])([H])[H])C4([H])C([H])([H])C([H])(O[H])C([H])(C([H])([H])[H])C4(O[H])C3([H])C([H])([H])C21C([H])([H])[H]

$$$$
81:0:2
     RDKit          3D

 81 88  0  0  1  0  0  0  0  0999 V2000
    0.7686  -11.2409    3.7936 C   0  0  0  0  0  0  0  0  0  0  0  0
    1.7409  -10.4994    4.5098 O   0  0  0  0  0  0  0  0  0  0  0  0
    1.1833   -9.6444    5.4719 C   0  0  2  0  0  0  0  0  0  0  0  0
    0.5093   -8.3035    5.0825 C   0  0  2  0  0  0  0  0  0  0  0  0
   -0.8929   -8.4002    5.1107 O   0  0  0  0  0  0  0  0  0  0  0  0
    0.6555   -7.5828    3.6378 C   0  0  0  0  0  0  0  0  0  0  0  0
    2.0596   -7.3042    3.0330 C   0  0  0  0  0  0  0  0  0  0  0  0
    2.8192   -8.4042    2.8305 C   0  0  0  0  0  0  0  0  0  0  0  0
    4.3356   -8.5125    2.8641 C   0  0  1  0  0  0  0  0  0  0  0  0
    4.6733   -9.8493    3.1877 O   0  0  0  0  0  0  0  0  0  0  0  0
    4.8329   -8.2512    1.4416 C   0  0  1  0  0  0  0  0  0  0  0  0
    4.3066   -9.1951    0.5360 O   0  0  0  0  0  0  0  0  0  0  0  0
    4.3293   -6.8870    0.9693 C   0  0  0  0  0  0  0  0  0  0  0  0
    4.0709   -5.8968    2.1374 C   0  0  1  0  0  0  0  0  0  0  0  0
    4.2365   -4.6383    1.5038 O   0  0  0  0  0  0  0  0  0  0  0  0
    2.6506   -5.8585    2.8225 C   0  0  2  0  0  0  0  0  0  0  0  0
    3.0267   -4.8628    4.0097 C   0  0  2  0  0  0  0  0  0  0  0  0
    4.5203   -5.0252    4.3149 C   0  0  0  0  0  0  0  0  0  0  0  0
    5.0690   -6.0641    3.3389 C   0  0  2  0  0  0  0  0  0  0  0  0
    6.5034   -5.6237    2.9050 C   0  0  0  0  0  0  0  0  0  0  0  0
    5.0315   -7.5573    3.9350 C   0  0  2  0  0  0  0  0  0  0  0  0
    6.3779   -8.0204    4.0117 O   0  0  0  0  0  0  0  0  0  0  0  0
    4.5979   -7.8234    5.4803 C   0  0  1  0  0  0  0  0  0  0  0  0
    5.3775   -7.1732    6.4541 O   0  0  0  0  0  0  0  0  0  0  0  0
    3.1042   -7.6911    5.8701 C   0  0  2  0  0  0  0  0  0  0  0  0
    2.1949   -6.7056    6.6773 C   0  0  1  0  0  0  0  0  0  0  0  0
    2.7317   -6.3299    8.0680 C   0  0  0  0  0  0  0  0  0  0  0  0
    1.4745   -5.4479    6.0611 C   0  0  1  0  0  0  0  0  0  0  0  0
    0.4708   -4.6836    6.9296 C   0  0  0  0  0  0  0  0  0  0  0  0
   -0.0632   -3.5939    5.9851 C   0  0  1  0  0  0  0  0  0  0  0  0
   -0.3853   -2.4102    6.6968 O   0  0  0  0  0  0  0  0  0  0  0  0
    1.0155   -3.4144    4.8750 C   0  0  1  0  0  0  0  0  0  0  0  0
    1.3800   -1.9411    4.5473 C   0  0  0  0  0  0  0  0  0  0  0  0
    2.1839   -4.3814    5.2377 C   0  0  2  0  0  0  0  0  0  0  0  0
    3.0024   -3.6435    6.1211 O   0  0  0  0  0  0  0  0  0  0  0  0
    1.1286   -7.8451    6.5135 C   0  0  1  0  0  0  0  0  0  0  0  0
    0.2844   -7.9973    7.6283 O   0  0  0  0  0  0  0  0  0  0  0  0
    2.2397   -8.9064    6.3285 C   0  0  1  0  0  0  0  0  0  0  0  0
    2.8019   -9.7457    7.4717 C   0  0  0  0  0  0  0  0  0  0  0  0
    1.2616  -11.8477    3.0347 H   0  0  0  0  0  0  0  0  0  0  0  0
    0.0543  -10.5840    3.2827 H   0  0  0  0  0  0  0  0  0  0  0  0
    0.2133  -11.9050    4.4619 H   0  0  0  0  0  0  0  0  0  0  0  0
    0.5451  -10.2260    6.1402 H   0  0  0  0  0  0  0  0  0  0  0  0
   -1.1221   -9.3246    5.1871 H   0  0  0  0  0  0  0  0  0  0  0  0
    0.1756   -8.2251    2.9082 H   0  0  0  0  0  0  0  0  0  0  0  0
    0.0514   -6.6742    3.5763 H   0  0  0  0  0  0  0  0  0  0  0  0
    2.3255   -9.3446    2.7912 H   0  0  0  0  0  0  0  0  0  0  0  0
    4.2056  -10.4356    2.5987 H   0  0  0  0  0  0  0  0  0  0  0  0
    5.9278   -8.2895    1.4211 H   0  0  0  0  0  0  0  0  0  0  0  0
    4.6046  -10.0799    0.7473 H   0  0  0  0  0  0  0  0  0  0  0  0
    5.0719   -6.4939    0.2677 H   0  0  0  0  0  0  0  0  0  0  0  0
    3.4167   -6.9858    0.3956 H   0  0  0  0  0  0  0  0  0  0  0  0
    3.6896   -4.6222    0.7250 H   0  0  0  0  0  0  0  0  0  0  0  0
    1.9287   -5.3614    2.1689 H   0  0  0  0  0  0  0  0  0  0  0  0
    3.0473   -3.9185    3.4726 H   0  0  0  0  0  0  0  0  0  0  0  0
    5.0129   -4.0676    4.1409 H   0  0  0  0  0  0  0  0  0  0  0  0
    4.7462   -5.2448    5.3438 H   0  0  0  0  0  0  0  0  0  0  0  0
    7.1888   -5.6187    3.7569 H   0  0  0  0  0  0  0  0  0  0  0  0
    6.5240   -4.6192    2.4970 H   0  0  0  0  0  0  0  0  0  0  0  0
    6.9336   -6.2697    2.1353 H   0  0  0  0  0  0  0  0  0  0  0  0
    6.7477   -8.0149    3.1322 H   0  0  0  0  0  0  0  0  0  0  0  0
    4.8515   -8.8720    5.6472 H   0  0  0  0  0  0  0  0  0  0  0  0
    5.1745   -7.5676    7.2996 H   0  0  0  0  0  0  0  0  0  0  0  0
    2.7766   -7.1627    5.0652 H   0  0  0  0  0  0  0  0  0  0  0  0
    1.9478   -6.0447    8.7631 H   0  0  0  0  0  0  0  0  0  0  0  0
    3.4423   -5.5007    8.0076 H   0  0  0  0  0  0  0  0  0  0  0  0
    3.2764   -7.1450    8.5339 H   0  0  0  0  0  0  0  0  0  0  0  0
    0.7948   -5.8329    5.3261 H   0  0  0  0  0  0  0  0  0  0  0  0
   -0.3385   -5.3187    7.2855 H   0  0  0  0  0  0  0  0  0  0  0  0
    0.9550   -4.2195    7.7973 H   0  0  0  0  0  0  0  0  0  0  0  0
   -0.9699   -3.9425    5.5279 H   0  0  0  0  0  0  0  0  0  0  0  0
   -0.4645   -1.7121    6.0522 H   0  0  0  0  0  0  0  0  0  0  0  0
    0.5629   -3.8093    3.9677 H   0  0  0  0  0  0  0  0  0  0  0  0
    1.8087   -1.4238    5.4004 H   0  0  0  0  0  0  0  0  0  0  0  0
    0.4935   -1.3835    4.2300 H   0  0  0  0  0  0  0  0  0  0  0  0
    2.0933   -1.8835    3.7295 H   0  0  0  0  0  0  0  0  0  0  0  0
    3.6944   -4.2226    6.4165 H   0  0  0  0  0  0  0  0  0  0  0  0
    0.4545   -8.8726    7.9741 H   0  0  0  0  0  0  0  0  0  0  0  0
    3.4801   -9.2032    8.1357 H   0  0  0  0  0  0  0  0  0  0  0  0
    3.3951  -10.5787    7.0647 H   0  0  0  0  0  0  0  0  0  0  0  0
    2.0298  -10.2173    8.0929 H   0  0  0  0  0  0  0  0  0  0  0  0
  1  2  1  0
  1 40  1  0
  1 41  1  0
  1 42  1  0
  2  3  1  0
  3 38  1  0
  3  4  1  0
  3 43  1  1
  4 36  1  0
  4  5  1  1
  4  6  1  0
  5 44  1  0
  6  7  1  0
  6 45  1  0
  6 46  1  0
  7 16  1  0
  7  8  2  0
  8  9  1  0
  8 47  1  0
  9 21  1  0
  9 10  1  1
  9 11  1  0
 10 48  1  0
 11 12  1  0
 11 13  1  0
 11 49  1  1
 12 50  1  0
 13 14  1  0
 13 51  1  0
 13 52  1  0
 14 19  1  0
 14 15  1  6
 14 16  1  0
 15 53  1  0
 16 17  1  0
 16 54  1  6
 17 34  1  0
 17 18  1  0
 17 55  1  6
 18 19  1  0
 18 56  1  0
 18 57  1  0
 19 20  1  6
 19 21  1  0
 20 58  1  0
 20 59  1  0
 20 60  1  0
 21 22  1  1
 21 23  1  0
 22 61  1  0
 23 24  1  0
 23 25  1  0
 23 62  1  1
 24 63  1  0
 25 38  1  0
 25 26  1  0
 25 64  1  6
 26 27  1  1
 26 28  1  0
 26 36  1  0
 27 65  1  0
 27 66  1  0
 27 67  1  0
 28 34  1  0
 28 29  1  0
 28 68  1  6
 29 30  1  0
 29 69  1  0
 29 70  1  0
 30 31  1  0
 30 32  1  0
 30 71  1  6
 31 72  1  0
 32 33  1  0
 32 34  1  0
 32 73  1  6
 33 74  1  0
 33 75  1  0
 33 76  1  0
 34 35  1  1
 35 77  1  0
 36 37  1  1
 36 38  1  0
 37 78  1  0
 38 39  1  1
 39 79  1  0
 39 80  1  0
 39 81  1  0
M  END
>  <i_m_ct_stereo_status>  (287) 
1

>  <s_m_source_file>  (287) 
/var/tmp/pbs.5076255.sched01/tmp2672eyar/80wl2hclo4.sdf

>  <i_m_source_file_index>  (287) 
31

>  <i_lp_mmshare_version>  (287) 
48012

>  <i_f3d_flags>  (287) 
0

>  <s_epik_input>  (287) 
W0NIM11PW0NASF0xW0NAQF0yKFtDSDNdKVtDSF0oW0NAXTMoW0NIM10pW0NAQF0yKFtPSF0pW0NAXTE0W09IXSlbQ0BIXShbT0hdKVtDQEBdNShbT0hdKVtDQEBdNihbT0hdKVtDSF09QyhbQ0gyXTQpW0NAQEhdN1tDQF0oW09IXSkoW0NIMl1bQ0BASF02W09IXSlbQ0BAXTUoW0NIM10pW0NIMl1bQ0BASF03W0NAXTgoW09IXSlbQ0BASF0zW0NIMl1bQ0BASF0oW09IXSlbQ0BIXThbQ0gzXQ==

>  <s_epik_cmdline>  (287) 
J2VwaWtfcHl0aG9uJywgJy1waHQnLCAnMi4wJywgJy1waCcsICc3LjAnLCAnLXRuJywgJzgnLCAnLW1hJywgJzIwMCcsICctaW1hZScsICc8aW5maWxlLm1hZT4nLCAnLW9tYWUnLCAnPG91dGZpbGUubWFlPic=

>  <r_lp_tautomer_probability>  (287) 
1

>  <r_epik_Ionization_Penalty>  (287) 
3.47524e-06

>  <r_epik_Ionization_Penalty_Charging>  (287) 
0

>  <r_epik_Ionization_Penalty_Neutral>  (287) 
3.47524e-06

>  <r_epik_State_Penalty>  (287) 
-0

>  <r_epik_Charging_Adjusted_Penalty>  (287) 
0

>  <i_epik_Tot_Q>  (287) 
0

>  <i_epik_Tot_abs_Q>  (287) 
0

>  <s_lp_Force_Field>  (287) 
OPLS3e

>  <r_lp_Energy>  (287) 
210.626

>  <b_lp_Chiralities_Consistent>  (287) 
1

>  <s_lp_Variant>  (287) 
81:0-1

>  <s_i_glide_gridfile>  (287) 
pfpi4k_grid

>  <i_i_glide_lignum>  (287) 
31

>  <i_i_glide_rotatable_bonds>  (287) 
10

>  <r_i_docking_score>  (287) 
-2.66537

>  <r_i_glide_ligand_efficiency>  (287) 
-0.0683428

>  <r_i_glide_ligand_efficiency_sa>  (287) 
-0.231765

>  <r_i_glide_ligand_efficiency_ln>  (287) 
-0.571531

>  <r_i_glide_gscore>  (287) 
-2.66537

>  <r_i_glide_lipo>  (287) 
-0.272163

>  <r_i_glide_hbond>  (287) 
0

>  <r_i_glide_metal>  (287) 
-0

>  <r_i_glide_rewards>  (287) 
0

>  <r_i_glide_evdw>  (287) 
-19.5158

>  <r_i_glide_ecoul>  (287) 
-9.44942

>  <r_i_glide_erotb>  (287) 
0

>  <r_i_glide_esite>  (287) 
0

>  <r_i_glide_emodel>  (287) 
-33.5005

>  <r_i_glide_energy>  (287) 
-28.9653

>  <r_i_glide_einternal>  (287) 
2.58193

>  <r_i_glide_intrahb_reward>  (287) 
-0

>  <i_i_glide_confnum>  (287) 
2

>  <i_i_glide_posenum>  (287) 
11

>  <r_i_glide_eff_state_penalty>  (287) 
0

>  <ligand_id>  (287) 
81

>  <original_smiles>  (287) 
COC1C2(O)CC3=CC4(O)C(O)CC5(O)C3C3CC5(C)C4(O)C(O)C4C(C)(C5CC(O)C(C)C35O)C2(O)C14C

>  <smiles>  (287) 
[H]OC1([H])C([H])([H])C2(O[H])C3([H])C4=C([H])C1(O[H])C1(O[H])C([H])(O[H])C5([H])C6(C([H])([H])[H])C([H])(OC([H])([H])[H])C(O[H])(C4([H])[H])C6(O[H])C5(C([H])([H])[H])C4([H])C([H])([H])C([H])(O[H])C([H])(C([H])([H])[H])C4(O[H])C3([H])C([H])([H])C21C([H])([H])[H]

$$$$
81:1:0
     RDKit          3D

 81 88  0  0  1  0  0  0  0  0999 V2000
   -0.9201   -5.1536    8.0097 C   0  0  0  0  0  0  0  0  0  0  0  0
    0.2605   -5.8562    7.6503 O   0  0  0  0  0  0  0  0  0  0  0  0
    1.3664   -5.0131    7.4224 C   0  0  2  0  0  0  0  0  0  0  0  0
    1.4647   -4.1008    6.1926 C   0  0  2  0  0  0  0  0  0  0  0  0
    1.1389   -2.7632    6.4864 O   0  0  0  0  0  0  0  0  0  0  0  0
    0.5898   -4.3698    4.9021 C   0  0  0  0  0  0  0  0  0  0  0  0
    0.7405   -5.7283    4.2125 C   0  0  0  0  0  0  0  0  0  0  0  0
    0.2082   -6.7721    4.8798 C   0  0  0  0  0  0  0  0  0  0  0  0
    0.4353   -8.2275    4.6188 C   0  0  1  0  0  0  0  0  0  0  0  0
    0.2399   -8.9386    5.8365 O   0  0  0  0  0  0  0  0  0  0  0  0
   -0.6164   -8.7186    3.6023 C   0  0  1  0  0  0  0  0  0  0  0  0
   -1.9438   -8.6565    4.1031 O   0  0  0  0  0  0  0  0  0  0  0  0
   -0.5970   -7.8285    2.3691 C   0  0  0  0  0  0  0  0  0  0  0  0
    0.8061   -7.2302    2.0969 C   0  0  1  0  0  0  0  0  0  0  0  0
    0.7225   -7.0315    0.6986 O   0  0  0  0  0  0  0  0  0  0  0  0
    1.1891   -5.8473    2.7165 C   0  0  2  0  0  0  0  0  0  0  0  0
    2.7034   -5.8099    2.2462 C   0  0  2  0  0  0  0  0  0  0  0  0
    3.2173   -7.2485    2.2011 C   0  0  0  0  0  0  0  0  0  0  0  0
    2.0119   -8.1322    2.5477 C   0  0  2  0  0  0  0  0  0  0  0  0
    2.0892   -9.4239    1.6723 C   0  0  0  0  0  0  0  0  0  0  0  0
    1.9069   -8.4283    4.1251 C   0  0  2  0  0  0  0  0  0  0  0  0
    2.1052   -9.8325    4.2776 O   0  0  0  0  0  0  0  0  0  0  0  0
    2.9941   -7.8537    5.1746 C   0  0  1  0  0  0  0  0  0  0  0  0
    4.2576   -8.4515    4.9050 O   0  0  0  0  0  0  0  0  0  0  0  0
    3.2159   -6.3640    5.7378 C   0  0  0  0  0  0  0  0  0  0  0  0
    3.9036   -5.0032    5.2540 C   0  0  1  0  0  0  0  0  0  0  0  0
    5.4474   -4.9984    5.4901 C   0  0  0  0  0  0  0  0  0  0  0  0
    3.6603   -4.1436    3.9619 C   0  0  1  0  0  0  0  0  0  0  0  0
    4.3624   -2.7746    3.8620 C   0  0  0  0  0  0  0  0  0  0  0  0
    3.9042   -2.2036    2.5173 C   0  0  1  0  0  0  0  0  0  0  0  0
    4.9142   -1.3774    1.9772 O   0  0  0  0  0  0  0  0  0  0  0  0
    3.5325   -3.4330    1.6549 C   0  0  1  0  0  0  0  0  0  0  0  0
    4.1633   -3.4708    0.2416 C   0  0  0  0  0  0  0  0  0  0  0  0
    3.7450   -4.7018    2.5549 C   0  0  2  0  0  0  0  0  0  0  0  0
    5.0666   -5.1628    2.3168 O   0  0  0  0  0  0  0  0  0  0  0  0
    3.0174   -4.3674    6.3686 C   0  0  1  0  0  0  0  0  0  0  0  0
    3.6674   -3.3835    7.1559 O   0  0  0  0  0  0  0  0  0  0  0  0
    2.7136   -5.7072    7.0875 C   0  0  1  0  0  0  0  0  0  0  0  0
    3.4826   -6.1112    8.3728 C   0  0  0  0  0  0  0  0  0  0  0  0
   -1.7669   -5.8395    7.9881 H   0  0  0  0  0  0  0  0  0  0  0  0
   -1.1503   -4.3387    7.3236 H   0  0  0  0  0  0  0  0  0  0  0  0
   -0.8368   -4.7448    9.0160 H   0  0  0  0  0  0  0  0  0  0  0  0
    1.5042   -4.4192    8.3307 H   0  0  0  0  0  0  0  0  0  0  0  0
    1.6954   -2.5301    7.2209 H   0  0  0  0  0  0  0  0  0  0  0  0
   -0.4589   -4.3244    5.1981 H   0  0  0  0  0  0  0  0  0  0  0  0
    0.6491   -3.5490    4.1785 H   0  0  0  0  0  0  0  0  0  0  0  0
   -0.3745   -6.6100    5.7568 H   0  0  0  0  0  0  0  0  0  0  0  0
   -0.2818   -9.7118    5.6472 H   0  0  0  0  0  0  0  0  0  0  0  0
   -0.4209   -9.7615    3.3339 H   0  0  0  0  0  0  0  0  0  0  0  0
   -2.1352   -9.5335    4.4750 H   0  0  0  0  0  0  0  0  0  0  0  0
   -0.9515   -8.4497    1.5445 H   0  0  0  0  0  0  0  0  0  0  0  0
   -1.3236   -7.0161    2.4480 H   0  0  0  0  0  0  0  0  0  0  0  0
    0.5588   -7.8847    0.3173 H   0  0  0  0  0  0  0  0  0  0  0  0
    0.6389   -5.0580    2.2084 H   0  0  0  0  0  0  0  0  0  0  0  0
    2.5897   -5.6246    1.1767 H   0  0  0  0  0  0  0  0  0  0  0  0
    3.5501   -7.4642    1.1845 H   0  0  0  0  0  0  0  0  0  0  0  0
    4.0917   -7.4195    2.8086 H   0  0  0  0  0  0  0  0  0  0  0  0
    2.9753  -10.0220    1.9017 H   0  0  0  0  0  0  0  0  0  0  0  0
    2.1656   -9.2006    0.6094 H   0  0  0  0  0  0  0  0  0  0  0  0
    1.2149  -10.0686    1.7974 H   0  0  0  0  0  0  0  0  0  0  0  0
    1.8361  -10.0585    5.1625 H   0  0  0  0  0  0  0  0  0  0  0  0
    2.7360   -8.3968    6.0878 H   0  0  0  0  0  0  0  0  0  0  0  0
    4.0836   -9.3703    4.7352 H   0  0  0  0  0  0  0  0  0  0  0  0
    4.1084   -6.7121    6.2426 H   0  0  0  0  0  0  0  0  0  0  0  0
    5.8726   -4.0019    5.5722 H   0  0  0  0  0  0  0  0  0  0  0  0
    5.9743   -5.5295    4.6996 H   0  0  0  0  0  0  0  0  0  0  0  0
    5.7481   -5.4690    6.4241 H   0  0  0  0  0  0  0  0  0  0  0  0
    2.6569   -3.7981    3.9817 H   0  0  0  0  0  0  0  0  0  0  0  0
    4.1016   -2.1103    4.6870 H   0  0  0  0  0  0  0  0  0  0  0  0
    5.4481   -2.8768    3.8358 H   0  0  0  0  0  0  0  0  0  0  0  0
    3.0078   -1.5947    2.6618 H   0  0  0  0  0  0  0  0  0  0  0  0
    4.9856   -0.6090    2.5272 H   0  0  0  0  0  0  0  0  0  0  0  0
    2.4601   -3.3343    1.4878 H   0  0  0  0  0  0  0  0  0  0  0  0
    5.2532   -3.4982    0.2691 H   0  0  0  0  0  0  0  0  0  0  0  0
    3.8797   -2.5856   -0.3277 H   0  0  0  0  0  0  0  0  0  0  0  0
    3.8228   -4.3350   -0.3273 H   0  0  0  0  0  0  0  0  0  0  0  0
    5.1118   -5.4677    1.4202 H   0  0  0  0  0  0  0  0  0  0  0  0
    3.8484   -2.6686    6.5678 H   0  0  0  0  0  0  0  0  0  0  0  0
    4.5691   -6.0322    8.2720 H   0  0  0  0  0  0  0  0  0  0  0  0
    3.2462   -7.1418    8.6474 H   0  0  0  0  0  0  0  0  0  0  0  0
    3.2157   -5.4847    9.2288 H   0  0  0  0  0  0  0  0  0  0  0  0
  1  2  1  0
  1 40  1  0
  1 41  1  0
  1 42  1  0
  2  3  1  0
  3 38  1  0
  3  4  1  0
  3 43  1  1
  4 36  1  0
  4  5  1  1
  4  6  1  0
  5 44  1  0
  6  7  1  0
  6 45  1  0
  6 46  1  0
  7 16  1  0
  7  8  2  0
  8  9  1  0
  8 47  1  0
  9 21  1  0
  9 10  1  1
  9 11  1  0
 10 48  1  0
 11 12  1  0
 11 13  1  0
 11 49  1  6
 12 50  1  0
 13 14  1  0
 13 51  1  0
 13 52  1  0
 14 19  1  0
 14 15  1  6
 14 16  1  0
 15 53  1  0
 16 17  1  0
 16 54  1  6
 17 34  1  0
 17 18  1  0
 17 55  1  6
 18 19  1  0
 18 56  1  0
 18 57  1  0
 19 20  1  6
 19 21  1  0
 20 58  1  0
 20 59  1  0
 20 60  1  0
 21 22  1  6
 21 23  1  0
 22 61  1  0
 23 24  1  0
 23 25  1  0
 23 62  1  1
 24 63  1  0
 25 38  1  0
 25 26  1  0
 25 64  1  0
 26 27  1  1
 26 28  1  0
 26 36  1  0
 27 65  1  0
 27 66  1  0
 27 67  1  0
 28 34  1  0
 28 29  1  0
 28 68  1  1
 29 30  1  0
 29 69  1  0
 29 70  1  0
 30 31  1  0
 30 32  1  0
 30 71  1  1
 31 72  1  0
 32 33  1  0
 32 34  1  0
 32 73  1  6
 33 74  1  0
 33 75  1  0
 33 76  1  0
 34 35  1  6
 35 77  1  0
 36 37  1  1
 36 38  1  0
 37 78  1  0
 38 39  1  1
 39 79  1  0
 39 80  1  0
 39 81  1  0
M  END
>  <i_m_ct_stereo_status>  (288) 
1

>  <s_m_source_file>  (288) 
/var/tmp/pbs.5076255.sched01/tmp2672eyar/80wl2hclo4.sdf

>  <i_m_source_file_index>  (288) 
32

>  <i_lp_mmshare_version>  (288) 
48012

>  <i_f3d_flags>  (288) 
0

>  <s_epik_input>  (288) 
W0NIM11PW0NASF0xW0NAQF0yKFtDSDNdKVtDSF0oW0NAXTMoW0NIM10pW0NAQF0yKFtPSF0pW0NAXTE0W09IXSlbQ0BIXShbT0hdKVtDQEBdNShbT0hdKVtDQEBdNihbT0hdKVtDSF09QyhbQ0gyXTQpW0NAQEhdN1tDQF0oW09IXSkoW0NIMl1bQ0BASF02W09IXSlbQ0BAXTUoW0NIM10pW0NIMl1bQ0BASF03W0NAXTgoW09IXSlbQ0BASF0zW0NIMl1bQ0BASF0oW09IXSlbQ0BIXThbQ0gzXQ==

>  <s_epik_cmdline>  (288) 
J2VwaWtfcHl0aG9uJywgJy1waHQnLCAnMi4wJywgJy1waCcsICc3LjAnLCAnLXRuJywgJzgnLCAnLW1hJywgJzIwMCcsICctaW1hZScsICc8aW5maWxlLm1hZT4nLCAnLW9tYWUnLCAnPG91dGZpbGUubWFlPic=

>  <r_lp_tautomer_probability>  (288) 
1

>  <r_epik_Ionization_Penalty>  (288) 
3.47524e-06

>  <r_epik_Ionization_Penalty_Charging>  (288) 
0

>  <r_epik_Ionization_Penalty_Neutral>  (288) 
3.47524e-06

>  <r_epik_State_Penalty>  (288) 
-0

>  <r_epik_Charging_Adjusted_Penalty>  (288) 
0

>  <i_epik_Tot_Q>  (288) 
0

>  <i_epik_Tot_abs_Q>  (288) 
0

>  <s_lp_Force_Field>  (288) 
OPLS3e

>  <r_lp_Energy>  (288) 
216.35

>  <b_lp_Chiralities_Consistent>  (288) 
1

>  <s_lp_Variant>  (288) 
81:0-2

>  <s_i_glide_gridfile>  (288) 
pfpi4k_grid

>  <i_i_glide_lignum>  (288) 
32

>  <i_i_glide_rotatable_bonds>  (288) 
10

>  <r_i_docking_score>  (288) 
-3.26703

>  <r_i_glide_ligand_efficiency>  (288) 
-0.08377

>  <r_i_glide_ligand_efficiency_sa>  (288) 
-0.284082

>  <r_i_glide_ligand_efficiency_ln>  (288) 
-0.700544

>  <r_i_glide_gscore>  (288) 
-3.26703

>  <r_i_glide_lipo>  (288) 
-0.241765

>  <r_i_glide_hbond>  (288) 
-0.270312

>  <r_i_glide_metal>  (288) 
-0

>  <r_i_glide_rewards>  (288) 
0

>  <r_i_glide_evdw>  (288) 
-21.7051

>  <r_i_glide_ecoul>  (288) 
-11.1313

>  <r_i_glide_erotb>  (288) 
0

>  <r_i_glide_esite>  (288) 
0

>  <r_i_glide_emodel>  (288) 
-39.6431

>  <r_i_glide_energy>  (288) 
-32.8364

>  <r_i_glide_einternal>  (288) 
2.48576

>  <r_i_glide_intrahb_reward>  (288) 
-0

>  <i_i_glide_confnum>  (288) 
2

>  <i_i_glide_posenum>  (288) 
22

>  <r_i_glide_eff_state_penalty>  (288) 
0

>  <ligand_id>  (288) 
81

>  <original_smiles>  (288) 
COC1C2(O)CC3=CC4(O)C(O)CC5(O)C3C3CC5(C)C4(O)C(O)C4C(C)(C5CC(O)C(C)C35O)C2(O)C14C

>  <smiles>  (288) 
[H]OC1([H])C([H])([H])C2(O[H])C3([H])C4=C([H])C1(O[H])C1(O[H])C([H])(O[H])C5([H])C6(C([H])([H])[H])C([H])(OC([H])([H])[H])C(O[H])(C4([H])[H])C6(O[H])C5(C([H])([H])[H])C4([H])C([H])([H])C([H])(O[H])C([H])(C([H])([H])[H])C4(O[H])C3([H])C([H])([H])C21C([H])([H])[H]

$$$$
81:1:1
     RDKit          3D

 81 88  0  0  1  0  0  0  0  0999 V2000
    1.3832  -11.3396    3.9901 C   0  0  0  0  0  0  0  0  0  0  0  0
    1.5270  -10.2806    3.0641 O   0  0  0  0  0  0  0  0  0  0  0  0
    0.9796   -9.0424    3.4550 C   0  0  2  0  0  0  0  0  0  0  0  0
    1.2069   -7.8153    2.5593 C   0  0  2  0  0  0  0  0  0  0  0  0
    0.1196   -7.5591    1.6905 O   0  0  0  0  0  0  0  0  0  0  0  0
    2.4171   -7.7657    1.5415 C   0  0  0  0  0  0  0  0  0  0  0  0
    3.8371   -7.9188    2.0850 C   0  0  0  0  0  0  0  0  0  0  0  0
    4.1389   -9.1652    2.4902 C   0  0  0  0  0  0  0  0  0  0  0  0
    5.3042   -9.5857    3.3225 C   0  0  1  0  0  0  0  0  0  0  0  0
    4.9404  -10.7561    4.0389 O   0  0  0  0  0  0  0  0  0  0  0  0
    6.4676   -9.9308    2.3788 C   0  0  1  0  0  0  0  0  0  0  0  0
    6.2335  -11.1027    1.5991 O   0  0  0  0  0  0  0  0  0  0  0  0
    6.7426   -8.7377    1.4551 C   0  0  0  0  0  0  0  0  0  0  0  0
    6.3821   -7.3712    2.1016 C   0  0  1  0  0  0  0  0  0  0  0  0
    7.2863   -6.4866    1.4483 O   0  0  0  0  0  0  0  0  0  0  0  0
    4.9333   -6.8104    1.8952 C   0  0  2  0  0  0  0  0  0  0  0  0
    5.0632   -5.5550    2.8491 C   0  0  2  0  0  0  0  0  0  0  0  0
    6.0286   -5.9124    3.9827 C   0  0  0  0  0  0  0  0  0  0  0  0
    6.5383   -7.3187    3.6639 C   0  0  2  0  0  0  0  0  0  0  0  0
    8.0524   -7.3948    4.0545 C   0  0  0  0  0  0  0  0  0  0  0  0
    5.6263   -8.4490    4.3510 C   0  0  2  0  0  0  0  0  0  0  0  0
    6.4583   -9.0998    5.3129 O   0  0  0  0  0  0  0  0  0  0  0  0
    4.3573   -8.0828    5.2897 C   0  0  1  0  0  0  0  0  0  0  0  0
    4.8130   -7.4007    6.4550 O   0  0  0  0  0  0  0  0  0  0  0  0
    2.8972   -7.5332    4.8968 C   0  0  0  0  0  0  0  0  0  0  0  0
    2.2312   -6.1364    4.5097 C   0  0  1  0  0  0  0  0  0  0  0  0
    1.8752   -5.2841    5.7678 C   0  0  0  0  0  0  0  0  0  0  0  0
    2.5848   -5.1191    3.3705 C   0  0  1  0  0  0  0  0  0  0  0  0
    1.6307   -3.9268    3.1450 C   0  0  0  0  0  0  0  0  0  0  0  0
    2.2433   -3.1528    1.9729 C   0  0  1  0  0  0  0  0  0  0  0  0
    1.9230   -1.7791    2.0633 O   0  0  0  0  0  0  0  0  0  0  0  0
    3.7475   -3.4971    2.0022 C   0  0  1  0  0  0  0  0  0  0  0  0
    4.7075   -2.2836    1.9549 C   0  0  0  0  0  0  0  0  0  0  0  0
    3.9610   -4.5171    3.1748 C   0  0  2  0  0  0  0  0  0  0  0  0
    4.3121   -3.7671    4.3272 O   0  0  0  0  0  0  0  0  0  0  0  0
    1.0871   -7.0325    3.9410 C   0  0  1  0  0  0  0  0  0  0  0  0
   -0.2144   -6.5579    4.2274 O   0  0  0  0  0  0  0  0  0  0  0  0
    1.5381   -8.3159    4.7087 C   0  0  1  0  0  0  0  0  0  0  0  0
    0.8128   -8.7722    6.0026 C   0  0  0  0  0  0  0  0  0  0  0  0
    1.7609  -12.2494    3.5255 H   0  0  0  0  0  0  0  0  0  0  0  0
    0.3385  -11.4964    4.2544 H   0  0  0  0  0  0  0  0  0  0  0  0
    1.9622  -11.1751    4.8995 H   0  0  0  0  0  0  0  0  0  0  0  0
   -0.0986   -9.2015    3.5689 H   0  0  0  0  0  0  0  0  0  0  0  0
   -0.0044   -8.3565    1.1894 H   0  0  0  0  0  0  0  0  0  0  0  0
    2.2844   -8.6187    0.8803 H   0  0  0  0  0  0  0  0  0  0  0  0
    2.3517   -6.9055    0.8709 H   0  0  0  0  0  0  0  0  0  0  0  0
    3.4741   -9.9693    2.2900 H   0  0  0  0  0  0  0  0  0  0  0  0
    4.6958  -11.4103    3.3999 H   0  0  0  0  0  0  0  0  0  0  0  0
    7.3532  -10.1345    2.9813 H   0  0  0  0  0  0  0  0  0  0  0  0
    5.3566  -11.1228    1.2055 H   0  0  0  0  0  0  0  0  0  0  0  0
    7.7997   -8.7397    1.1740 H   0  0  0  0  0  0  0  0  0  0  0  0
    6.1810   -8.8514    0.5277 H   0  0  0  0  0  0  0  0  0  0  0  0
    8.1558   -6.8475    1.5440 H   0  0  0  0  0  0  0  0  0  0  0  0
    4.8309   -6.4741    0.8594 H   0  0  0  0  0  0  0  0  0  0  0  0
    5.7068   -4.9037    2.2582 H   0  0  0  0  0  0  0  0  0  0  0  0
    6.8611   -5.2100    3.9523 H   0  0  0  0  0  0  0  0  0  0  0  0
    5.6240   -5.7933    4.9746 H   0  0  0  0  0  0  0  0  0  0  0  0
    8.1992   -7.2456    5.1255 H   0  0  0  0  0  0  0  0  0  0  0  0
    8.6487   -6.6212    3.5682 H   0  0  0  0  0  0  0  0  0  0  0  0
    8.5106   -8.3496    3.7867 H   0  0  0  0  0  0  0  0  0  0  0  0
    6.0137   -9.9122    5.5356 H   0  0  0  0  0  0  0  0  0  0  0  0
    4.1127   -9.0536    5.7350 H   0  0  0  0  0  0  0  0  0  0  0  0
    5.5607   -7.8919    6.7696 H   0  0  0  0  0  0  0  0  0  0  0  0
    2.6821   -7.4331    5.9531 H   0  0  0  0  0  0  0  0  0  0  0  0
    1.0756   -4.5710    5.5876 H   0  0  0  0  0  0  0  0  0  0  0  0
    2.7414   -4.7417    6.1442 H   0  0  0  0  0  0  0  0  0  0  0  0
    1.4970   -5.8702    6.6050 H   0  0  0  0  0  0  0  0  0  0  0  0
    2.4351   -5.6081    2.4392 H   0  0  0  0  0  0  0  0  0  0  0  0
    0.6136   -4.2542    2.9276 H   0  0  0  0  0  0  0  0  0  0  0  0
    1.5901   -3.2603    4.0090 H   0  0  0  0  0  0  0  0  0  0  0  0
    1.8279   -3.5305    1.0379 H   0  0  0  0  0  0  0  0  0  0  0  0
    1.8456   -1.4275    1.1833 H   0  0  0  0  0  0  0  0  0  0  0  0
    3.9287   -4.0437    1.0769 H   0  0  0  0  0  0  0  0  0  0  0  0
    4.5766   -1.6178    2.8106 H   0  0  0  0  0  0  0  0  0  0  0  0
    4.5313   -1.6945    1.0558 H   0  0  0  0  0  0  0  0  0  0  0  0
    5.7517   -2.5991    1.9357 H   0  0  0  0  0  0  0  0  0  0  0  0
    4.3904   -4.3785    5.0446 H   0  0  0  0  0  0  0  0  0  0  0  0
   -0.5871   -7.1870    4.8314 H   0  0  0  0  0  0  0  0  0  0  0  0
    0.7013   -7.9782    6.7409 H   0  0  0  0  0  0  0  0  0  0  0  0
    1.3573   -9.5873    6.4820 H   0  0  0  0  0  0  0  0  0  0  0  0
   -0.1904   -9.1520    5.7962 H   0  0  0  0  0  0  0  0  0  0  0  0
  1  2  1  0
  1 40  1  0
  1 41  1  0
  1 42  1  0
  2  3  1  0
  3 38  1  0
  3  4  1  0
  3 43  1  1
  4 36  1  0
  4  5  1  6
  4  6  1  0
  5 44  1  0
  6  7  1  0
  6 45  1  0
  6 46  1  0
  7 16  1  0
  7  8  2  0
  8  9  1  0
  8 47  1  0
  9 21  1  0
  9 10  1  1
  9 11  1  0
 10 48  1  0
 11 12  1  0
 11 13  1  0
 11 49  1  1
 12 50  1  0
 13 14  1  0
 13 51  1  0
 13 52  1  0
 14 19  1  0
 14 15  1  6
 14 16  1  0
 15 53  1  0
 16 17  1  0
 16 54  1  6
 17 34  1  0
 17 18  1  0
 17 55  1  6
 18 19  1  0
 18 56  1  0
 18 57  1  0
 19 20  1  6
 19 21  1  0
 20 58  1  0
 20 59  1  0
 20 60  1  0
 21 22  1  1
 21 23  1  0
 22 61  1  0
 23 24  1  0
 23 25  1  0
 23 62  1  1
 24 63  1  0
 25 38  1  0
 25 26  1  0
 25 64  1  0
 26 27  1  1
 26 28  1  0
 26 36  1  0
 27 65  1  0
 27 66  1  0
 27 67  1  0
 28 34  1  0
 28 29  1  0
 28 68  1  6
 29 30  1  0
 29 69  1  0
 29 70  1  0
 30 31  1  0
 30 32  1  0
 30 71  1  6
 31 72  1  0
 32 33  1  0
 32 34  1  0
 32 73  1  6
 33 74  1  0
 33 75  1  0
 33 76  1  0
 34 35  1  1
 35 77  1  0
 36 37  1  1
 36 38  1  0
 37 78  1  0
 38 39  1  1
 39 79  1  0
 39 80  1  0
 39 81  1  0
M  END
>  <i_m_ct_stereo_status>  (289) 
1

>  <s_m_source_file>  (289) 
/var/tmp/pbs.5076255.sched01/tmp2672eyar/80wl2hclo4.sdf

>  <i_m_source_file_index>  (289) 
32

>  <i_lp_mmshare_version>  (289) 
48012

>  <i_f3d_flags>  (289) 
0

>  <s_epik_input>  (289) 
W0NIM11PW0NASF0xW0NAQF0yKFtDSDNdKVtDSF0oW0NAXTMoW0NIM10pW0NAQF0yKFtPSF0pW0NAXTE0W09IXSlbQ0BIXShbT0hdKVtDQEBdNShbT0hdKVtDQEBdNihbT0hdKVtDSF09QyhbQ0gyXTQpW0NAQEhdN1tDQF0oW09IXSkoW0NIMl1bQ0BASF02W09IXSlbQ0BAXTUoW0NIM10pW0NIMl1bQ0BASF03W0NAXTgoW09IXSlbQ0BASF0zW0NIMl1bQ0BASF0oW09IXSlbQ0BIXThbQ0gzXQ==

>  <s_epik_cmdline>  (289) 
J2VwaWtfcHl0aG9uJywgJy1waHQnLCAnMi4wJywgJy1waCcsICc3LjAnLCAnLXRuJywgJzgnLCAnLW1hJywgJzIwMCcsICctaW1hZScsICc8aW5maWxlLm1hZT4nLCAnLW9tYWUnLCAnPG91dGZpbGUubWFlPic=

>  <r_lp_tautomer_probability>  (289) 
1

>  <r_epik_Ionization_Penalty>  (289) 
3.47524e-06

>  <r_epik_Ionization_Penalty_Charging>  (289) 
0

>  <r_epik_Ionization_Penalty_Neutral>  (289) 
3.47524e-06

>  <r_epik_State_Penalty>  (289) 
-0

>  <r_epik_Charging_Adjusted_Penalty>  (289) 
0

>  <i_epik_Tot_Q>  (289) 
0

>  <i_epik_Tot_abs_Q>  (289) 
0

>  <s_lp_Force_Field>  (289) 
OPLS3e

>  <r_lp_Energy>  (289) 
216.35

>  <b_lp_Chiralities_Consistent>  (289) 
1

>  <s_lp_Variant>  (289) 
81:0-2

>  <s_i_glide_gridfile>  (289) 
pfpi4k_grid

>  <i_i_glide_lignum>  (289) 
32

>  <i_i_glide_rotatable_bonds>  (289) 
10

>  <r_i_docking_score>  (289) 
-3.22792

>  <r_i_glide_ligand_efficiency>  (289) 
-0.0827673

>  <r_i_glide_ligand_efficiency_sa>  (289) 
-0.280681

>  <r_i_glide_ligand_efficiency_ln>  (289) 
-0.692158

>  <r_i_glide_gscore>  (289) 
-3.22792

>  <r_i_glide_lipo>  (289) 
-0.389666

>  <r_i_glide_hbond>  (289) 
-0.0476948

>  <r_i_glide_metal>  (289) 
-0

>  <r_i_glide_rewards>  (289) 
0

>  <r_i_glide_evdw>  (289) 
-24.4681

>  <r_i_glide_ecoul>  (289) 
-10.4477

>  <r_i_glide_erotb>  (289) 
0

>  <r_i_glide_esite>  (289) 
0

>  <r_i_glide_emodel>  (289) 
-41.2521

>  <r_i_glide_energy>  (289) 
-34.9158

>  <r_i_glide_einternal>  (289) 
2.34507

>  <r_i_glide_intrahb_reward>  (289) 
-0

>  <i_i_glide_confnum>  (289) 
2

>  <i_i_glide_posenum>  (289) 
40

>  <r_i_glide_eff_state_penalty>  (289) 
0

>  <ligand_id>  (289) 
81

>  <original_smiles>  (289) 
COC1C2(O)CC3=CC4(O)C(O)CC5(O)C3C3CC5(C)C4(O)C(O)C4C(C)(C5CC(O)C(C)C35O)C2(O)C14C

>  <smiles>  (289) 
[H]OC1([H])C([H])([H])C2(O[H])C3([H])C4=C([H])C1(O[H])C1(O[H])C([H])(O[H])C5([H])C6(C([H])([H])[H])C([H])(OC([H])([H])[H])C(O[H])(C4([H])[H])C6(O[H])C5(C([H])([H])[H])C4([H])C([H])([H])C([H])(O[H])C([H])(C([H])([H])[H])C4(O[H])C3([H])C([H])([H])C21C([H])([H])[H]

$$$$
81:1:2
     RDKit          3D

 81 88  0  0  1  0  0  0  0  0999 V2000
    1.2573  -11.4213    3.6118 C   0  0  0  0  0  0  0  0  0  0  0  0
    1.4066  -10.2805    2.7920 O   0  0  0  0  0  0  0  0  0  0  0  0
    0.8146   -9.1009    3.2707 C   0  0  2  0  0  0  0  0  0  0  0  0
    1.1087   -7.7832    2.5400 C   0  0  2  0  0  0  0  0  0  0  0  0
    0.0931   -7.4368    1.6186 O   0  0  0  0  0  0  0  0  0  0  0  0
    2.4050   -7.6304    1.6396 C   0  0  0  0  0  0  0  0  0  0  0  0
    3.7706   -7.8482    2.2964 C   0  0  0  0  0  0  0  0  0  0  0  0
    4.0471   -9.1335    2.5787 C   0  0  0  0  0  0  0  0  0  0  0  0
    5.1334   -9.6539    3.4612 C   0  0  1  0  0  0  0  0  0  0  0  0
    4.7164  -10.8998    3.9989 O   0  0  0  0  0  0  0  0  0  0  0  0
    6.3809   -9.8987    2.5993 C   0  0  1  0  0  0  0  0  0  0  0  0
    6.2311  -10.9616    1.6614 O   0  0  0  0  0  0  0  0  0  0  0  0
    6.7338   -8.6075    1.8543 C   0  0  0  0  0  0  0  0  0  0  0  0
    6.3030   -7.3181    2.6108 C   0  0  1  0  0  0  0  0  0  0  0  0
    7.2486   -6.3631    2.1428 O   0  0  0  0  0  0  0  0  0  0  0  0
    4.8742   -6.7309    2.3360 C   0  0  2  0  0  0  0  0  0  0  0  0
    4.9093   -5.5899    3.4342 C   0  0  2  0  0  0  0  0  0  0  0  0
    5.7762   -6.0760    4.5999 C   0  0  0  0  0  0  0  0  0  0  0  0
    6.3169   -7.4429    4.1724 C   0  0  2  0  0  0  0  0  0  0  0  0
    7.7902   -7.5693    4.6826 C   0  0  0  0  0  0  0  0  0  0  0  0
    5.3544   -8.6419    4.6388 C   0  0  2  0  0  0  0  0  0  0  0  0
    6.1017   -9.4038    5.5870 O   0  0  0  0  0  0  0  0  0  0  0  0
    4.0047   -8.3787    5.4923 C   0  0  1  0  0  0  0  0  0  0  0  0
    4.3572   -7.8345    6.7612 O   0  0  0  0  0  0  0  0  0  0  0  0
    2.5842   -7.7796    5.0369 C   0  0  0  0  0  0  0  0  0  0  0  0
    1.9458   -6.3451    4.7537 C   0  0  1  0  0  0  0  0  0  0  0  0
    1.4720   -5.6408    6.0625 C   0  0  0  0  0  0  0  0  0  0  0  0
    2.3945   -5.2069    3.7716 C   0  0  1  0  0  0  0  0  0  0  0  0
    1.4603   -3.9938    3.6046 C   0  0  0  0  0  0  0  0  0  0  0  0
    2.1675   -3.0920    2.5874 C   0  0  1  0  0  0  0  0  0  0  0  0
    1.8414   -1.7364    2.8186 O   0  0  0  0  0  0  0  0  0  0  0  0
    3.6657   -3.4465    2.7051 C   0  0  1  0  0  0  0  0  0  0  0  0
    4.6187   -2.2409    2.8872 C   0  0  0  0  0  0  0  0  0  0  0  0
    3.7773   -4.5905    3.7724 C   0  0  2  0  0  0  0  0  0  0  0  0
    4.0208   -3.9800    5.0305 O   0  0  0  0  0  0  0  0  0  0  0  0
    0.8612   -7.1623    3.9863 C   0  0  1  0  0  0  0  0  0  0  0  0
   -0.4657   -6.7124    4.2080 O   0  0  0  0  0  0  0  0  0  0  0  0
    1.2499   -8.5249    4.6425 C   0  0  1  0  0  0  0  0  0  0  0  0
    0.4146   -9.1218    5.8036 C   0  0  0  0  0  0  0  0  0  0  0  0
    1.6747  -12.2554    3.0587 H   0  0  0  0  0  0  0  0  0  0  0  0
    0.2126  -11.6335    3.8245 H   0  0  0  0  0  0  0  0  0  0  0  0
    1.8056  -11.3419    4.5507 H   0  0  0  0  0  0  0  0  0  0  0  0
   -0.2646   -9.2816    3.2670 H   0  0  0  0  0  0  0  0  0  0  0  0
   -0.0433   -8.2117    1.0867 H   0  0  0  0  0  0  0  0  0  0  0  0
    2.3421   -8.3958    0.8794 H   0  0  0  0  0  0  0  0  0  0  0  0
    2.3977   -6.7030    1.0621 H   0  0  0  0  0  0  0  0  0  0  0  0
    3.4106   -9.9087    2.2254 H   0  0  0  0  0  0  0  0  0  0  0  0
    4.5312  -11.4733    3.2658 H   0  0  0  0  0  0  0  0  0  0  0  0
    7.2115  -10.1812    3.2494 H   0  0  0  0  0  0  0  0  0  0  0  0
    5.3529  -10.9884    1.2787 H   0  0  0  0  0  0  0  0  0  0  0  0
    7.8128   -8.6141    1.6933 H   0  0  0  0  0  0  0  0  0  0  0  0
    6.2785   -8.6029    0.8655 H   0  0  0  0  0  0  0  0  0  0  0  0
    7.1739   -6.3156    1.2012 H   0  0  0  0  0  0  0  0  0  0  0  0
    4.8520   -6.2759    1.3409 H   0  0  0  0  0  0  0  0  0  0  0  0
    5.5971   -4.8741    2.9850 H   0  0  0  0  0  0  0  0  0  0  0  0
    6.6046   -5.3764    4.7242 H   0  0  0  0  0  0  0  0  0  0  0  0
    5.2858   -6.0706    5.5590 H   0  0  0  0  0  0  0  0  0  0  0  0
    7.8405   -7.5411    5.7718 H   0  0  0  0  0  0  0  0  0  0  0  0
    8.4207   -6.7499    4.3330 H   0  0  0  0  0  0  0  0  0  0  0  0
    8.2742   -8.4902    4.3515 H   0  0  0  0  0  0  0  0  0  0  0  0
    5.6496  -10.2387    5.6674 H   0  0  0  0  0  0  0  0  0  0  0  0
    3.7269   -9.3914    5.8014 H   0  0  0  0  0  0  0  0  0  0  0  0
    5.0957   -8.3464    7.0684 H   0  0  0  0  0  0  0  0  0  0  0  0
    2.2791   -7.7988    6.0752 H   0  0  0  0  0  0  0  0  0  0  0  0
    0.6868   -4.9089    5.8935 H   0  0  0  0  0  0  0  0  0  0  0  0
    2.2974   -5.1501    6.5752 H   0  0  0  0  0  0  0  0  0  0  0  0
    1.0230   -6.3192    6.7877 H   0  0  0  0  0  0  0  0  0  0  0  0
    2.3322   -5.5865    2.7796 H   0  0  0  0  0  0  0  0  0  0  0  0
    0.4711   -4.2924    3.2644 H   0  0  0  0  0  0  0  0  0  0  0  0
    1.3394   -3.4284    4.5298 H   0  0  0  0  0  0  0  0  0  0  0  0
    1.8315   -3.3477    1.5809 H   0  0  0  0  0  0  0  0  0  0  0  0
    2.1059   -1.2368    2.0574 H   0  0  0  0  0  0  0  0  0  0  0  0
    3.9302   -3.8860    1.7426 H   0  0  0  0  0  0  0  0  0  0  0  0
    4.4101   -1.6771    3.7986 H   0  0  0  0  0  0  0  0  0  0  0  0
    4.5265   -1.5491    2.0510 H   0  0  0  0  0  0  0  0  0  0  0  0
    5.6611   -2.5559    2.9278 H   0  0  0  0  0  0  0  0  0  0  0  0
    4.0829   -4.6742    5.6718 H   0  0  0  0  0  0  0  0  0  0  0  0
   -0.8979   -7.4153    4.6758 H   0  0  0  0  0  0  0  0  0  0  0  0
    0.2403   -8.4205    6.6182 H   0  0  0  0  0  0  0  0  0  0  0  0
    0.9128   -9.9958    6.2290 H   0  0  0  0  0  0  0  0  0  0  0  0
   -0.5707   -9.4497    5.4657 H   0  0  0  0  0  0  0  0  0  0  0  0
  1  2  1  0
  1 40  1  0
  1 41  1  0
  1 42  1  0
  2  3  1  0
  3 38  1  0
  3  4  1  0
  3 43  1  1
  4 36  1  0
  4  5  1  6
  4  6  1  0
  5 44  1  0
  6  7  1  0
  6 45  1  0
  6 46  1  0
  7 16  1  0
  7  8  2  0
  8  9  1  0
  8 47  1  0
  9 21  1  0
  9 10  1  1
  9 11  1  0
 10 48  1  0
 11 12  1  0
 11 13  1  0
 11 49  1  1
 12 50  1  0
 13 14  1  0
 13 51  1  0
 13 52  1  0
 14 19  1  0
 14 15  1  1
 14 16  1  0
 15 53  1  0
 16 17  1  0
 16 54  1  6
 17 34  1  0
 17 18  1  0
 17 55  1  6
 18 19  1  0
 18 56  1  0
 18 57  1  0
 19 20  1  1
 19 21  1  0
 20 58  1  0
 20 59  1  0
 20 60  1  0
 21 22  1  1
 21 23  1  0
 22 61  1  0
 23 24  1  0
 23 25  1  0
 23 62  1  1
 24 63  1  0
 25 38  1  0
 25 26  1  0
 25 64  1  0
 26 27  1  1
 26 28  1  0
 26 36  1  0
 27 65  1  0
 27 66  1  0
 27 67  1  0
 28 34  1  0
 28 29  1  0
 28 68  1  6
 29 30  1  0
 29 69  1  0
 29 70  1  0
 30 31  1  0
 30 32  1  0
 30 71  1  6
 31 72  1  0
 32 33  1  0
 32 34  1  0
 32 73  1  6
 33 74  1  0
 33 75  1  0
 33 76  1  0
 34 35  1  1
 35 77  1  0
 36 37  1  6
 36 38  1  0
 37 78  1  0
 38 39  1  1
 39 79  1  0
 39 80  1  0
 39 81  1  0
M  END
>  <i_m_ct_stereo_status>  (290) 
1

>  <s_m_source_file>  (290) 
/var/tmp/pbs.5076255.sched01/tmp2672eyar/80wl2hclo4.sdf

>  <i_m_source_file_index>  (290) 
32

>  <i_lp_mmshare_version>  (290) 
48012

>  <i_f3d_flags>  (290) 
0

>  <s_epik_input>  (290) 
W0NIM11PW0NASF0xW0NAQF0yKFtDSDNdKVtDSF0oW0NAXTMoW0NIM10pW0NAQF0yKFtPSF0pW0NAXTE0W09IXSlbQ0BIXShbT0hdKVtDQEBdNShbT0hdKVtDQEBdNihbT0hdKVtDSF09QyhbQ0gyXTQpW0NAQEhdN1tDQF0oW09IXSkoW0NIMl1bQ0BASF02W09IXSlbQ0BAXTUoW0NIM10pW0NIMl1bQ0BASF03W0NAXTgoW09IXSlbQ0BASF0zW0NIMl1bQ0BASF0oW09IXSlbQ0BIXThbQ0gzXQ==

>  <s_epik_cmdline>  (290) 
J2VwaWtfcHl0aG9uJywgJy1waHQnLCAnMi4wJywgJy1waCcsICc3LjAnLCAnLXRuJywgJzgnLCAnLW1hJywgJzIwMCcsICctaW1hZScsICc8aW5maWxlLm1hZT4nLCAnLW9tYWUnLCAnPG91dGZpbGUubWFlPic=

>  <r_lp_tautomer_probability>  (290) 
1

>  <r_epik_Ionization_Penalty>  (290) 
3.47524e-06

>  <r_epik_Ionization_Penalty_Charging>  (290) 
0

>  <r_epik_Ionization_Penalty_Neutral>  (290) 
3.47524e-06

>  <r_epik_State_Penalty>  (290) 
-0

>  <r_epik_Charging_Adjusted_Penalty>  (290) 
0

>  <i_epik_Tot_Q>  (290) 
0

>  <i_epik_Tot_abs_Q>  (290) 
0

>  <s_lp_Force_Field>  (290) 
OPLS3e

>  <r_lp_Energy>  (290) 
216.35

>  <b_lp_Chiralities_Consistent>  (290) 
1

>  <s_lp_Variant>  (290) 
81:0-2

>  <s_i_glide_gridfile>  (290) 
pfpi4k_grid

>  <i_i_glide_lignum>  (290) 
32

>  <i_i_glide_rotatable_bonds>  (290) 
10

>  <r_i_docking_score>  (290) 
-2.89921

>  <r_i_glide_ligand_efficiency>  (290) 
-0.0743387

>  <r_i_glide_ligand_efficiency_sa>  (290) 
-0.252098

>  <r_i_glide_ligand_efficiency_ln>  (290) 
-0.621672

>  <r_i_glide_gscore>  (290) 
-2.89921

>  <r_i_glide_lipo>  (290) 
-0.359277

>  <r_i_glide_hbond>  (290) 
0

>  <r_i_glide_metal>  (290) 
-0

>  <r_i_glide_rewards>  (290) 
0

>  <r_i_glide_evdw>  (290) 
-25.202

>  <r_i_glide_ecoul>  (290) 
-8.5322

>  <r_i_glide_erotb>  (290) 
0

>  <r_i_glide_esite>  (290) 
0

>  <r_i_glide_emodel>  (290) 
-39.6112

>  <r_i_glide_energy>  (290) 
-33.7342

>  <r_i_glide_einternal>  (290) 
2.18318

>  <r_i_glide_intrahb_reward>  (290) 
-0

>  <i_i_glide_confnum>  (290) 
2

>  <i_i_glide_posenum>  (290) 
1

>  <r_i_glide_eff_state_penalty>  (290) 
0

>  <ligand_id>  (290) 
81

>  <original_smiles>  (290) 
COC1C2(O)CC3=CC4(O)C(O)CC5(O)C3C3CC5(C)C4(O)C(O)C4C(C)(C5CC(O)C(C)C35O)C2(O)C14C

>  <smiles>  (290) 
[H]OC1([H])C([H])([H])C2(O[H])C3([H])C4=C([H])C1(O[H])C1(O[H])C([H])(O[H])C5([H])C6(C([H])([H])[H])C([H])(OC([H])([H])[H])C(O[H])(C4([H])[H])C6(O[H])C5(C([H])([H])[H])C4([H])C([H])([H])C([H])(O[H])C([H])(C([H])([H])[H])C4(O[H])C3([H])C([H])([H])C21C([H])([H])[H]

$$$$
82:0:0
     RDKit          3D

 56 63  0  0  1  0  0  0  0  0999 V2000
    4.0501   -5.6711    0.1133 C   0  0  0  0  0  0  0  0  0  0  0  0
    4.1821   -4.6934    1.3130 C   0  0  1  0  0  0  0  0  0  0  0  0
    3.1161   -3.5233    1.1180 C   0  0  1  0  0  0  0  0  0  0  0  0
    2.2605   -3.2578    2.3370 C   0  0  0  0  0  0  0  0  0  0  0  0
    1.8999   -4.2392    3.1883 C   0  0  0  0  0  0  0  0  0  0  0  0
    2.4157   -5.6862    3.0391 C   0  0  1  0  0  0  0  0  0  0  0  0
    1.3891   -6.4995    2.1681 C   0  0  0  0  0  0  0  0  0  0  0  0
    1.7182   -7.7107    1.6870 C   0  0  0  0  0  0  0  0  0  0  0  0
    2.6741   -8.5276    2.5486 C   0  0  1  0  0  0  0  0  0  0  0  0
    4.0827   -8.2709    2.0123 C   0  0  0  0  0  0  0  0  0  0  0  0
    4.7419   -6.9811    2.5457 C   0  0  0  0  0  0  0  0  0  0  0  0
    3.9574   -5.6076    2.6453 C   0  0  1  0  0  0  0  0  0  0  0  0
    4.6195   -5.0359    3.9358 C   0  0  0  0  0  0  0  0  0  0  0  0
    2.4959   -8.1356    4.0601 C   0  0  0  0  0  0  0  0  0  0  0  0
    1.9473   -6.6897    4.1654 C   0  0  2  0  0  0  0  0  0  0  0  0
    0.6306   -6.6808    3.3863 C   0  0  0  0  0  0  0  0  0  0  0  0
   -0.5886   -6.7268    3.5940 O   0  0  0  0  0  0  0  0  0  0  0  0
    3.7407   -2.2186    0.4748 C   0  0  1  0  0  0  0  0  0  0  0  0
    4.8421   -1.5646    1.4083 C   0  0  2  0  0  0  0  0  0  0  0  0
    5.9789   -0.9134    0.5982 C   0  0  0  0  0  0  0  0  0  0  0  0
    6.3390   -1.9300   -0.4853 C   0  0  2  0  0  0  0  0  0  0  0  0
    5.3721   -1.8166   -1.6478 C   0  0  0  0  0  0  0  0  0  0  0  0
    4.4701   -2.7049   -0.7937 C   0  0  1  0  0  0  0  0  0  0  0  0
    5.7588   -3.3746   -0.2830 C   0  0  2  0  0  0  0  0  0  0  0  0
    5.5774   -3.9586    1.1771 C   0  0  1  0  0  0  0  0  0  0  0  0
    5.5735   -2.7156    2.1152 C   0  0  0  0  0  0  0  0  0  0  0  0
    3.9762   -5.1836   -0.8400 H   0  0  0  0  0  0  0  0  0  0  0  0
    3.1531   -6.2727    0.1598 H   0  0  0  0  0  0  0  0  0  0  0  0
    4.9030   -6.3376    0.0025 H   0  0  0  0  0  0  0  0  0  0  0  0
    2.3799   -3.8709    0.3935 H   0  0  0  0  0  0  0  0  0  0  0  0
    1.9006   -2.2479    2.4750 H   0  0  0  0  0  0  0  0  0  0  0  0
    1.2760   -4.0105    4.0378 H   0  0  0  0  0  0  0  0  0  0  0  0
    0.9804   -8.3023    1.1692 H   0  0  0  0  0  0  0  0  0  0  0  0
    2.4435   -9.5841    2.4079 H   0  0  0  0  0  0  0  0  0  0  0  0
    4.7193   -9.1137    2.2915 H   0  0  0  0  0  0  0  0  0  0  0  0
    4.0763   -8.2962    0.9200 H   0  0  0  0  0  0  0  0  0  0  0  0
    5.1207   -7.2824    3.5236 H   0  0  0  0  0  0  0  0  0  0  0  0
    5.6684   -6.8235    2.0009 H   0  0  0  0  0  0  0  0  0  0  0  0
    4.5152   -5.7192    4.7840 H   0  0  0  0  0  0  0  0  0  0  0  0
    4.1605   -4.1251    4.3113 H   0  0  0  0  0  0  0  0  0  0  0  0
    5.6888   -4.8681    3.8130 H   0  0  0  0  0  0  0  0  0  0  0  0
    1.8036   -8.8338    4.5270 H   0  0  0  0  0  0  0  0  0  0  0  0
    3.4257   -8.2465    4.6109 H   0  0  0  0  0  0  0  0  0  0  0  0
    1.8855   -6.2655    5.1636 H   0  0  0  0  0  0  0  0  0  0  0  0
    2.9860   -1.4879    0.2054 H   0  0  0  0  0  0  0  0  0  0  0  0
    4.4237   -0.8665    2.1269 H   0  0  0  0  0  0  0  0  0  0  0  0
    5.6461    0.0228    0.1638 H   0  0  0  0  0  0  0  0  0  0  0  0
    6.8531   -0.6765    1.2100 H   0  0  0  0  0  0  0  0  0  0  0  0
    7.3718   -1.9302   -0.8065 H   0  0  0  0  0  0  0  0  0  0  0  0
    4.9652   -0.8233   -1.8216 H   0  0  0  0  0  0  0  0  0  0  0  0
    5.7225   -2.2978   -2.5772 H   0  0  0  0  0  0  0  0  0  0  0  0
    3.8583   -3.2792   -1.4732 H   0  0  0  0  0  0  0  0  0  0  0  0
    6.1650   -4.0769   -1.0120 H   0  0  0  0  0  0  0  0  0  0  0  0
    6.3903   -4.6324    1.4400 H   0  0  0  0  0  0  0  0  0  0  0  0
    6.6017   -2.4500    2.3778 H   0  0  0  0  0  0  0  0  0  0  0  0
    5.0810   -2.8323    3.0663 H   0  0  0  0  0  0  0  0  0  0  0  0
  2  1  1  6
  1 27  1  0
  1 28  1  0
  1 29  1  0
  2 12  1  0
  2 25  1  0
  2  3  1  0
  3  4  1  0
  3 18  1  0
  3 30  1  6
  4  5  2  0
  4 31  1  0
  6  5  1  1
  5 32  1  0
  6 12  1  0
  6 15  1  0
  6  7  1  0
  7 16  1  0
  7  8  2  0
  8  9  1  0
  8 33  1  0
  9 10  1  0
  9 14  1  0
  9 34  1  1
 10 11  1  0
 10 35  1  0
 10 36  1  0
 11 12  1  0
 11 37  1  0
 11 38  1  0
 12 13  1  1
 13 39  1  0
 13 40  1  0
 13 41  1  0
 14 15  1  0
 14 42  1  0
 14 43  1  0
 15 16  1  0
 15 44  1  1
 16 17  2  0
 18 23  1  0
 18 19  1  0
 18 45  1  6
 19 26  1  0
 19 20  1  0
 19 46  1  1
 20 21  1  0
 20 47  1  0
 20 48  1  0
 21 24  1  0
 21 22  1  0
 21 49  1  6
 22 23  1  0
 22 50  1  0
 22 51  1  0
 23 24  1  0
 23 52  1  6
 24 25  1  0
 24 53  1  6
 25 26  1  0
 25 54  1  1
 26 55  1  0
 26 56  1  0
M  END
>  <i_m_ct_stereo_status>  (291) 
1

>  <s_m_source_file>  (291) 
/var/tmp/pbs.5076255.sched01/tmp2672eyar/80wl2hclo4.sdf

>  <i_m_source_file_index>  (291) 
33

>  <i_lp_mmshare_version>  (291) 
48012

>  <i_f3d_flags>  (291) 
0

>  <s_epik_input>  (291) 
W0NIMl0xW0NASF0yW0NASF0oW0NASF0zW0NIMl00KVtDQEBIXTFbQ0gyXVtDQEhdNFtDQEBIXTJbQ0BIXShbQ0hdPVtDSF01KVtDQF0zKFtDSDNdKVtDQF02KFtDSDNdKVtDSDJdW0NIMl1bQ0BIXShbQ0hdPUM3W0NAXTU2OClbQ0gyXVtDQEBIXThDNz1P

>  <s_epik_cmdline>  (291) 
J2VwaWtfcHl0aG9uJywgJy1waHQnLCAnMi4wJywgJy1waCcsICc3LjAnLCAnLXRuJywgJzgnLCAnLW1hJywgJzIwMCcsICctaW1hZScsICc8aW5maWxlLm1hZT4nLCAnLW9tYWUnLCAnPG91dGZpbGUubWFlPic=

>  <r_lp_tautomer_probability>  (291) 
1

>  <r_epik_Ionization_Penalty>  (291) 
0

>  <r_epik_Ionization_Penalty_Charging>  (291) 
0

>  <r_epik_Ionization_Penalty_Neutral>  (291) 
0

>  <r_epik_State_Penalty>  (291) 
-0

>  <r_epik_Charging_Adjusted_Penalty>  (291) 
0

>  <i_epik_Tot_Q>  (291) 
0

>  <i_epik_Tot_abs_Q>  (291) 
0

>  <s_lp_Force_Field>  (291) 
OPLS3e

>  <r_lp_Energy>  (291) 
192.014

>  <b_lp_Chiralities_Consistent>  (291) 
1

>  <s_lp_Variant>  (291) 
82:0-1

>  <s_i_glide_gridfile>  (291) 
pfpi4k_grid

>  <i_i_glide_lignum>  (291) 
33

>  <i_i_glide_rotatable_bonds>  (291) 
0

>  <r_i_docking_score>  (291) 
-3.18265

>  <r_i_glide_ligand_efficiency>  (291) 
-0.122409

>  <r_i_glide_ligand_efficiency_sa>  (291) 
-0.362638

>  <r_i_glide_ligand_efficiency_ln>  (291) 
-0.747434

>  <r_i_glide_gscore>  (291) 
-3.18265

>  <r_i_glide_lipo>  (291) 
-0.366512

>  <r_i_glide_hbond>  (291) 
-0.10024

>  <r_i_glide_metal>  (291) 
-0

>  <r_i_glide_rewards>  (291) 
-1.04656

>  <r_i_glide_evdw>  (291) 
-24.6747

>  <r_i_glide_ecoul>  (291) 
-2.64684

>  <r_i_glide_erotb>  (291) 
0

>  <r_i_glide_esite>  (291) 
-0.0385759

>  <r_i_glide_emodel>  (291) 
-32.6992

>  <r_i_glide_energy>  (291) 
-27.3216

>  <r_i_glide_einternal>  (291) 
0

>  <r_i_glide_intrahb_reward>  (291) 
-0

>  <i_i_glide_confnum>  (291) 
1

>  <i_i_glide_posenum>  (291) 
10

>  <r_i_glide_eff_state_penalty>  (291) 
0

>  <ligand_id>  (291) 
82

>  <original_smiles>  (291) 
CC12C(C=CC34C5=CC(CCC31C)CC4C5=O)C1C3CC4CC1C4C2C3

>  <smiles>  (291) 
[H]C1=C2C(=O)C3([H])C([H])([H])C1([H])C([H])([H])C([H])([H])C1(C([H])([H])[H])C23C([H])=C([H])C2([H])C3([H])C4([H])C([H])([H])C5([H])C([H])([H])C3([H])C5([H])C([H])(C4([H])[H])C21C([H])([H])[H]

$$$$
82:0:1
     RDKit          3D

 56 63  0  0  1  0  0  0  0  0999 V2000
    3.5991   -5.3126    0.0822 C   0  0  0  0  0  0  0  0  0  0  0  0
    4.6007   -4.1799    0.4578 C   0  0  1  0  0  0  0  0  0  0  0  0
    3.7475   -2.9407    0.9764 C   0  0  1  0  0  0  0  0  0  0  0  0
    4.2011   -2.3944    2.3127 C   0  0  0  0  0  0  0  0  0  0  0  0
    4.7333   -3.1794    3.2620 C   0  0  0  0  0  0  0  0  0  0  0  0
    5.0110   -4.6795    3.0286 C   0  0  1  0  0  0  0  0  0  0  0  0
    3.7485   -5.5094    3.5001 C   0  0  0  0  0  0  0  0  0  0  0  0
    3.6349   -6.8059    3.1904 C   0  0  0  0  0  0  0  0  0  0  0  0
    4.9402   -7.5807    3.0654 C   0  0  1  0  0  0  0  0  0  0  0  0
    5.3231   -7.5668    1.5862 C   0  0  0  0  0  0  0  0  0  0  0  0
    6.0616   -6.2879    1.1472 C   0  0  0  0  0  0  0  0  0  0  0  0
    5.5852   -4.8450    1.5649 C   0  0  1  0  0  0  0  0  0  0  0  0
    6.9820   -4.1761    1.6367 C   0  0  0  0  0  0  0  0  0  0  0  0
    6.0269   -6.9345    3.9984 C   0  0  0  0  0  0  0  0  0  0  0  0
    5.7012   -5.4403    4.2282 C   0  0  2  0  0  0  0  0  0  0  0  0
    4.2968   -5.4038    4.8470 C   0  0  0  0  0  0  0  0  0  0  0  0
    3.7654   -5.3128    5.9465 O   0  0  0  0  0  0  0  0  0  0  0  0
    3.5327   -1.8452   -0.1365 C   0  0  1  0  0  0  0  0  0  0  0  0
    4.8848   -1.1730   -0.5890 C   0  0  2  0  0  0  0  0  0  0  0  0
    4.8337   -0.7792   -2.0770 C   0  0  0  0  0  0  0  0  0  0  0  0
    4.2813   -1.9945   -2.8110 C   0  0  2  0  0  0  0  0  0  0  0  0
    2.7753   -1.9857   -2.7368 C   0  0  0  0  0  0  0  0  0  0  0  0
    3.0016   -2.6130   -1.3590 C   0  0  1  0  0  0  0  0  0  0  0  0
    4.2092   -3.3234   -1.9766 C   0  0  2  0  0  0  0  0  0  0  0  0
    5.2844   -3.6354   -0.8718 C   0  0  1  0  0  0  0  0  0  0  0  0
    5.9689   -2.2675   -0.5690 C   0  0  0  0  0  0  0  0  0  0  0  0
    2.7378   -5.0018   -0.4905 H   0  0  0  0  0  0  0  0  0  0  0  0
    3.1645   -5.8040    0.9394 H   0  0  0  0  0  0  0  0  0  0  0  0
    4.0789   -6.0679   -0.5350 H   0  0  0  0  0  0  0  0  0  0  0  0
    2.7486   -3.3079    1.2118 H   0  0  0  0  0  0  0  0  0  0  0  0
    4.0419   -1.3383    2.4861 H   0  0  0  0  0  0  0  0  0  0  0  0
    5.0387   -2.7577    4.2108 H   0  0  0  0  0  0  0  0  0  0  0  0
    2.8077   -7.3886    3.5825 H   0  0  0  0  0  0  0  0  0  0  0  0
    4.7510   -8.6123    3.3627 H   0  0  0  0  0  0  0  0  0  0  0  0
    5.9754   -8.4169    1.3893 H   0  0  0  0  0  0  0  0  0  0  0  0
    4.4432   -7.7583    0.9697 H   0  0  0  0  0  0  0  0  0  0  0  0
    7.0915   -6.4821    1.4473 H   0  0  0  0  0  0  0  0  0  0  0  0
    6.1563   -6.2777    0.0710 H   0  0  0  0  0  0  0  0  0  0  0  0
    7.6416   -4.7053    2.3217 H   0  0  0  0  0  0  0  0  0  0  0  0
    6.9447   -3.1752    2.0489 H   0  0  0  0  0  0  0  0  0  0  0  0
    7.5022   -4.1501    0.6782 H   0  0  0  0  0  0  0  0  0  0  0  0
    6.0340   -7.4700    4.9492 H   0  0  0  0  0  0  0  0  0  0  0  0
    7.0285   -7.0687    3.5905 H   0  0  0  0  0  0  0  0  0  0  0  0
    6.4477   -4.8578    4.7739 H   0  0  0  0  0  0  0  0  0  0  0  0
    2.8217   -1.0821    0.1750 H   0  0  0  0  0  0  0  0  0  0  0  0
    5.1724   -0.3196    0.0294 H   0  0  0  0  0  0  0  0  0  0  0  0
    4.2169    0.1067   -2.2441 H   0  0  0  0  0  0  0  0  0  0  0  0
    5.8043   -0.5169   -2.4273 H   0  0  0  0  0  0  0  0  0  0  0  0
    4.6177   -2.1343   -3.8397 H   0  0  0  0  0  0  0  0  0  0  0  0
    2.3345   -0.9887   -2.6845 H   0  0  0  0  0  0  0  0  0  0  0  0
    2.2657   -2.6335   -3.4540 H   0  0  0  0  0  0  0  0  0  0  0  0
    2.1207   -3.2157   -1.1664 H   0  0  0  0  0  0  0  0  0  0  0  0
    3.9050   -4.1695   -2.5947 H   0  0  0  0  0  0  0  0  0  0  0  0
    6.0190   -4.3433   -1.2441 H   0  0  0  0  0  0  0  0  0  0  0  0
    6.7670   -2.0891   -1.2900 H   0  0  0  0  0  0  0  0  0  0  0  0
    6.4423   -2.1764    0.3885 H   0  0  0  0  0  0  0  0  0  0  0  0
  2  1  1  6
  1 27  1  0
  1 28  1  0
  1 29  1  0
  2 12  1  0
  2 25  1  0
  2  3  1  0
  3  4  1  0
  3 18  1  0
  3 30  1  1
  4  5  2  0
  4 31  1  0
  6  5  1  1
  5 32  1  0
  6 12  1  0
  6 15  1  0
  6  7  1  0
  7 16  1  0
  7  8  2  0
  8  9  1  0
  8 33  1  0
  9 10  1  0
  9 14  1  0
  9 34  1  1
 10 11  1  0
 10 35  1  0
 10 36  1  0
 11 12  1  0
 11 37  1  0
 11 38  1  0
 12 13  1  1
 13 39  1  0
 13 40  1  0
 13 41  1  0
 14 15  1  0
 14 42  1  0
 14 43  1  0
 15 16  1  0
 15 44  1  1
 16 17  2  0
 18 23  1  0
 18 19  1  0
 18 45  1  1
 19 26  1  0
 19 20  1  0
 19 46  1  1
 20 21  1  0
 20 47  1  0
 20 48  1  0
 21 24  1  0
 21 22  1  0
 21 49  1  6
 22 23  1  0
 22 50  1  0
 22 51  1  0
 23 24  1  0
 23 52  1  1
 24 25  1  0
 24 53  1  6
 25 26  1  0
 25 54  1  6
 26 55  1  0
 26 56  1  0
M  END
>  <i_m_ct_stereo_status>  (292) 
1

>  <s_m_source_file>  (292) 
/var/tmp/pbs.5076255.sched01/tmp2672eyar/80wl2hclo4.sdf

>  <i_m_source_file_index>  (292) 
33

>  <i_lp_mmshare_version>  (292) 
48012

>  <i_f3d_flags>  (292) 
0

>  <s_epik_input>  (292) 
W0NIMl0xW0NASF0yW0NASF0oW0NASF0zW0NIMl00KVtDQEBIXTFbQ0gyXVtDQEhdNFtDQEBIXTJbQ0BIXShbQ0hdPVtDSF01KVtDQF0zKFtDSDNdKVtDQF02KFtDSDNdKVtDSDJdW0NIMl1bQ0BIXShbQ0hdPUM3W0NAXTU2OClbQ0gyXVtDQEBIXThDNz1P

>  <s_epik_cmdline>  (292) 
J2VwaWtfcHl0aG9uJywgJy1waHQnLCAnMi4wJywgJy1waCcsICc3LjAnLCAnLXRuJywgJzgnLCAnLW1hJywgJzIwMCcsICctaW1hZScsICc8aW5maWxlLm1hZT4nLCAnLW9tYWUnLCAnPG91dGZpbGUubWFlPic=

>  <r_lp_tautomer_probability>  (292) 
1

>  <r_epik_Ionization_Penalty>  (292) 
0

>  <r_epik_Ionization_Penalty_Charging>  (292) 
0

>  <r_epik_Ionization_Penalty_Neutral>  (292) 
0

>  <r_epik_State_Penalty>  (292) 
-0

>  <r_epik_Charging_Adjusted_Penalty>  (292) 
0

>  <i_epik_Tot_Q>  (292) 
0

>  <i_epik_Tot_abs_Q>  (292) 
0

>  <s_lp_Force_Field>  (292) 
OPLS3e

>  <r_lp_Energy>  (292) 
192.014

>  <b_lp_Chiralities_Consistent>  (292) 
1

>  <s_lp_Variant>  (292) 
82:0-1

>  <s_i_glide_gridfile>  (292) 
pfpi4k_grid

>  <i_i_glide_lignum>  (292) 
33

>  <i_i_glide_rotatable_bonds>  (292) 
0

>  <r_i_docking_score>  (292) 
-2.49702

>  <r_i_glide_ligand_efficiency>  (292) 
-0.0960393

>  <r_i_glide_ligand_efficiency_sa>  (292) 
-0.284516

>  <r_i_glide_ligand_efficiency_ln>  (292) 
-0.586417

>  <r_i_glide_gscore>  (292) 
-2.49702

>  <r_i_glide_lipo>  (292) 
-0.482053

>  <r_i_glide_hbond>  (292) 
0

>  <r_i_glide_metal>  (292) 
-0

>  <r_i_glide_rewards>  (292) 
-1.04656

>  <r_i_glide_evdw>  (292) 
-19.6577

>  <r_i_glide_ecoul>  (292) 
0.0964841

>  <r_i_glide_erotb>  (292) 
0

>  <r_i_glide_esite>  (292) 
0

>  <r_i_glide_emodel>  (292) 
-23.7358

>  <r_i_glide_energy>  (292) 
-19.5612

>  <r_i_glide_einternal>  (292) 
0

>  <r_i_glide_intrahb_reward>  (292) 
-0

>  <i_i_glide_confnum>  (292) 
2

>  <i_i_glide_posenum>  (292) 
21

>  <r_i_glide_eff_state_penalty>  (292) 
0

>  <ligand_id>  (292) 
82

>  <original_smiles>  (292) 
CC12C(C=CC34C5=CC(CCC31C)CC4C5=O)C1C3CC4CC1C4C2C3

>  <smiles>  (292) 
[H]C1=C2C(=O)C3([H])C([H])([H])C1([H])C([H])([H])C([H])([H])C1(C([H])([H])[H])C23C([H])=C([H])C2([H])C3([H])C4([H])C([H])([H])C5([H])C([H])([H])C3([H])C5([H])C([H])(C4([H])[H])C21C([H])([H])[H]

$$$$
82:0:2
     RDKit          3D

 56 63  0  0  1  0  0  0  0  0999 V2000
    4.2405   -5.6687    1.6407 C   0  0  0  0  0  0  0  0  0  0  0  0
    4.2666   -4.1684    2.0875 C   0  0  1  0  0  0  0  0  0  0  0  0
    2.9433   -3.4741    1.5424 C   0  0  1  0  0  0  0  0  0  0  0  0
    2.1737   -2.6926    2.5883 C   0  0  0  0  0  0  0  0  0  0  0  0
    2.1409   -3.0648    3.8778 C   0  0  0  0  0  0  0  0  0  0  0  0
    2.9684   -4.2518    4.4104 C   0  0  1  0  0  0  0  0  0  0  0  0
    2.0857   -5.5567    4.3588 C   0  0  0  0  0  0  0  0  0  0  0  0
    2.6475   -6.7605    4.5401 C   0  0  0  0  0  0  0  0  0  0  0  0
    3.8582   -6.7994    5.4643 C   0  0  1  0  0  0  0  0  0  0  0  0
    5.1012   -6.6894    4.5788 C   0  0  0  0  0  0  0  0  0  0  0  0
    5.4791   -5.2457    4.1899 C   0  0  0  0  0  0  0  0  0  0  0  0
    4.3940   -4.1909    3.7133 C   0  0  1  0  0  0  0  0  0  0  0  0
    5.0089   -2.8970    4.3289 C   0  0  0  0  0  0  0  0  0  0  0  0
    3.7452   -5.6507    6.5299 C   0  0  0  0  0  0  0  0  0  0  0  0
    2.8785   -4.4959    5.9700 C   0  0  2  0  0  0  0  0  0  0  0  0
    1.5127   -5.1146    5.6321 C   0  0  0  0  0  0  0  0  0  0  0  0
    0.3920   -5.2193    6.1158 O   0  0  0  0  0  0  0  0  0  0  0  0
    3.1728   -2.6839    0.1927 C   0  0  1  0  0  0  0  0  0  0  0  0
    4.1721   -1.4621    0.3704 C   0  0  2  0  0  0  0  0  0  0  0  0
    5.0170   -1.2241   -0.8983 C   0  0  0  0  0  0  0  0  0  0  0  0
    5.5044   -2.6112   -1.3249 C   0  0  2  0  0  0  0  0  0  0  0  0
    4.4231   -3.3176   -2.1218 C   0  0  0  0  0  0  0  0  0  0  0  0
    3.8625   -3.6863   -0.7471 C   0  0  1  0  0  0  0  0  0  0  0  0
    5.3184   -3.7586   -0.2638 C   0  0  2  0  0  0  0  0  0  0  0  0
    5.4293   -3.4383    1.2806 C   0  0  1  0  0  0  0  0  0  0  0  0
    5.2310   -1.8908    1.3983 C   0  0  0  0  0  0  0  0  0  0  0  0
    3.9390   -5.8586    0.6207 H   0  0  0  0  0  0  0  0  0  0  0  0
    3.5382   -6.2560    2.2178 H   0  0  0  0  0  0  0  0  0  0  0  0
    5.2183   -6.1388    1.7213 H   0  0  0  0  0  0  0  0  0  0  0  0
    2.2381   -4.2674    1.2953 H   0  0  0  0  0  0  0  0  0  0  0  0
    1.6025   -1.8404    2.2442 H   0  0  0  0  0  0  0  0  0  0  0  0
    1.5733   -2.4852    4.5922 H   0  0  0  0  0  0  0  0  0  0  0  0
    2.0266   -7.6471    4.5793 H   0  0  0  0  0  0  0  0  0  0  0  0
    3.8758   -7.7698    5.9613 H   0  0  0  0  0  0  0  0  0  0  0  0
    5.9479   -7.1254    5.1125 H   0  0  0  0  0  0  0  0  0  0  0  0
    4.9878   -7.3245    3.6981 H   0  0  0  0  0  0  0  0  0  0  0  0
    6.0184   -4.8827    5.0636 H   0  0  0  0  0  0  0  0  0  0  0  0
    6.2789   -5.2921    3.4543 H   0  0  0  0  0  0  0  0  0  0  0  0
    5.1807   -2.9916    5.4024 H   0  0  0  0  0  0  0  0  0  0  0  0
    4.3888   -2.0109    4.2526 H   0  0  0  0  0  0  0  0  0  0  0  0
    5.9728   -2.6712    3.8829 H   0  0  0  0  0  0  0  0  0  0  0  0
    3.2943   -6.0542    7.4361 H   0  0  0  0  0  0  0  0  0  0  0  0
    4.7289   -5.2974    6.8376 H   0  0  0  0  0  0  0  0  0  0  0  0
    2.8212   -3.5943    6.5797 H   0  0  0  0  0  0  0  0  0  0  0  0
    2.2298   -2.3604   -0.2404 H   0  0  0  0  0  0  0  0  0  0  0  0
    3.6612   -0.5498    0.6770 H   0  0  0  0  0  0  0  0  0  0  0  0
    4.4120   -0.7610   -1.6782 H   0  0  0  0  0  0  0  0  0  0  0  0
    5.8470   -0.5414   -0.7198 H   0  0  0  0  0  0  0  0  0  0  0  0
    6.4644   -2.6403   -1.8383 H   0  0  0  0  0  0  0  0  0  0  0  0
    3.7660   -2.6676   -2.7007 H   0  0  0  0  0  0  0  0  0  0  0  0
    4.7742   -4.1752   -2.7046 H   0  0  0  0  0  0  0  0  0  0  0  0
    3.3339   -4.6267   -0.8553 H   0  0  0  0  0  0  0  0  0  0  0  0
    5.7972   -4.6887   -0.5756 H   0  0  0  0  0  0  0  0  0  0  0  0
    6.4027   -3.7277    1.6780 H   0  0  0  0  0  0  0  0  0  0  0  0
    6.1836   -1.3785    1.2575 H   0  0  0  0  0  0  0  0  0  0  0  0
    4.8710   -1.5276    2.3433 H   0  0  0  0  0  0  0  0  0  0  0  0
  2  1  1  6
  1 27  1  0
  1 28  1  0
  1 29  1  0
  2 12  1  0
  2 25  1  0
  2  3  1  0
  3  4  1  0
  3 18  1  0
  3 30  1  6
  4  5  2  0
  4 31  1  0
  6  5  1  1
  5 32  1  0
  6 12  1  0
  6 15  1  0
  6  7  1  0
  7 16  1  0
  7  8  2  0
  8  9  1  0
  8 33  1  0
  9 10  1  0
  9 14  1  0
  9 34  1  1
 10 11  1  0
 10 35  1  0
 10 36  1  0
 11 12  1  0
 11 37  1  0
 11 38  1  0
 12 13  1  1
 13 39  1  0
 13 40  1  0
 13 41  1  0
 14 15  1  0
 14 42  1  0
 14 43  1  0
 15 16  1  0
 15 44  1  1
 16 17  2  0
 18 23  1  0
 18 19  1  0
 18 45  1  6
 19 26  1  0
 19 20  1  0
 19 46  1  1
 20 21  1  0
 20 47  1  0
 20 48  1  0
 21 24  1  0
 21 22  1  0
 21 49  1  6
 22 23  1  0
 22 50  1  0
 22 51  1  0
 23 24  1  0
 23 52  1  6
 24 25  1  0
 24 53  1  6
 25 26  1  0
 25 54  1  1
 26 55  1  0
 26 56  1  0
M  END
>  <i_m_ct_stereo_status>  (293) 
1

>  <s_m_source_file>  (293) 
/var/tmp/pbs.5076255.sched01/tmp2672eyar/80wl2hclo4.sdf

>  <i_m_source_file_index>  (293) 
33

>  <i_lp_mmshare_version>  (293) 
48012

>  <i_f3d_flags>  (293) 
0

>  <s_epik_input>  (293) 
W0NIMl0xW0NASF0yW0NASF0oW0NASF0zW0NIMl00KVtDQEBIXTFbQ0gyXVtDQEhdNFtDQEBIXTJbQ0BIXShbQ0hdPVtDSF01KVtDQF0zKFtDSDNdKVtDQF02KFtDSDNdKVtDSDJdW0NIMl1bQ0BIXShbQ0hdPUM3W0NAXTU2OClbQ0gyXVtDQEBIXThDNz1P

>  <s_epik_cmdline>  (293) 
J2VwaWtfcHl0aG9uJywgJy1waHQnLCAnMi4wJywgJy1waCcsICc3LjAnLCAnLXRuJywgJzgnLCAnLW1hJywgJzIwMCcsICctaW1hZScsICc8aW5maWxlLm1hZT4nLCAnLW9tYWUnLCAnPG91dGZpbGUubWFlPic=

>  <r_lp_tautomer_probability>  (293) 
1

>  <r_epik_Ionization_Penalty>  (293) 
0

>  <r_epik_Ionization_Penalty_Charging>  (293) 
0

>  <r_epik_Ionization_Penalty_Neutral>  (293) 
0

>  <r_epik_State_Penalty>  (293) 
-0

>  <r_epik_Charging_Adjusted_Penalty>  (293) 
0

>  <i_epik_Tot_Q>  (293) 
0

>  <i_epik_Tot_abs_Q>  (293) 
0

>  <s_lp_Force_Field>  (293) 
OPLS3e

>  <r_lp_Energy>  (293) 
192.014

>  <b_lp_Chiralities_Consistent>  (293) 
1

>  <s_lp_Variant>  (293) 
82:0-1

>  <s_i_glide_gridfile>  (293) 
pfpi4k_grid

>  <i_i_glide_lignum>  (293) 
33

>  <i_i_glide_rotatable_bonds>  (293) 
0

>  <r_i_docking_score>  (293) 
-2.43836

>  <r_i_glide_ligand_efficiency>  (293) 
-0.0937832

>  <r_i_glide_ligand_efficiency_sa>  (293) 
-0.277832

>  <r_i_glide_ligand_efficiency_ln>  (293) 
-0.572642

>  <r_i_glide_gscore>  (293) 
-2.43836

>  <r_i_glide_lipo>  (293) 
-0.267757

>  <r_i_glide_hbond>  (293) 
0

>  <r_i_glide_metal>  (293) 
-0

>  <r_i_glide_rewards>  (293) 
-1.04656

>  <r_i_glide_evdw>  (293) 
-19.7806

>  <r_i_glide_ecoul>  (293) 
-0.900135

>  <r_i_glide_erotb>  (293) 
0

>  <r_i_glide_esite>  (293) 
0

>  <r_i_glide_emodel>  (293) 
-24.8044

>  <r_i_glide_energy>  (293) 
-20.6807

>  <r_i_glide_einternal>  (293) 
0

>  <r_i_glide_intrahb_reward>  (293) 
-0

>  <i_i_glide_confnum>  (293) 
2

>  <i_i_glide_posenum>  (293) 
1

>  <r_i_glide_eff_state_penalty>  (293) 
0

>  <ligand_id>  (293) 
82

>  <original_smiles>  (293) 
CC12C(C=CC34C5=CC(CCC31C)CC4C5=O)C1C3CC4CC1C4C2C3

>  <smiles>  (293) 
[H]C1=C2C(=O)C3([H])C([H])([H])C1([H])C([H])([H])C([H])([H])C1(C([H])([H])[H])C23C([H])=C([H])C2([H])C3([H])C4([H])C([H])([H])C5([H])C([H])([H])C3([H])C5([H])C([H])(C4([H])[H])C21C([H])([H])[H]

$$$$
83:0:0
     RDKit          3D

 12 13  0  0  1  0  0  0  0  0999 V2000
    1.4679  -10.4700    3.0254 C   0  0  0  0  0  0  0  0  0  0  0  0
    2.5165   -9.8563    2.3037 C   0  0  0  0  0  0  0  0  0  0  0  0
    2.4029   -8.6503    1.7007 N   0  0  0  0  0  0  0  0  0  0  0  0
    1.2174   -8.0088    1.7943 C   0  0  0  0  0  0  0  0  0  0  0  0
    0.8616   -6.8281    1.2816 N   0  0  0  0  0  0  0  0  0  0  0  0
   -0.4798   -6.6793    1.6986 O   0  0  0  0  0  0  0  0  0  0  0  0
   -0.9397   -7.7636    2.4753 N   0  0  0  0  0  0  0  0  0  0  0  0
    0.1373   -8.5445    2.4889 C   0  0  0  0  0  0  0  0  0  0  0  0
    0.2351   -9.7964    3.1229 C   0  0  0  0  0  0  0  0  0  0  0  0
    1.6052  -11.4379    3.4876 H   0  0  0  0  0  0  0  0  0  0  0  0
    3.4692  -10.3550    2.2068 H   0  0  0  0  0  0  0  0  0  0  0  0
   -0.5925  -10.2267    3.6650 H   0  0  0  0  0  0  0  0  0  0  0  0
  1  9  2  0
  1  2  1  0
  1 10  1  0
  2  3  2  0
  2 11  1  0
  3  4  1  0
  4  8  1  0
  4  5  2  0
  5  6  1  0
  6  7  1  0
  7  8  2  0
  8  9  1  0
  9 12  1  0
M  END
>  <i_m_ct_stereo_status>  (294) 
1

>  <s_m_source_file>  (294) 
/var/tmp/pbs.5076255.sched01/tmp2672eyar/80wl2hclo4.sdf

>  <i_m_source_file_index>  (294) 
34

>  <i_lp_mmshare_version>  (294) 
48012

>  <i_f3d_flags>  (294) 
0

>  <s_epik_input>  (294) 
bjFbY0hdW2NIXVtjSF1jKGMxMilub24y

>  <s_epik_cmdline>  (294) 
J2VwaWtfcHl0aG9uJywgJy1waHQnLCAnMi4wJywgJy1waCcsICc3LjAnLCAnLXRuJywgJzgnLCAnLW1hJywgJzIwMCcsICctaW1hZScsICc8aW5maWxlLm1hZT4nLCAnLW9tYWUnLCAnPG91dGZpbGUubWFlPic=

>  <r_lp_tautomer_probability>  (294) 
1

>  <r_epik_Ionization_Penalty>  (294) 
7.93947e-10

>  <r_epik_Ionization_Penalty_Charging>  (294) 
0

>  <r_epik_Ionization_Penalty_Neutral>  (294) 
7.93947e-10

>  <r_epik_State_Penalty>  (294) 
-0

>  <r_epik_Charging_Adjusted_Penalty>  (294) 
0

>  <i_epik_Tot_Q>  (294) 
0

>  <i_epik_Tot_abs_Q>  (294) 
0

>  <s_lp_Force_Field>  (294) 
OPLS3e

>  <r_lp_Energy>  (294) 
11.5901

>  <b_lp_Chiralities_Consistent>  (294) 
1

>  <s_lp_Variant>  (294) 
83:0-1

>  <s_i_glide_gridfile>  (294) 
pfpi4k_grid

>  <i_i_glide_lignum>  (294) 
34

>  <i_i_glide_rotatable_bonds>  (294) 
0

>  <r_i_docking_score>  (294) 
-3.85945

>  <r_i_glide_ligand_efficiency>  (294) 
-0.428827

>  <r_i_glide_ligand_efficiency_sa>  (294) 
-0.891997

>  <r_i_glide_ligand_efficiency_ln>  (294) 
-1.20712

>  <r_i_glide_gscore>  (294) 
-3.85945

>  <r_i_glide_lipo>  (294) 
-0.128739

>  <r_i_glide_hbond>  (294) 
0

>  <r_i_glide_metal>  (294) 
-0

>  <r_i_glide_rewards>  (294) 
-2.25

>  <r_i_glide_evdw>  (294) 
-14.2415

>  <r_i_glide_ecoul>  (294) 
-3.13453

>  <r_i_glide_erotb>  (294) 
0

>  <r_i_glide_esite>  (294) 
-0.298453

>  <r_i_glide_emodel>  (294) 
-22.4557

>  <r_i_glide_energy>  (294) 
-17.3761

>  <r_i_glide_einternal>  (294) 
0

>  <r_i_glide_intrahb_reward>  (294) 
-0

>  <i_i_glide_confnum>  (294) 
1

>  <i_i_glide_posenum>  (294) 
32

>  <r_i_glide_eff_state_penalty>  (294) 
0

>  <ligand_id>  (294) 
83

>  <original_smiles>  (294) 
c1cnc2nonc2c1

>  <smiles>  (294) 
[H]c1nc2nonc2c([H])c1[H]

$$$$
83:0:1
     RDKit          3D

 12 13  0  0  1  0  0  0  0  0999 V2000
    1.9079  -10.4118    2.8834 C   0  0  0  0  0  0  0  0  0  0  0  0
    2.5265   -9.4066    2.1098 C   0  0  0  0  0  0  0  0  0  0  0  0
    1.9068   -8.2638    1.7332 N   0  0  0  0  0  0  0  0  0  0  0  0
    0.6189   -8.0939    2.1102 C   0  0  0  0  0  0  0  0  0  0  0  0
   -0.1970   -7.0652    1.8620 N   0  0  0  0  0  0  0  0  0  0  0  0
   -1.4015   -7.4424    2.4995 O   0  0  0  0  0  0  0  0  0  0  0  0
   -1.3170   -8.6937    3.1417 N   0  0  0  0  0  0  0  0  0  0  0  0
   -0.0623   -9.0398    2.8684 C   0  0  0  0  0  0  0  0  0  0  0  0
    0.5673  -10.2304    3.2779 C   0  0  0  0  0  0  0  0  0  0  0  0
    2.4482  -11.3060    3.1608 H   0  0  0  0  0  0  0  0  0  0  0  0
    3.5521   -9.5187    1.7947 H   0  0  0  0  0  0  0  0  0  0  0  0
    0.0486  -10.9725    3.8667 H   0  0  0  0  0  0  0  0  0  0  0  0
  1  9  2  0
  1  2  1  0
  1 10  1  0
  2  3  2  0
  2 11  1  0
  3  4  1  0
  4  8  1  0
  4  5  2  0
  5  6  1  0
  6  7  1  0
  7  8  2  0
  8  9  1  0
  9 12  1  0
M  END
>  <i_m_ct_stereo_status>  (295) 
1

>  <s_m_source_file>  (295) 
/var/tmp/pbs.5076255.sched01/tmp2672eyar/80wl2hclo4.sdf

>  <i_m_source_file_index>  (295) 
34

>  <i_lp_mmshare_version>  (295) 
48012

>  <i_f3d_flags>  (295) 
0

>  <s_epik_input>  (295) 
bjFbY0hdW2NIXVtjSF1jKGMxMilub24y

>  <s_epik_cmdline>  (295) 
J2VwaWtfcHl0aG9uJywgJy1waHQnLCAnMi4wJywgJy1waCcsICc3LjAnLCAnLXRuJywgJzgnLCAnLW1hJywgJzIwMCcsICctaW1hZScsICc8aW5maWxlLm1hZT4nLCAnLW9tYWUnLCAnPG91dGZpbGUubWFlPic=

>  <r_lp_tautomer_probability>  (295) 
1

>  <r_epik_Ionization_Penalty>  (295) 
7.93947e-10

>  <r_epik_Ionization_Penalty_Charging>  (295) 
0

>  <r_epik_Ionization_Penalty_Neutral>  (295) 
7.93947e-10

>  <r_epik_State_Penalty>  (295) 
-0

>  <r_epik_Charging_Adjusted_Penalty>  (295) 
0

>  <i_epik_Tot_Q>  (295) 
0

>  <i_epik_Tot_abs_Q>  (295) 
0

>  <s_lp_Force_Field>  (295) 
OPLS3e

>  <r_lp_Energy>  (295) 
11.5901

>  <b_lp_Chiralities_Consistent>  (295) 
1

>  <s_lp_Variant>  (295) 
83:0-1

>  <s_i_glide_gridfile>  (295) 
pfpi4k_grid

>  <i_i_glide_lignum>  (295) 
34

>  <i_i_glide_rotatable_bonds>  (295) 
0

>  <r_i_docking_score>  (295) 
-3.77332

>  <r_i_glide_ligand_efficiency>  (295) 
-0.419257

>  <r_i_glide_ligand_efficiency_sa>  (295) 
-0.872091

>  <r_i_glide_ligand_efficiency_ln>  (295) 
-1.18019

>  <r_i_glide_gscore>  (295) 
-3.77332

>  <r_i_glide_lipo>  (295) 
-0.0909006

>  <r_i_glide_hbond>  (295) 
0

>  <r_i_glide_metal>  (295) 
-0

>  <r_i_glide_rewards>  (295) 
-2.25

>  <r_i_glide_evdw>  (295) 
-15.6159

>  <r_i_glide_ecoul>  (295) 
-2.46655

>  <r_i_glide_erotb>  (295) 
0

>  <r_i_glide_esite>  (295) 
-0.281637

>  <r_i_glide_emodel>  (295) 
-23.0493

>  <r_i_glide_energy>  (295) 
-18.0825

>  <r_i_glide_einternal>  (295) 
0

>  <r_i_glide_intrahb_reward>  (295) 
-0

>  <i_i_glide_confnum>  (295) 
2

>  <i_i_glide_posenum>  (295) 
12

>  <r_i_glide_eff_state_penalty>  (295) 
0

>  <ligand_id>  (295) 
83

>  <original_smiles>  (295) 
c1cnc2nonc2c1

>  <smiles>  (295) 
[H]c1nc2nonc2c([H])c1[H]

$$$$
83:0:2
     RDKit          3D

 12 13  0  0  1  0  0  0  0  0999 V2000
    1.0236  -10.7889    4.0640 C   0  0  0  0  0  0  0  0  0  0  0  0
    1.0184  -10.0837    5.2882 C   0  0  0  0  0  0  0  0  0  0  0  0
    0.2962   -8.9578    5.5004 N   0  0  0  0  0  0  0  0  0  0  0  0
   -0.4833   -8.5095    4.4897 C   0  0  0  0  0  0  0  0  0  0  0  0
   -1.2801   -7.4389    4.4537 N   0  0  0  0  0  0  0  0  0  0  0  0
   -1.8259   -7.4737    3.1509 O   0  0  0  0  0  0  0  0  0  0  0  0
   -1.3589   -8.5652    2.3921 N   0  0  0  0  0  0  0  0  0  0  0  0
   -0.5394   -9.1502    3.2590 C   0  0  0  0  0  0  0  0  0  0  0  0
    0.2201  -10.3072    3.0126 C   0  0  0  0  0  0  0  0  0  0  0  0
    1.6205  -11.6824    3.9451 H   0  0  0  0  0  0  0  0  0  0  0  0
    1.6289  -10.4226    6.1112 H   0  0  0  0  0  0  0  0  0  0  0  0
    0.1803  -10.8186    2.0628 H   0  0  0  0  0  0  0  0  0  0  0  0
  1  9  2  0
  1  2  1  0
  1 10  1  0
  2  3  2  0
  2 11  1  0
  3  4  1  0
  4  8  1  0
  4  5  2  0
  5  6  1  0
  6  7  1  0
  7  8  2  0
  8  9  1  0
  9 12  1  0
M  END
>  <i_m_ct_stereo_status>  (296) 
1

>  <s_m_source_file>  (296) 
/var/tmp/pbs.5076255.sched01/tmp2672eyar/80wl2hclo4.sdf

>  <i_m_source_file_index>  (296) 
34

>  <i_lp_mmshare_version>  (296) 
48012

>  <i_f3d_flags>  (296) 
0

>  <s_epik_input>  (296) 
bjFbY0hdW2NIXVtjSF1jKGMxMilub24y

>  <s_epik_cmdline>  (296) 
J2VwaWtfcHl0aG9uJywgJy1waHQnLCAnMi4wJywgJy1waCcsICc3LjAnLCAnLXRuJywgJzgnLCAnLW1hJywgJzIwMCcsICctaW1hZScsICc8aW5maWxlLm1hZT4nLCAnLW9tYWUnLCAnPG91dGZpbGUubWFlPic=

>  <r_lp_tautomer_probability>  (296) 
1

>  <r_epik_Ionization_Penalty>  (296) 
7.93947e-10

>  <r_epik_Ionization_Penalty_Charging>  (296) 
0

>  <r_epik_Ionization_Penalty_Neutral>  (296) 
7.93947e-10

>  <r_epik_State_Penalty>  (296) 
-0

>  <r_epik_Charging_Adjusted_Penalty>  (296) 
0

>  <i_epik_Tot_Q>  (296) 
0

>  <i_epik_Tot_abs_Q>  (296) 
0

>  <s_lp_Force_Field>  (296) 
OPLS3e

>  <r_lp_Energy>  (296) 
11.5901

>  <b_lp_Chiralities_Consistent>  (296) 
1

>  <s_lp_Variant>  (296) 
83:0-1

>  <s_i_glide_gridfile>  (296) 
pfpi4k_grid

>  <i_i_glide_lignum>  (296) 
34

>  <i_i_glide_rotatable_bonds>  (296) 
0

>  <r_i_docking_score>  (296) 
-3.6481

>  <r_i_glide_ligand_efficiency>  (296) 
-0.405345

>  <r_i_glide_ligand_efficiency_sa>  (296) 
-0.843152

>  <r_i_glide_ligand_efficiency_ln>  (296) 
-1.14102

>  <r_i_glide_gscore>  (296) 
-3.6481

>  <r_i_glide_lipo>  (296) 
-0.0663445

>  <r_i_glide_hbond>  (296) 
0

>  <r_i_glide_metal>  (296) 
-0

>  <r_i_glide_rewards>  (296) 
-2.25

>  <r_i_glide_evdw>  (296) 
-15.5976

>  <r_i_glide_ecoul>  (296) 
-2.3446

>  <r_i_glide_erotb>  (296) 
0

>  <r_i_glide_esite>  (296) 
-0.20019

>  <r_i_glide_emodel>  (296) 
-22.7435

>  <r_i_glide_energy>  (296) 
-17.9422

>  <r_i_glide_einternal>  (296) 
0

>  <r_i_glide_intrahb_reward>  (296) 
-0

>  <i_i_glide_confnum>  (296) 
1

>  <i_i_glide_posenum>  (296) 
34

>  <r_i_glide_eff_state_penalty>  (296) 
0

>  <ligand_id>  (296) 
83

>  <original_smiles>  (296) 
c1cnc2nonc2c1

>  <smiles>  (296) 
[H]c1nc2nonc2c([H])c1[H]

$$$$
84:0:0
     RDKit          3D

 55 60  0  0  1  0  0  0  0  0999 V2000
    2.3182   -2.4717    2.6971 C   0  0  0  0  0  0  0  0  0  0  0  0
    3.8479   -2.3481    2.8548 C   0  0  0  0  0  0  0  0  0  0  0  0
    4.0699   -0.9926    3.5818 C   0  0  0  0  0  0  0  0  0  0  0  0
    4.3735   -3.4660    3.7979 C   0  0  0  0  0  0  0  0  0  0  0  0
    4.8932   -4.6157    2.9825 C   0  0  0  0  0  0  0  0  0  0  0  0
    3.9861   -5.2981    2.1375 C   0  0  0  0  0  0  0  0  0  0  0  0
    3.7292   -6.5519    2.5584 C   0  0  0  0  0  0  0  0  0  0  0  0
    4.4724   -7.0918    3.5990 O   0  0  0  0  0  0  0  0  0  0  0  0
    5.7498   -6.5678    3.8695 C   0  0  0  0  0  0  0  0  0  0  0  0
    6.5633   -7.1271    4.6023 O   0  0  0  0  0  0  0  0  0  0  0  0
    6.0445   -5.2588    3.1934 C   0  0  0  0  0  0  0  0  0  0  0  0
    6.9460   -5.5322    1.9582 C   0  0  0  0  0  0  0  0  0  0  0  0
    6.3933   -5.1606    0.5214 C   0  0  1  0  0  0  0  0  0  0  0  0
    5.0834   -5.6676    0.2499 O   0  0  0  0  0  0  0  0  0  0  0  0
    3.9794   -4.9191    0.6804 C   0  0  1  0  0  0  0  0  0  0  0  0
    2.8092   -5.4476    0.0853 O   0  0  0  0  0  0  0  0  0  0  0  0
    4.2021   -3.3595    0.2616 C   0  0  2  0  0  0  0  0  0  0  0  0
    3.0177   -2.7445   -0.5319 C   0  0  0  0  0  0  0  0  0  0  0  0
    3.5965   -1.6516   -1.4496 C   0  0  0  0  0  0  0  0  0  0  0  0
    5.1020   -1.9301   -1.5505 C   0  0  1  0  0  0  0  0  0  0  0  0
    5.7813   -0.8363   -1.0037 O   0  0  0  0  0  0  0  0  0  0  0  0
    5.2741   -3.3276   -0.8764 C   0  0  2  0  0  0  0  0  0  0  0  0
    5.0148   -4.2405   -2.1227 C   0  0  0  0  0  0  0  0  0  0  0  0
    6.6015   -3.7611   -0.1889 C   0  0  1  0  0  0  0  0  0  0  0  0
    7.1634   -2.6823    0.7177 C   0  0  0  0  0  0  0  0  0  0  0  0
    6.1366   -2.1059    1.6958 C   0  0  0  0  0  0  0  0  0  0  0  0
    4.6076   -2.3431    1.4601 C   0  0  2  0  0  0  0  0  0  0  0  0
    1.8259   -2.4935    3.6686 H   0  0  0  0  0  0  0  0  0  0  0  0
    2.0250   -3.3769    2.1716 H   0  0  0  0  0  0  0  0  0  0  0  0
    1.9015   -1.6172    2.1634 H   0  0  0  0  0  0  0  0  0  0  0  0
    5.1151   -0.8149    3.8437 H   0  0  0  0  0  0  0  0  0  0  0  0
    3.5086   -0.9500    4.5176 H   0  0  0  0  0  0  0  0  0  0  0  0
    3.7415   -0.1426    2.9792 H   0  0  0  0  0  0  0  0  0  0  0  0
    5.1838   -3.1056    4.4347 H   0  0  0  0  0  0  0  0  0  0  0  0
    3.5965   -3.8222    4.4738 H   0  0  0  0  0  0  0  0  0  0  0  0
    3.2534   -7.3146    1.9461 H   0  0  0  0  0  0  0  0  0  0  0  0
    7.8967   -5.0340    2.1288 H   0  0  0  0  0  0  0  0  0  0  0  0
    7.2355   -6.5873    1.9287 H   0  0  0  0  0  0  0  0  0  0  0  0
    6.9896   -5.8344   -0.0798 H   0  0  0  0  0  0  0  0  0  0  0  0
    2.9667   -5.4881   -0.8550 H   0  0  0  0  0  0  0  0  0  0  0  0
    2.4983   -3.4594   -1.1738 H   0  0  0  0  0  0  0  0  0  0  0  0
    2.2473   -2.3208    0.1112 H   0  0  0  0  0  0  0  0  0  0  0  0
    3.1198   -1.6837   -2.4299 H   0  0  0  0  0  0  0  0  0  0  0  0
    3.3923   -0.6644   -1.0352 H   0  0  0  0  0  0  0  0  0  0  0  0
    5.4167   -1.9358   -2.5939 H   0  0  0  0  0  0  0  0  0  0  0  0
    5.3109   -0.5500   -0.2326 H   0  0  0  0  0  0  0  0  0  0  0  0
    5.8009   -4.0943   -2.8695 H   0  0  0  0  0  0  0  0  0  0  0  0
    4.0783   -4.0212   -2.6301 H   0  0  0  0  0  0  0  0  0  0  0  0
    5.0083   -5.3098   -1.9408 H   0  0  0  0  0  0  0  0  0  0  0  0
    7.3490   -3.8679   -0.9744 H   0  0  0  0  0  0  0  0  0  0  0  0
    8.0206   -3.0659    1.2663 H   0  0  0  0  0  0  0  0  0  0  0  0
    7.6086   -1.8886    0.1170 H   0  0  0  0  0  0  0  0  0  0  0  0
    6.4010   -2.5028    2.6624 H   0  0  0  0  0  0  0  0  0  0  0  0
    6.3391   -1.0407    1.8054 H   0  0  0  0  0  0  0  0  0  0  0  0
    4.3010   -1.3764    1.0671 H   0  0  0  0  0  0  0  0  0  0  0  0
  1  2  1  0
  1 28  1  0
  1 29  1  0
  1 30  1  0
  2 27  1  0
  2  3  1  0
  2  4  1  0
  3 31  1  0
  3 32  1  0
  3 33  1  0
  4  5  1  0
  4 34  1  0
  4 35  1  0
  5 11  2  0
  5  6  1  0
  6 15  1  0
  6  7  2  0
  7  8  1  0
  7 36  1  0
  8  9  1  0
  9 10  2  0
  9 11  1  0
 11 12  1  0
 12 13  1  0
 12 37  1  0
 12 38  1  0
 13 24  1  0
 13 14  1  0
 13 39  1  6
 14 15  1  0
 15 16  1  6
 15 17  1  0
 16 40  1  0
 17 22  1  0
 17 27  1  0
 17 18  1  6
 18 19  1  0
 18 41  1  0
 18 42  1  0
 19 20  1  0
 19 43  1  0
 19 44  1  0
 20 21  1  0
 20 22  1  0
 20 45  1  6
 21 46  1  0
 22 23  1  6
 22 24  1  0
 23 47  1  0
 23 48  1  0
 23 49  1  0
 24 25  1  0
 24 50  1  6
 25 26  1  0
 25 51  1  0
 25 52  1  0
 26 27  1  0
 26 53  1  0
 26 54  1  0
 27 55  1  6
M  END
>  <i_m_ct_stereo_status>  (297) 
1

>  <s_m_source_file>  (297) 
/var/tmp/pbs.5076255.sched01/tmp2672eyar/80wl2hclo4.sdf

>  <i_m_source_file_index>  (297) 
35

>  <i_lp_mmshare_version>  (297) 
48012

>  <i_f3d_flags>  (297) 
0

>  <s_epik_input>  (297) 
W0NIM11DKFtDSDNdKShbQ0gyXTEpW0NASF0yW0NIMl1bQ0gyXVtDQEhdKFtDQF0zKFtDSDNdKVtDQEhdKFtPSF0pW0NIMl1bQ0gyXTQpW0NASF0oTzUpW0NIMl1jKGMoPU8pb1tjSF02KWMxYzZbQ0BdNShbQ0BAXTIzNClbT0hd

>  <s_epik_cmdline>  (297) 
J2VwaWtfcHl0aG9uJywgJy1waHQnLCAnMi4wJywgJy1waCcsICc3LjAnLCAnLXRuJywgJzgnLCAnLW1hJywgJzIwMCcsICctaW1hZScsICc8aW5maWxlLm1hZT4nLCAnLW9tYWUnLCAnPG91dGZpbGUubWFlPic=

>  <r_lp_tautomer_probability>  (297) 
1

>  <r_epik_Ionization_Penalty>  (297) 
2.52865e-06

>  <r_epik_Ionization_Penalty_Charging>  (297) 
0

>  <r_epik_Ionization_Penalty_Neutral>  (297) 
2.52865e-06

>  <r_epik_State_Penalty>  (297) 
-0

>  <r_epik_Charging_Adjusted_Penalty>  (297) 
0

>  <i_epik_Tot_Q>  (297) 
0

>  <i_epik_Tot_abs_Q>  (297) 
0

>  <s_lp_Force_Field>  (297) 
OPLS3e

>  <r_lp_Energy>  (297) 
180.695

>  <b_lp_Chiralities_Consistent>  (297) 
1

>  <s_lp_Variant>  (297) 
84:0-1

>  <s_i_glide_gridfile>  (297) 
pfpi4k_grid

>  <i_i_glide_lignum>  (297) 
35

>  <i_i_glide_rotatable_bonds>  (297) 
2

>  <r_i_docking_score>  (297) 
-3.35311

>  <r_i_glide_ligand_efficiency>  (297) 
-0.124189

>  <r_i_glide_ligand_efficiency_sa>  (297) 
-0.372568

>  <r_i_glide_ligand_efficiency_ln>  (297) 
-0.780549

>  <r_i_glide_gscore>  (297) 
-3.35311

>  <r_i_glide_lipo>  (297) 
-0.634197

>  <r_i_glide_hbond>  (297) 
-0.044815

>  <r_i_glide_metal>  (297) 
-0

>  <r_i_glide_rewards>  (297) 
-0.899898

>  <r_i_glide_evdw>  (297) 
-16.9022

>  <r_i_glide_ecoul>  (297) 
-6.19395

>  <r_i_glide_erotb>  (297) 
0

>  <r_i_glide_esite>  (297) 
0

>  <r_i_glide_emodel>  (297) 
-27.6405

>  <r_i_glide_energy>  (297) 
-23.0961

>  <r_i_glide_einternal>  (297) 
0.494637

>  <r_i_glide_intrahb_reward>  (297) 
-0

>  <i_i_glide_confnum>  (297) 
1

>  <i_i_glide_posenum>  (297) 
25

>  <r_i_glide_eff_state_penalty>  (297) 
0

>  <ligand_id>  (297) 
84

>  <original_smiles>  (297) 
CC1(C)Cc2c3coc(=O)c2CC2OC3(O)C34CCC(O)C3(C)C2CCC14

>  <smiles>  (297) 
[H]OC12OC3([H])C([H])([H])c4c(c1c([H])oc4=O)C([H])([H])C(C([H])([H])[H])(C([H])([H])[H])C1([H])C([H])([H])C([H])([H])C3([H])C3(C([H])([H])[H])C([H])(O[H])C([H])([H])C([H])([H])C213

$$$$
84:0:1
     RDKit          3D

 55 60  0  0  1  0  0  0  0  0999 V2000
    1.9008   -2.4159    2.6376 C   0  0  0  0  0  0  0  0  0  0  0  0
    3.3842   -2.6121    2.9967 C   0  0  0  0  0  0  0  0  0  0  0  0
    3.7206   -1.4266    3.9410 C   0  0  0  0  0  0  0  0  0  0  0  0
    3.5613   -3.9194    3.8170 C   0  0  0  0  0  0  0  0  0  0  0  0
    3.9984   -5.0317    2.9093 C   0  0  0  0  0  0  0  0  0  0  0  0
    3.1318   -5.4178    1.8594 C   0  0  0  0  0  0  0  0  0  0  0  0
    2.6083   -6.6485    2.0483 C   0  0  0  0  0  0  0  0  0  0  0  0
    3.0799   -7.4439    3.0799 O   0  0  0  0  0  0  0  0  0  0  0  0
    4.3713   -7.2077    3.5878 C   0  0  0  0  0  0  0  0  0  0  0  0
    4.9562   -7.9999    4.3268 O   0  0  0  0  0  0  0  0  0  0  0  0
    4.9853   -5.9047    3.1633 C   0  0  0  0  0  0  0  0  0  0  0  0
    5.9995   -6.1836    2.0224 C   0  0  0  0  0  0  0  0  0  0  0  0
    5.7420   -5.5428    0.5908 C   0  0  1  0  0  0  0  0  0  0  0  0
    4.4156   -5.7534    0.0862 O   0  0  0  0  0  0  0  0  0  0  0  0
    3.4047   -4.8644    0.4869 C   0  0  1  0  0  0  0  0  0  0  0  0
    2.2568   -5.0726   -0.3130 O   0  0  0  0  0  0  0  0  0  0  0  0
    3.9633   -3.3421    0.3431 C   0  0  2  0  0  0  0  0  0  0  0  0
    3.0327   -2.4221   -0.4832 C   0  0  0  0  0  0  0  0  0  0  0  0
    3.9234   -1.3422   -1.1401 C   0  0  0  0  0  0  0  0  0  0  0  0
    5.3594   -1.8842   -1.1030 C   0  0  1  0  0  0  0  0  0  0  0  0
    6.1515   -1.0309   -0.3198 O   0  0  0  0  0  0  0  0  0  0  0  0
    5.1828   -3.3647   -0.6381 C   0  0  2  0  0  0  0  0  0  0  0  0
    4.9865   -4.0425   -2.0339 C   0  0  0  0  0  0  0  0  0  0  0  0
    6.2858   -4.1296    0.1387 C   0  0  1  0  0  0  0  0  0  0  0  0
    6.8669   -3.3090    1.2688 C   0  0  0  0  0  0  0  0  0  0  0  0
    5.8194   -2.6862    2.1980 C   0  0  0  0  0  0  0  0  0  0  0  0
    4.3352   -2.5787    1.7261 C   0  0  2  0  0  0  0  0  0  0  0  0
    1.2658   -2.4698    3.5210 H   0  0  0  0  0  0  0  0  0  0  0  0
    1.5583   -3.1838    1.9553 H   0  0  0  0  0  0  0  0  0  0  0  0
    1.7201   -1.4420    2.1816 H   0  0  0  0  0  0  0  0  0  0  0  0
    4.7293   -1.4852    4.3579 H   0  0  0  0  0  0  0  0  0  0  0  0
    3.0383   -1.3960    4.7945 H   0  0  0  0  0  0  0  0  0  0  0  0
    3.6375   -0.4604    3.4362 H   0  0  0  0  0  0  0  0  0  0  0  0
    4.3113   -3.8041    4.5978 H   0  0  0  0  0  0  0  0  0  0  0  0
    2.6420   -4.2069    4.3238 H   0  0  0  0  0  0  0  0  0  0  0  0
    2.1076   -7.2239    1.2769 H   0  0  0  0  0  0  0  0  0  0  0  0
    6.9851   -5.9001    2.3904 H   0  0  0  0  0  0  0  0  0  0  0  0
    6.1077   -7.2641    1.8729 H   0  0  0  0  0  0  0  0  0  0  0  0
    6.3123   -6.2197   -0.0322 H   0  0  0  0  0  0  0  0  0  0  0  0
    2.5667   -5.2908   -1.1954 H   0  0  0  0  0  0  0  0  0  0  0  0
    2.4998   -2.9249   -1.2913 H   0  0  0  0  0  0  0  0  0  0  0  0
    2.2766   -1.9663    0.1404 H   0  0  0  0  0  0  0  0  0  0  0  0
    3.5982   -1.1537   -2.1671 H   0  0  0  0  0  0  0  0  0  0  0  0
    3.8422   -0.3907   -0.6132 H   0  0  0  0  0  0  0  0  0  0  0  0
    5.8049   -1.8123   -2.0950 H   0  0  0  0  0  0  0  0  0  0  0  0
    5.8131   -1.0584    0.5645 H   0  0  0  0  0  0  0  0  0  0  0  0
    5.8761   -3.9439   -2.6547 H   0  0  0  0  0  0  0  0  0  0  0  0
    4.1539   -3.6347   -2.6085 H   0  0  0  0  0  0  0  0  0  0  0  0
    4.8213   -5.1056   -1.9982 H   0  0  0  0  0  0  0  0  0  0  0  0
    7.1161   -4.2731   -0.5464 H   0  0  0  0  0  0  0  0  0  0  0  0
    7.5621   -3.9203    1.8366 H   0  0  0  0  0  0  0  0  0  0  0  0
    7.5278   -2.5416    0.8681 H   0  0  0  0  0  0  0  0  0  0  0  0
    5.8744   -3.2375    3.1291 H   0  0  0  0  0  0  0  0  0  0  0  0
    6.1712   -1.6966    2.4786 H   0  0  0  0  0  0  0  0  0  0  0  0
    4.2634   -1.5277    1.4452 H   0  0  0  0  0  0  0  0  0  0  0  0
  1  2  1  0
  1 28  1  0
  1 29  1  0
  1 30  1  0
  2 27  1  0
  2  3  1  0
  2  4  1  0
  3 31  1  0
  3 32  1  0
  3 33  1  0
  4  5  1  0
  4 34  1  0
  4 35  1  0
  5 11  2  0
  5  6  1  0
  6 15  1  0
  6  7  2  0
  7  8  1  0
  7 36  1  0
  8  9  1  0
  9 10  2  0
  9 11  1  0
 11 12  1  0
 12 13  1  0
 12 37  1  0
 12 38  1  0
 13 24  1  0
 13 14  1  0
 13 39  1  6
 14 15  1  0
 15 16  1  6
 15 17  1  0
 16 40  1  0
 17 22  1  0
 17 27  1  0
 17 18  1  6
 18 19  1  0
 18 41  1  0
 18 42  1  0
 19 20  1  0
 19 43  1  0
 19 44  1  0
 20 21  1  0
 20 22  1  0
 20 45  1  6
 21 46  1  0
 22 23  1  6
 22 24  1  0
 23 47  1  0
 23 48  1  0
 23 49  1  0
 24 25  1  0
 24 50  1  6
 25 26  1  0
 25 51  1  0
 25 52  1  0
 26 27  1  0
 26 53  1  0
 26 54  1  0
 27 55  1  6
M  END
>  <i_m_ct_stereo_status>  (298) 
1

>  <s_m_source_file>  (298) 
/var/tmp/pbs.5076255.sched01/tmp2672eyar/80wl2hclo4.sdf

>  <i_m_source_file_index>  (298) 
35

>  <i_lp_mmshare_version>  (298) 
48012

>  <i_f3d_flags>  (298) 
0

>  <s_epik_input>  (298) 
W0NIM11DKFtDSDNdKShbQ0gyXTEpW0NASF0yW0NIMl1bQ0gyXVtDQEhdKFtDQF0zKFtDSDNdKVtDQEhdKFtPSF0pW0NIMl1bQ0gyXTQpW0NASF0oTzUpW0NIMl1jKGMoPU8pb1tjSF02KWMxYzZbQ0BdNShbQ0BAXTIzNClbT0hd

>  <s_epik_cmdline>  (298) 
J2VwaWtfcHl0aG9uJywgJy1waHQnLCAnMi4wJywgJy1waCcsICc3LjAnLCAnLXRuJywgJzgnLCAnLW1hJywgJzIwMCcsICctaW1hZScsICc8aW5maWxlLm1hZT4nLCAnLW9tYWUnLCAnPG91dGZpbGUubWFlPic=

>  <r_lp_tautomer_probability>  (298) 
1

>  <r_epik_Ionization_Penalty>  (298) 
2.52865e-06

>  <r_epik_Ionization_Penalty_Charging>  (298) 
0

>  <r_epik_Ionization_Penalty_Neutral>  (298) 
2.52865e-06

>  <r_epik_State_Penalty>  (298) 
-0

>  <r_epik_Charging_Adjusted_Penalty>  (298) 
0

>  <i_epik_Tot_Q>  (298) 
0

>  <i_epik_Tot_abs_Q>  (298) 
0

>  <s_lp_Force_Field>  (298) 
OPLS3e

>  <r_lp_Energy>  (298) 
180.695

>  <b_lp_Chiralities_Consistent>  (298) 
1

>  <s_lp_Variant>  (298) 
84:0-1

>  <s_i_glide_gridfile>  (298) 
pfpi4k_grid

>  <i_i_glide_lignum>  (298) 
35

>  <i_i_glide_rotatable_bonds>  (298) 
2

>  <r_i_docking_score>  (298) 
-3.1651

>  <r_i_glide_ligand_efficiency>  (298) 
-0.117226

>  <r_i_glide_ligand_efficiency_sa>  (298) 
-0.351677

>  <r_i_glide_ligand_efficiency_ln>  (298) 
-0.736782

>  <r_i_glide_gscore>  (298) 
-3.1651

>  <r_i_glide_lipo>  (298) 
-0.396141

>  <r_i_glide_hbond>  (298) 
-0.0528282

>  <r_i_glide_metal>  (298) 
-0

>  <r_i_glide_rewards>  (298) 
-0.869627

>  <r_i_glide_evdw>  (298) 
-16.1717

>  <r_i_glide_ecoul>  (298) 
-6.85356

>  <r_i_glide_erotb>  (298) 
0

>  <r_i_glide_esite>  (298) 
-0.00988407

>  <r_i_glide_emodel>  (298) 
-27.1787

>  <r_i_glide_energy>  (298) 
-23.0252

>  <r_i_glide_einternal>  (298) 
0.643284

>  <r_i_glide_intrahb_reward>  (298) 
-0

>  <i_i_glide_confnum>  (298) 
1

>  <i_i_glide_posenum>  (298) 
18

>  <r_i_glide_eff_state_penalty>  (298) 
0

>  <ligand_id>  (298) 
84

>  <original_smiles>  (298) 
CC1(C)Cc2c3coc(=O)c2CC2OC3(O)C34CCC(O)C3(C)C2CCC14

>  <smiles>  (298) 
[H]OC12OC3([H])C([H])([H])c4c(c1c([H])oc4=O)C([H])([H])C(C([H])([H])[H])(C([H])([H])[H])C1([H])C([H])([H])C([H])([H])C3([H])C3(C([H])([H])[H])C([H])(O[H])C([H])([H])C([H])([H])C213

$$$$
84:0:2
     RDKit          3D

 55 60  0  0  1  0  0  0  0  0999 V2000
    1.9140   -1.8178    2.4072 C   0  0  0  0  0  0  0  0  0  0  0  0
    3.2518   -2.3861    2.9190 C   0  0  0  0  0  0  0  0  0  0  0  0
    3.7243   -1.3815    4.0036 C   0  0  0  0  0  0  0  0  0  0  0  0
    3.0158   -3.7489    3.6259 C   0  0  0  0  0  0  0  0  0  0  0  0
    3.3051   -4.8755    2.6719 C   0  0  0  0  0  0  0  0  0  0  0  0
    2.5177   -4.9739    1.4990 C   0  0  0  0  0  0  0  0  0  0  0  0
    1.7089   -6.0543    1.5042 C   0  0  0  0  0  0  0  0  0  0  0  0
    1.8421   -7.0019    2.5052 O   0  0  0  0  0  0  0  0  0  0  0  0
    3.0722   -7.1143    3.1784 C   0  0  0  0  0  0  0  0  0  0  0  0
    3.3508   -8.0727    3.8968 O   0  0  0  0  0  0  0  0  0  0  0  0
    4.0239   -5.9722    2.9532 C   0  0  0  0  0  0  0  0  0  0  0  0
    5.0865   -6.4112    1.9124 C   0  0  0  0  0  0  0  0  0  0  0  0
    5.1753   -5.6301    0.5316 C   0  0  1  0  0  0  0  0  0  0  0  0
    3.9162   -5.4782   -0.1242 O   0  0  0  0  0  0  0  0  0  0  0  0
    3.0909   -4.4059    0.2323 C   0  0  1  0  0  0  0  0  0  0  0  0
    2.0579   -4.3036   -0.7190 O   0  0  0  0  0  0  0  0  0  0  0  0
    3.9833   -3.0459    0.2904 C   0  0  2  0  0  0  0  0  0  0  0  0
    3.4158   -1.8664   -0.5446 C   0  0  0  0  0  0  0  0  0  0  0  0
    4.6065   -1.0068   -0.9989 C   0  0  0  0  0  0  0  0  0  0  0  0
    5.8543   -1.8806   -0.8462 C   0  0  1  0  0  0  0  0  0  0  0  0
    6.7012   -1.2534    0.0852 O   0  0  0  0  0  0  0  0  0  0  0  0
    5.2811   -3.3069   -0.5474 C   0  0  2  0  0  0  0  0  0  0  0  0
    5.0951   -3.8328   -2.0188 C   0  0  0  0  0  0  0  0  0  0  0  0
    6.0751   -4.3637    0.2775 C   0  0  1  0  0  0  0  0  0  0  0  0
    6.6774   -3.7836    1.5366 C   0  0  0  0  0  0  0  0  0  0  0  0
    5.6905   -2.9993    2.4027 C   0  0  0  0  0  0  0  0  0  0  0  0
    4.3459   -2.5023    1.7769 C   0  0  2  0  0  0  0  0  0  0  0  0
    1.1724   -1.7779    3.2046 H   0  0  0  0  0  0  0  0  0  0  0  0
    1.4897   -2.4172    1.6069 H   0  0  0  0  0  0  0  0  0  0  0  0
    2.0248   -0.7981    2.0364 H   0  0  0  0  0  0  0  0  0  0  0  0
    4.6266   -1.7077    4.5231 H   0  0  0  0  0  0  0  0  0  0  0  0
    2.9606   -1.2458    4.7718 H   0  0  0  0  0  0  0  0  0  0  0  0
    3.9319   -0.3941    3.5872 H   0  0  0  0  0  0  0  0  0  0  0  0
    3.6626   -3.8690    4.4923 H   0  0  0  0  0  0  0  0  0  0  0  0
    1.9943   -3.8407    3.9936 H   0  0  0  0  0  0  0  0  0  0  0  0
    1.2063   -6.4420    0.6285 H   0  0  0  0  0  0  0  0  0  0  0  0
    6.0521   -6.3971    2.4126 H   0  0  0  0  0  0  0  0  0  0  0  0
    4.9597   -7.4708    1.6670 H   0  0  0  0  0  0  0  0  0  0  0  0
    5.6381   -6.3681   -0.1104 H   0  0  0  0  0  0  0  0  0  0  0  0
    2.3893   -4.7023   -1.5219 H   0  0  0  0  0  0  0  0  0  0  0  0
    2.8917   -2.1879   -1.4487 H   0  0  0  0  0  0  0  0  0  0  0  0
    2.7067   -1.2540    0.0094 H   0  0  0  0  0  0  0  0  0  0  0  0
    4.4785   -0.6818   -2.0332 H   0  0  0  0  0  0  0  0  0  0  0  0
    4.6648   -0.0982   -0.3990 H   0  0  0  0  0  0  0  0  0  0  0  0
    6.4369   -1.8710   -1.7664 H   0  0  0  0  0  0  0  0  0  0  0  0
    6.2482   -1.2165    0.9153 H   0  0  0  0  0  0  0  0  0  0  0  0
    6.0608   -3.9023   -2.5189 H   0  0  0  0  0  0  0  0  0  0  0  0
    4.4807   -3.1861   -2.6423 H   0  0  0  0  0  0  0  0  0  0  0  0
    4.6751   -4.8253   -2.1218 H   0  0  0  0  0  0  0  0  0  0  0  0
    6.9289   -4.6821   -0.3196 H   0  0  0  0  0  0  0  0  0  0  0  0
    7.1385   -4.5757    2.1199 H   0  0  0  0  0  0  0  0  0  0  0  0
    7.5335   -3.1660    1.2721 H   0  0  0  0  0  0  0  0  0  0  0  0
    5.5205   -3.6098    3.2852 H   0  0  0  0  0  0  0  0  0  0  0  0
    6.2106   -2.1349    2.8085 H   0  0  0  0  0  0  0  0  0  0  0  0
    4.5607   -1.4496    1.5928 H   0  0  0  0  0  0  0  0  0  0  0  0
  1  2  1  0
  1 28  1  0
  1 29  1  0
  1 30  1  0
  2 27  1  0
  2  3  1  0
  2  4  1  0
  3 31  1  0
  3 32  1  0
  3 33  1  0
  4  5  1  0
  4 34  1  0
  4 35  1  0
  5 11  2  0
  5  6  1  0
  6 15  1  0
  6  7  2  0
  7  8  1  0
  7 36  1  0
  8  9  1  0
  9 10  2  0
  9 11  1  0
 11 12  1  0
 12 13  1  0
 12 37  1  0
 12 38  1  0
 13 24  1  0
 13 14  1  0
 13 39  1  6
 14 15  1  0
 15 16  1  6
 15 17  1  0
 16 40  1  0
 17 22  1  0
 17 27  1  0
 17 18  1  6
 18 19  1  0
 18 41  1  0
 18 42  1  0
 19 20  1  0
 19 43  1  0
 19 44  1  0
 20 21  1  0
 20 22  1  0
 20 45  1  6
 21 46  1  0
 22 23  1  6
 22 24  1  0
 23 47  1  0
 23 48  1  0
 23 49  1  0
 24 25  1  0
 24 50  1  6
 25 26  1  0
 25 51  1  0
 25 52  1  0
 26 27  1  0
 26 53  1  0
 26 54  1  0
 27 55  1  6
M  END
>  <i_m_ct_stereo_status>  (299) 
1

>  <s_m_source_file>  (299) 
/var/tmp/pbs.5076255.sched01/tmp2672eyar/80wl2hclo4.sdf

>  <i_m_source_file_index>  (299) 
35

>  <i_lp_mmshare_version>  (299) 
48012

>  <i_f3d_flags>  (299) 
0

>  <s_epik_input>  (299) 
W0NIM11DKFtDSDNdKShbQ0gyXTEpW0NASF0yW0NIMl1bQ0gyXVtDQEhdKFtDQF0zKFtDSDNdKVtDQEhdKFtPSF0pW0NIMl1bQ0gyXTQpW0NASF0oTzUpW0NIMl1jKGMoPU8pb1tjSF02KWMxYzZbQ0BdNShbQ0BAXTIzNClbT0hd

>  <s_epik_cmdline>  (299) 
J2VwaWtfcHl0aG9uJywgJy1waHQnLCAnMi4wJywgJy1waCcsICc3LjAnLCAnLXRuJywgJzgnLCAnLW1hJywgJzIwMCcsICctaW1hZScsICc8aW5maWxlLm1hZT4nLCAnLW9tYWUnLCAnPG91dGZpbGUubWFlPic=

>  <r_lp_tautomer_probability>  (299) 
1

>  <r_epik_Ionization_Penalty>  (299) 
2.52865e-06

>  <r_epik_Ionization_Penalty_Charging>  (299) 
0

>  <r_epik_Ionization_Penalty_Neutral>  (299) 
2.52865e-06

>  <r_epik_State_Penalty>  (299) 
-0

>  <r_epik_Charging_Adjusted_Penalty>  (299) 
0

>  <i_epik_Tot_Q>  (299) 
0

>  <i_epik_Tot_abs_Q>  (299) 
0

>  <s_lp_Force_Field>  (299) 
OPLS3e

>  <r_lp_Energy>  (299) 
180.695

>  <b_lp_Chiralities_Consistent>  (299) 
1

>  <s_lp_Variant>  (299) 
84:0-1

>  <s_i_glide_gridfile>  (299) 
pfpi4k_grid

>  <i_i_glide_lignum>  (299) 
35

>  <i_i_glide_rotatable_bonds>  (299) 
2

>  <r_i_docking_score>  (299) 
-2.94354

>  <r_i_glide_ligand_efficiency>  (299) 
-0.10902

>  <r_i_glide_ligand_efficiency_sa>  (299) 
-0.32706

>  <r_i_glide_ligand_efficiency_ln>  (299) 
-0.685208

>  <r_i_glide_gscore>  (299) 
-2.94354

>  <r_i_glide_lipo>  (299) 
-0.387107

>  <r_i_glide_hbond>  (299) 
-0.0614289

>  <r_i_glide_metal>  (299) 
-0

>  <r_i_glide_rewards>  (299) 
-0.869627

>  <r_i_glide_evdw>  (299) 
-20.0583

>  <r_i_glide_ecoul>  (299) 
-4.01542

>  <r_i_glide_erotb>  (299) 
0

>  <r_i_glide_esite>  (299) 
-0.0201564

>  <r_i_glide_emodel>  (299) 
-27.7378

>  <r_i_glide_energy>  (299) 
-24.0737

>  <r_i_glide_einternal>  (299) 
0.94011

>  <r_i_glide_intrahb_reward>  (299) 
-0

>  <i_i_glide_confnum>  (299) 
1

>  <i_i_glide_posenum>  (299) 
16

>  <r_i_glide_eff_state_penalty>  (299) 
0

>  <ligand_id>  (299) 
84

>  <original_smiles>  (299) 
CC1(C)Cc2c3coc(=O)c2CC2OC3(O)C34CCC(O)C3(C)C2CCC14

>  <smiles>  (299) 
[H]OC12OC3([H])C([H])([H])c4c(c1c([H])oc4=O)C([H])([H])C(C([H])([H])[H])(C([H])([H])[H])C1([H])C([H])([H])C([H])([H])C3([H])C3(C([H])([H])[H])C([H])(O[H])C([H])([H])C([H])([H])C213

$$$$
86:0:0
     RDKit          3D

 64 67  0  0  1  0  0  0  0  0999 V2000
    1.8073   -3.3629    5.0112 C   0  0  0  0  0  0  0  0  0  0  0  0
    0.6302   -4.0468    4.3093 C   0  0  0  0  0  0  0  0  0  0  0  0
    0.9750   -5.3199    3.7581 O   0  0  0  0  0  0  0  0  0  0  0  0
    1.1771   -6.4106    4.6617 C   0  0  2  0  0  0  0  0  0  0  0  0
    2.5362   -6.2769    5.3892 C   0  0  0  0  0  0  0  0  0  0  0  0
    3.4284   -7.3987    4.9064 C   0  0  2  0  0  0  0  0  0  0  0  0
    4.4495   -6.9063    3.8467 C   0  0  2  0  0  0  0  0  0  0  0  0
    3.9172   -6.0097    2.6914 C   0  0  0  0  0  0  0  0  0  0  0  0
    4.9641   -5.6888    1.6493 C   0  0  0  0  0  0  0  0  0  0  0  0
    6.1354   -6.3539    1.5401 C   0  0  0  0  0  0  0  0  0  0  0  0
    7.2632   -5.7880    0.6979 C   0  0  0  0  0  0  0  0  0  0  0  0
    8.3565   -5.2973    1.6428 C   0  0  0  0  0  0  0  0  0  0  0  0
    9.1254   -4.3951    1.2535 O   0  0  0  0  0  0  0  0  0  0  0  0
    8.4696   -5.8990    2.9807 C   0  0  0  0  0  0  0  0  0  0  0  0
    7.6268   -6.9206    3.3606 C   0  0  0  0  0  0  0  0  0  0  0  0
    6.5337   -7.5046    2.4563 C   0  0  2  0  0  0  0  0  0  0  0  0
    7.2257   -8.6207    1.6527 C   0  0  0  0  0  0  0  0  0  0  0  0
    5.2903   -8.0730    3.2819 C   0  0  1  0  0  0  0  0  0  0  0  0
    5.7946   -8.7409    4.3282 F   0  0  0  0  0  0  0  0  0  0  0  0
    4.2673   -9.0285    2.5679 C   0  0  1  0  0  0  0  0  0  0  0  0
    4.8794  -10.2076    2.0634 O   0  0  0  0  0  0  0  0  0  0  0  0
    3.1475   -9.5369    3.5251 C   0  0  0  0  0  0  0  0  0  0  0  0
    2.4517   -8.5106    4.4878 C   0  0  1  0  0  0  0  0  0  0  0  0
    2.0259   -9.2862    5.7738 C   0  0  0  0  0  0  0  0  0  0  0  0
    1.2057   -7.7510    3.8931 C   0  0  1  0  0  0  0  0  0  0  0  0
   -0.2007   -8.4589    3.8764 C   0  0  2  0  0  0  0  0  0  0  0  0
   -0.2207   -9.8020    3.1151 C   0  0  0  0  0  0  0  0  0  0  0  0
   -1.3282   -7.5472    3.3376 C   0  0  0  0  0  0  0  0  0  0  0  0
   -1.0207   -6.9971    2.0720 O   0  0  0  0  0  0  0  0  0  0  0  0
    1.5956   -2.3171    5.2604 H   0  0  0  0  0  0  0  0  0  0  0  0
    2.6744   -3.3479    4.3615 H   0  0  0  0  0  0  0  0  0  0  0  0
    2.0870   -3.8924    5.8981 H   0  0  0  0  0  0  0  0  0  0  0  0
   -0.2146   -4.1452    4.9819 H   0  0  0  0  0  0  0  0  0  0  0  0
    0.2975   -3.4320    3.4842 H   0  0  0  0  0  0  0  0  0  0  0  0
    0.3747   -6.4150    5.3966 H   0  0  0  0  0  0  0  0  0  0  0  0
    3.0590   -5.3608    5.2556 H   0  0  0  0  0  0  0  0  0  0  0  0
    2.3707   -6.3823    6.4601 H   0  0  0  0  0  0  0  0  0  0  0  0
    3.9997   -7.7671    5.7487 H   0  0  0  0  0  0  0  0  0  0  0  0
    5.1403   -6.2730    4.4029 H   0  0  0  0  0  0  0  0  0  0  0  0
    3.0698   -6.4348    2.1693 H   0  0  0  0  0  0  0  0  0  0  0  0
    3.5983   -5.0497    3.0790 H   0  0  0  0  0  0  0  0  0  0  0  0
    4.7707   -4.8356    1.0214 H   0  0  0  0  0  0  0  0  0  0  0  0
    7.6953   -6.5447    0.0451 H   0  0  0  0  0  0  0  0  0  0  0  0
    6.9205   -4.9608    0.0791 H   0  0  0  0  0  0  0  0  0  0  0  0
    9.2143   -5.5252    3.6584 H   0  0  0  0  0  0  0  0  0  0  0  0
    7.7426   -7.3444    4.3416 H   0  0  0  0  0  0  0  0  0  0  0  0
    8.1904   -8.2836    1.2689 H   0  0  0  0  0  0  0  0  0  0  0  0
    6.6347   -8.9573    0.7980 H   0  0  0  0  0  0  0  0  0  0  0  0
    7.3981   -9.4878    2.2945 H   0  0  0  0  0  0  0  0  0  0  0  0
    3.8165   -8.4994    1.7199 H   0  0  0  0  0  0  0  0  0  0  0  0
    4.2715  -10.7237    1.5581 H   0  0  0  0  0  0  0  0  0  0  0  0
    2.4116  -10.0638    2.9130 H   0  0  0  0  0  0  0  0  0  0  0  0
    3.6068  -10.3137    4.1640 H   0  0  0  0  0  0  0  0  0  0  0  0
    1.3903  -10.1634    5.5741 H   0  0  0  0  0  0  0  0  0  0  0  0
    1.4869   -8.6442    6.4765 H   0  0  0  0  0  0  0  0  0  0  0  0
    2.9098   -9.6573    6.3033 H   0  0  0  0  0  0  0  0  0  0  0  0
    1.4310   -7.5477    2.8532 H   0  0  0  0  0  0  0  0  0  0  0  0
   -0.4959   -8.6980    4.8991 H   0  0  0  0  0  0  0  0  0  0  0  0
    0.1413   -9.6936    2.0918 H   0  0  0  0  0  0  0  0  0  0  0  0
   -1.2313  -10.2163    3.0716 H   0  0  0  0  0  0  0  0  0  0  0  0
    0.3869  -10.5553    3.6164 H   0  0  0  0  0  0  0  0  0  0  0  0
   -2.2578   -8.0926    3.2289 H   0  0  0  0  0  0  0  0  0  0  0  0
   -1.5346   -6.7265    4.0231 H   0  0  0  0  0  0  0  0  0  0  0  0
   -0.7629   -7.7072    1.4923 H   0  0  0  0  0  0  0  0  0  0  0  0
  1  2  1  0
  1 30  1  0
  1 31  1  0
  1 32  1  0
  2  3  1  0
  2 33  1  0
  2 34  1  0
  3  4  1  0
  4 25  1  0
  4  5  1  0
  4 35  1  1
  5  6  1  0
  5 36  1  0
  5 37  1  0
  6 23  1  0
  6  7  1  0
  6 38  1  1
  7 18  1  0
  7  8  1  0
  7 39  1  1
  8  9  1  0
  8 40  1  0
  8 41  1  0
  9 10  2  0
  9 42  1  0
 10 16  1  0
 10 11  1  0
 11 12  1  0
 11 43  1  0
 11 44  1  0
 12 13  2  0
 12 14  1  0
 14 15  2  0
 14 45  1  0
 15 16  1  0
 15 46  1  0
 16 17  1  6
 16 18  1  0
 17 47  1  0
 17 48  1  0
 17 49  1  0
 18 19  1  1
 18 20  1  0
 20 21  1  0
 20 22  1  0
 20 50  1  6
 21 51  1  0
 22 23  1  0
 22 52  1  0
 22 53  1  0
 23 24  1  1
 23 25  1  0
 24 54  1  0
 24 55  1  0
 24 56  1  0
 25 26  1  0
 25 57  1  6
 26 27  1  0
 26 28  1  0
 26 58  1  1
 27 59  1  0
 27 60  1  0
 27 61  1  0
 28 29  1  0
 28 62  1  0
 28 63  1  0
 29 64  1  0
M  END
>  <i_m_ct_stereo_status>  (300) 
1

>  <s_m_source_file>  (300) 
/var/tmp/pbs.5076255.sched01/tmp2672eyar/80wl2hclo4.sdf

>  <i_m_source_file_index>  (300) 
38

>  <i_lp_mmshare_version>  (300) 
48012

>  <i_f3d_flags>  (300) 
0

>  <s_epik_input>  (300) 
W0NIM11bQ0gyXU9bQ0BIXShbQ0gyXTEpW0NASF0oW0NASF0oW0NIM10pW0NIMl1bT0hdKVtDQEBdKFtDSDNdKShbQ0gyXVtDQEBIXShbQ0BdMjNGKVtPSF0pW0NASF0xW0NAQEhdMltDSDJdW0NIXT1DKFtDQF0zNFtDSDNdKVtDSDJdQyg9TylbQ0hdPVtDSF00

>  <s_epik_cmdline>  (300) 
J2VwaWtfcHl0aG9uJywgJy1waHQnLCAnMi4wJywgJy1waCcsICc3LjAnLCAnLXRuJywgJzgnLCAnLW1hJywgJzIwMCcsICctaW1hZScsICc8aW5maWxlLm1hZT4nLCAnLW9tYWUnLCAnPG91dGZpbGUubWFlPic=

>  <r_lp_tautomer_probability>  (300) 
1

>  <r_epik_Ionization_Penalty>  (300) 
9.74823e-07

>  <r_epik_Ionization_Penalty_Charging>  (300) 
0

>  <r_epik_Ionization_Penalty_Neutral>  (300) 
9.74823e-07

>  <r_epik_State_Penalty>  (300) 
-0

>  <r_epik_Charging_Adjusted_Penalty>  (300) 
0

>  <i_epik_Tot_Q>  (300) 
0

>  <i_epik_Tot_abs_Q>  (300) 
0

>  <s_lp_Force_Field>  (300) 
OPLS3e

>  <r_lp_Energy>  (300) 
60.3828

>  <b_lp_Chiralities_Consistent>  (300) 
1

>  <s_lp_Variant>  (300) 
86:0-1

>  <s_i_glide_gridfile>  (300) 
pfpi4k_grid

>  <i_i_glide_lignum>  (300) 
38

>  <i_i_glide_rotatable_bonds>  (300) 
6

>  <r_i_docking_score>  (300) 
-3.00927

>  <r_i_glide_ligand_efficiency>  (300) 
-0.103768

>  <r_i_glide_ligand_efficiency_sa>  (300) 
-0.318808

>  <r_i_glide_ligand_efficiency_ln>  (300) 
-0.689047

>  <r_i_glide_gscore>  (300) 
-3.00927

>  <r_i_glide_lipo>  (300) 
-0.320842

>  <r_i_glide_hbond>  (300) 
-0.145813

>  <r_i_glide_metal>  (300) 
-0

>  <r_i_glide_rewards>  (300) 
-0.680036

>  <r_i_glide_evdw>  (300) 
-18.7466

>  <r_i_glide_ecoul>  (300) 
-8.54784

>  <r_i_glide_erotb>  (300) 
0.356934

>  <r_i_glide_esite>  (300) 
-1.22727e-05

>  <r_i_glide_emodel>  (300) 
-31.0144

>  <r_i_glide_energy>  (300) 
-27.2944

>  <r_i_glide_einternal>  (300) 
2.62246

>  <r_i_glide_intrahb_reward>  (300) 
-0

>  <i_i_glide_confnum>  (300) 
3

>  <i_i_glide_posenum>  (300) 
1

>  <r_i_glide_eff_state_penalty>  (300) 
0

>  <ligand_id>  (300) 
86

>  <original_smiles>  (300) 
CCOC1CC2C3CC=C4CC(=O)C=CC4(C)C3(F)C(O)CC2(C)C1C(C)CO

>  <smiles>  (300) 
[H]OC([H])([H])C([H])(C([H])([H])[H])C1([H])C([H])(OC([H])([H])C([H])([H])[H])C([H])([H])C2([H])C3([H])C([H])([H])C([H])=C4C([H])([H])C(=O)C([H])=C([H])C4(C([H])([H])[H])C3(F)C([H])(O[H])C([H])([H])C21C([H])([H])[H]

$$$$
86:0:1
     RDKit          3D

 64 67  0  0  1  0  0  0  0  0999 V2000
    4.7493   -6.7829    2.1456 C   0  0  0  0  0  0  0  0  0  0  0  0
    4.3054   -6.4046    0.7275 C   0  0  0  0  0  0  0  0  0  0  0  0
    3.9252   -5.0345    0.6063 O   0  0  0  0  0  0  0  0  0  0  0  0
    4.9579   -4.0594    0.7377 C   0  0  2  0  0  0  0  0  0  0  0  0
    5.3380   -3.8395    2.2139 C   0  0  0  0  0  0  0  0  0  0  0  0
    4.8773   -2.4615    2.6100 C   0  0  2  0  0  0  0  0  0  0  0  0
    3.5425   -2.4673    3.4102 C   0  0  2  0  0  0  0  0  0  0  0  0
    2.3924   -3.3477    2.8479 C   0  0  0  0  0  0  0  0  0  0  0  0
    1.1131   -3.1921    3.6229 C   0  0  0  0  0  0  0  0  0  0  0  0
    0.8554   -2.1814    4.4775 C   0  0  0  0  0  0  0  0  0  0  0  0
   -0.3142   -2.2568    5.4362 C   0  0  0  0  0  0  0  0  0  0  0  0
    0.2384   -2.5036    6.8482 C   0  0  0  0  0  0  0  0  0  0  0  0
   -0.4790   -3.0513    7.6871 O   0  0  0  0  0  0  0  0  0  0  0  0
    1.6221   -2.0612    7.1423 C   0  0  0  0  0  0  0  0  0  0  0  0
    2.3605   -1.4030    6.2010 C   0  0  0  0  0  0  0  0  0  0  0  0
    1.8689   -1.0707    4.7802 C   0  0  2  0  0  0  0  0  0  0  0  0
    1.1536    0.3010    4.8961 C   0  0  0  0  0  0  0  0  0  0  0  0
    3.0448   -1.0398    3.7110 C   0  0  1  0  0  0  0  0  0  0  0  0
    4.0567   -0.3674    4.2653 F   0  0  0  0  0  0  0  0  0  0  0  0
    2.7809   -0.3914    2.3045 C   0  0  1  0  0  0  0  0  0  0  0  0
    2.3826    0.9611    2.3993 O   0  0  0  0  0  0  0  0  0  0  0  0
    4.0442   -0.3607    1.3960 C   0  0  0  0  0  0  0  0  0  0  0  0
    4.9178   -1.6528    1.2891 C   0  0  1  0  0  0  0  0  0  0  0  0
    6.3970   -1.2162    1.0504 C   0  0  0  0  0  0  0  0  0  0  0  0
    4.4798   -2.6781    0.1860 C   0  0  1  0  0  0  0  0  0  0  0  0
    4.9408   -2.4354   -1.3011 C   0  0  2  0  0  0  0  0  0  0  0  0
    4.5991   -1.0473   -1.8757 C   0  0  0  0  0  0  0  0  0  0  0  0
    4.3817   -3.5002   -2.2640 C   0  0  0  0  0  0  0  0  0  0  0  0
    3.0063   -3.3125   -2.4367 O   0  0  0  0  0  0  0  0  0  0  0  0
    4.9029   -7.8422    2.2779 H   0  0  0  0  0  0  0  0  0  0  0  0
    3.9945   -6.4815    2.8708 H   0  0  0  0  0  0  0  0  0  0  0  0
    5.6608   -6.2449    2.4160 H   0  0  0  0  0  0  0  0  0  0  0  0
    5.0694   -6.6589   -0.0064 H   0  0  0  0  0  0  0  0  0  0  0  0
    3.4264   -6.9968    0.4689 H   0  0  0  0  0  0  0  0  0  0  0  0
    5.8415   -4.3907    0.1895 H   0  0  0  0  0  0  0  0  0  0  0  0
    4.9306   -4.5589    2.9080 H   0  0  0  0  0  0  0  0  0  0  0  0
    6.4178   -3.8997    2.3143 H   0  0  0  0  0  0  0  0  0  0  0  0
    5.6241   -2.0206    3.2725 H   0  0  0  0  0  0  0  0  0  0  0  0
    3.8012   -2.9119    4.3654 H   0  0  0  0  0  0  0  0  0  0  0  0
    2.1639   -3.1457    1.8069 H   0  0  0  0  0  0  0  0  0  0  0  0
    2.6588   -4.3979    2.9116 H   0  0  0  0  0  0  0  0  0  0  0  0
    0.3862   -3.9883    3.5152 H   0  0  0  0  0  0  0  0  0  0  0  0
   -0.9042   -1.3436    5.4293 H   0  0  0  0  0  0  0  0  0  0  0  0
   -0.9756   -3.0780    5.1710 H   0  0  0  0  0  0  0  0  0  0  0  0
    2.0298   -2.2584    8.1199 H   0  0  0  0  0  0  0  0  0  0  0  0
    3.3600   -1.0679    6.4529 H   0  0  0  0  0  0  0  0  0  0  0  0
    0.5019    0.3598    5.7686 H   0  0  0  0  0  0  0  0  0  0  0  0
    0.5359    0.5135    4.0218 H   0  0  0  0  0  0  0  0  0  0  0  0
    1.8878    1.1004    5.0044 H   0  0  0  0  0  0  0  0  0  0  0  0
    1.9708   -0.9199    1.7983 H   0  0  0  0  0  0  0  0  0  0  0  0
    2.0241    1.2242    1.5608 H   0  0  0  0  0  0  0  0  0  0  0  0
    3.7307   -0.0243    0.4045 H   0  0  0  0  0  0  0  0  0  0  0  0
    4.6887    0.4360    1.7776 H   0  0  0  0  0  0  0  0  0  0  0  0
    6.5355   -0.5578    0.1892 H   0  0  0  0  0  0  0  0  0  0  0  0
    7.0585   -2.0748    0.9190 H   0  0  0  0  0  0  0  0  0  0  0  0
    6.7640   -0.6734    1.9203 H   0  0  0  0  0  0  0  0  0  0  0  0
    3.3884   -2.6894    0.1517 H   0  0  0  0  0  0  0  0  0  0  0  0
    6.0184   -2.5663   -1.3614 H   0  0  0  0  0  0  0  0  0  0  0  0
    3.5302   -0.8406   -1.7792 H   0  0  0  0  0  0  0  0  0  0  0  0
    4.8535   -0.9842   -2.9354 H   0  0  0  0  0  0  0  0  0  0  0  0
    5.1347   -0.2518   -1.3667 H   0  0  0  0  0  0  0  0  0  0  0  0
    4.8182   -3.4484   -3.2538 H   0  0  0  0  0  0  0  0  0  0  0  0
    4.5483   -4.5070   -1.9152 H   0  0  0  0  0  0  0  0  0  0  0  0
    2.5779   -4.1378   -2.6456 H   0  0  0  0  0  0  0  0  0  0  0  0
  1  2  1  0
  1 30  1  0
  1 31  1  0
  1 32  1  0
  2  3  1  0
  2 33  1  0
  2 34  1  0
  3  4  1  0
  4 25  1  0
  4  5  1  0
  4 35  1  6
  5  6  1  0
  5 36  1  0
  5 37  1  0
  6 23  1  0
  6  7  1  0
  6 38  1  1
  7 18  1  0
  7  8  1  0
  7 39  1  1
  8  9  1  0
  8 40  1  0
  8 41  1  0
  9 10  2  0
  9 42  1  0
 10 16  1  0
 10 11  1  0
 11 12  1  0
 11 43  1  0
 11 44  1  0
 12 13  2  0
 12 14  1  0
 14 15  2  0
 14 45  1  0
 15 16  1  0
 15 46  1  0
 16 17  1  1
 16 18  1  0
 17 47  1  0
 17 48  1  0
 17 49  1  0
 18 19  1  1
 18 20  1  0
 20 21  1  0
 20 22  1  0
 20 50  1  6
 21 51  1  0
 22 23  1  0
 22 52  1  0
 22 53  1  0
 23 24  1  6
 23 25  1  0
 24 54  1  0
 24 55  1  0
 24 56  1  0
 25 26  1  0
 25 57  1  6
 26 27  1  0
 26 28  1  0
 26 58  1  1
 27 59  1  0
 27 60  1  0
 27 61  1  0
 28 29  1  0
 28 62  1  0
 28 63  1  0
 29 64  1  0
M  END
>  <i_m_ct_stereo_status>  (301) 
1

>  <s_m_source_file>  (301) 
/var/tmp/pbs.5076255.sched01/tmp2672eyar/80wl2hclo4.sdf

>  <i_m_source_file_index>  (301) 
38

>  <i_lp_mmshare_version>  (301) 
48012

>  <i_f3d_flags>  (301) 
0

>  <s_epik_input>  (301) 
W0NIM11bQ0gyXU9bQ0BIXShbQ0gyXTEpW0NASF0oW0NASF0oW0NIM10pW0NIMl1bT0hdKVtDQEBdKFtDSDNdKShbQ0gyXVtDQEBIXShbQ0BdMjNGKVtPSF0pW0NASF0xW0NAQEhdMltDSDJdW0NIXT1DKFtDQF0zNFtDSDNdKVtDSDJdQyg9TylbQ0hdPVtDSF00

>  <s_epik_cmdline>  (301) 
J2VwaWtfcHl0aG9uJywgJy1waHQnLCAnMi4wJywgJy1waCcsICc3LjAnLCAnLXRuJywgJzgnLCAnLW1hJywgJzIwMCcsICctaW1hZScsICc8aW5maWxlLm1hZT4nLCAnLW9tYWUnLCAnPG91dGZpbGUubWFlPic=

>  <r_lp_tautomer_probability>  (301) 
1

>  <r_epik_Ionization_Penalty>  (301) 
9.74823e-07

>  <r_epik_Ionization_Penalty_Charging>  (301) 
0

>  <r_epik_Ionization_Penalty_Neutral>  (301) 
9.74823e-07

>  <r_epik_State_Penalty>  (301) 
-0

>  <r_epik_Charging_Adjusted_Penalty>  (301) 
0

>  <i_epik_Tot_Q>  (301) 
0

>  <i_epik_Tot_abs_Q>  (301) 
0

>  <s_lp_Force_Field>  (301) 
OPLS3e

>  <r_lp_Energy>  (301) 
60.3828

>  <b_lp_Chiralities_Consistent>  (301) 
1

>  <s_lp_Variant>  (301) 
86:0-1

>  <s_i_glide_gridfile>  (301) 
pfpi4k_grid

>  <i_i_glide_lignum>  (301) 
38

>  <i_i_glide_rotatable_bonds>  (301) 
6

>  <r_i_docking_score>  (301) 
-2.87818

>  <r_i_glide_ligand_efficiency>  (301) 
-0.0992477

>  <r_i_glide_ligand_efficiency_sa>  (301) 
-0.30492

>  <r_i_glide_ligand_efficiency_ln>  (301) 
-0.659031

>  <r_i_glide_gscore>  (301) 
-2.87818

>  <r_i_glide_lipo>  (301) 
-0.565518

>  <r_i_glide_hbond>  (301) 
-0.314718

>  <r_i_glide_metal>  (301) 
-0

>  <r_i_glide_rewards>  (301) 
-0.641536

>  <r_i_glide_evdw>  (301) 
-21.5894

>  <r_i_glide_ecoul>  (301) 
-4.04809

>  <r_i_glide_erotb>  (301) 
0.356934

>  <r_i_glide_esite>  (301) 
-0.0266614

>  <r_i_glide_emodel>  (301) 
-28.4502

>  <r_i_glide_energy>  (301) 
-25.6375

>  <r_i_glide_einternal>  (301) 
3.05535

>  <r_i_glide_intrahb_reward>  (301) 
-0

>  <i_i_glide_confnum>  (301) 
3

>  <i_i_glide_posenum>  (301) 
4

>  <r_i_glide_eff_state_penalty>  (301) 
0

>  <ligand_id>  (301) 
86

>  <original_smiles>  (301) 
CCOC1CC2C3CC=C4CC(=O)C=CC4(C)C3(F)C(O)CC2(C)C1C(C)CO

>  <smiles>  (301) 
[H]OC([H])([H])C([H])(C([H])([H])[H])C1([H])C([H])(OC([H])([H])C([H])([H])[H])C([H])([H])C2([H])C3([H])C([H])([H])C([H])=C4C([H])([H])C(=O)C([H])=C([H])C4(C([H])([H])[H])C3(F)C([H])(O[H])C([H])([H])C21C([H])([H])[H]

$$$$
86:0:2
     RDKit          3D

 64 67  0  0  1  0  0  0  0  0999 V2000
    6.2427   -3.1095   -1.6857 C   0  0  0  0  0  0  0  0  0  0  0  0
    5.3116   -4.2268   -1.1754 C   0  0  0  0  0  0  0  0  0  0  0  0
    4.3441   -3.7529   -0.2509 O   0  0  0  0  0  0  0  0  0  0  0  0
    4.8285   -3.3390    1.0202 C   0  0  2  0  0  0  0  0  0  0  0  0
    5.1618   -4.5479    1.8955 C   0  0  0  0  0  0  0  0  0  0  0  0
    4.1477   -4.5373    3.0357 C   0  0  2  0  0  0  0  0  0  0  0  0
    3.0109   -5.5870    2.8431 C   0  0  2  0  0  0  0  0  0  0  0  0
    2.3477   -5.6268    1.4324 C   0  0  0  0  0  0  0  0  0  0  0  0
    1.1637   -6.5663    1.3779 C   0  0  0  0  0  0  0  0  0  0  0  0
    0.5487   -7.0722    2.4592 C   0  0  0  0  0  0  0  0  0  0  0  0
   -0.4031   -8.2534    2.3409 C   0  0  0  0  0  0  0  0  0  0  0  0
    0.3207   -9.4813    2.9127 C   0  0  0  0  0  0  0  0  0  0  0  0
    0.0438  -10.5980    2.4846 O   0  0  0  0  0  0  0  0  0  0  0  0
    1.3452   -9.2630    3.9564 C   0  0  0  0  0  0  0  0  0  0  0  0
    1.6427   -8.0146    4.4050 C   0  0  0  0  0  0  0  0  0  0  0  0
    0.9681   -6.7307    3.9024 C   0  0  2  0  0  0  0  0  0  0  0  0
   -0.2733   -6.5505    4.8085 C   0  0  0  0  0  0  0  0  0  0  0  0
    1.9443   -5.4782    3.9549 C   0  0  1  0  0  0  0  0  0  0  0  0
    2.5666   -5.5064    5.1349 F   0  0  0  0  0  0  0  0  0  0  0  0
    1.3332   -4.0430    3.8330 C   0  0  1  0  0  0  0  0  0  0  0  0
    0.3843   -3.7481    4.8355 O   0  0  0  0  0  0  0  0  0  0  0  0
    2.3848   -2.9166    3.9676 C   0  0  0  0  0  0  0  0  0  0  0  0
    3.7251   -3.0465    3.1878 C   0  0  1  0  0  0  0  0  0  0  0  0
    4.8181   -2.3275    4.0296 C   0  0  0  0  0  0  0  0  0  0  0  0
    3.7348   -2.4922    1.7230 C   0  0  1  0  0  0  0  0  0  0  0  0
    3.9412   -0.9507    1.4740 C   0  0  2  0  0  0  0  0  0  0  0  0
    2.7671   -0.0776    1.9511 C   0  0  0  0  0  0  0  0  0  0  0  0
    4.2687   -0.5866    0.0062 C   0  0  0  0  0  0  0  0  0  0  0  0
    3.4151   -1.1919   -0.9429 O   0  0  0  0  0  0  0  0  0  0  0  0
    6.9354   -3.4757   -2.4429 H   0  0  0  0  0  0  0  0  0  0  0  0
    6.8439   -2.6673   -0.8899 H   0  0  0  0  0  0  0  0  0  0  0  0
    5.6646   -2.3134   -2.1533 H   0  0  0  0  0  0  0  0  0  0  0  0
    4.7654   -4.6384   -2.0226 H   0  0  0  0  0  0  0  0  0  0  0  0
    5.8664   -5.0548   -0.7406 H   0  0  0  0  0  0  0  0  0  0  0  0
    5.7346   -2.7447    0.9411 H   0  0  0  0  0  0  0  0  0  0  0  0
    5.1896   -5.4953    1.3578 H   0  0  0  0  0  0  0  0  0  0  0  0
    6.1633   -4.4006    2.2962 H   0  0  0  0  0  0  0  0  0  0  0  0
    4.6797   -4.8429    3.9384 H   0  0  0  0  0  0  0  0  0  0  0  0
    3.4993   -6.5547    2.9566 H   0  0  0  0  0  0  0  0  0  0  0  0
    1.9985   -4.6570    1.0925 H   0  0  0  0  0  0  0  0  0  0  0  0
    3.0690   -5.9763    0.6918 H   0  0  0  0  0  0  0  0  0  0  0  0
    0.8839   -6.9135    0.3930 H   0  0  0  0  0  0  0  0  0  0  0  0
   -1.3398   -8.0678    2.8661 H   0  0  0  0  0  0  0  0  0  0  0  0
   -0.6515   -8.4248    1.2962 H   0  0  0  0  0  0  0  0  0  0  0  0
    1.8459  -10.1340    4.3512 H   0  0  0  0  0  0  0  0  0  0  0  0
    2.3976   -7.9042    5.1717 H   0  0  0  0  0  0  0  0  0  0  0  0
   -0.8199   -7.4821    4.9527 H   0  0  0  0  0  0  0  0  0  0  0  0
   -0.9819   -5.8432    4.3874 H   0  0  0  0  0  0  0  0  0  0  0  0
    0.0176   -6.2090    5.8001 H   0  0  0  0  0  0  0  0  0  0  0  0
    0.8151   -3.9403    2.8817 H   0  0  0  0  0  0  0  0  0  0  0  0
    0.8343   -3.8165    5.6676 H   0  0  0  0  0  0  0  0  0  0  0  0
    1.8945   -1.9853    3.7082 H   0  0  0  0  0  0  0  0  0  0  0  0
    2.6280   -2.8232    5.0322 H   0  0  0  0  0  0  0  0  0  0  0  0
    4.5540   -1.2910    4.2400 H   0  0  0  0  0  0  0  0  0  0  0  0
    5.7893   -2.3273    3.5320 H   0  0  0  0  0  0  0  0  0  0  0  0
    4.9569   -2.8166    4.9944 H   0  0  0  0  0  0  0  0  0  0  0  0
    2.7721   -2.7305    1.2711 H   0  0  0  0  0  0  0  0  0  0  0  0
    4.8129   -0.6066    2.0293 H   0  0  0  0  0  0  0  0  0  0  0  0
    1.8255   -0.3945    1.4989 H   0  0  0  0  0  0  0  0  0  0  0  0
    2.9200    0.9697    1.6843 H   0  0  0  0  0  0  0  0  0  0  0  0
    2.6614   -0.0977    3.0354 H   0  0  0  0  0  0  0  0  0  0  0  0
    4.2500    0.4946   -0.1110 H   0  0  0  0  0  0  0  0  0  0  0  0
    5.2917   -0.8692   -0.2387 H   0  0  0  0  0  0  0  0  0  0  0  0
    2.4821   -1.0454   -0.7236 H   0  0  0  0  0  0  0  0  0  0  0  0
  1  2  1  0
  1 30  1  0
  1 31  1  0
  1 32  1  0
  2  3  1  0
  2 33  1  0
  2 34  1  0
  3  4  1  0
  4 25  1  0
  4  5  1  0
  4 35  1  6
  5  6  1  0
  5 36  1  0
  5 37  1  0
  6 23  1  0
  6  7  1  0
  6 38  1  1
  7 18  1  0
  7  8  1  0
  7 39  1  1
  8  9  1  0
  8 40  1  0
  8 41  1  0
  9 10  2  0
  9 42  1  0
 10 16  1  0
 10 11  1  0
 11 12  1  0
 11 43  1  0
 11 44  1  0
 12 13  2  0
 12 14  1  0
 14 15  2  0
 14 45  1  0
 15 16  1  0
 15 46  1  0
 16 17  1  1
 16 18  1  0
 17 47  1  0
 17 48  1  0
 17 49  1  0
 18 19  1  1
 18 20  1  0
 20 21  1  0
 20 22  1  0
 20 50  1  6
 21 51  1  0
 22 23  1  0
 22 52  1  0
 22 53  1  0
 23 24  1  1
 23 25  1  0
 24 54  1  0
 24 55  1  0
 24 56  1  0
 25 26  1  0
 25 57  1  6
 26 27  1  0
 26 28  1  0
 26 58  1  1
 27 59  1  0
 27 60  1  0
 27 61  1  0
 28 29  1  0
 28 62  1  0
 28 63  1  0
 29 64  1  0
M  END
>  <i_m_ct_stereo_status>  (302) 
1

>  <s_m_source_file>  (302) 
/var/tmp/pbs.5076255.sched01/tmp2672eyar/80wl2hclo4.sdf

>  <i_m_source_file_index>  (302) 
38

>  <i_lp_mmshare_version>  (302) 
48012

>  <i_f3d_flags>  (302) 
0

>  <s_epik_input>  (302) 
W0NIM11bQ0gyXU9bQ0BIXShbQ0gyXTEpW0NASF0oW0NASF0oW0NIM10pW0NIMl1bT0hdKVtDQEBdKFtDSDNdKShbQ0gyXVtDQEBIXShbQ0BdMjNGKVtPSF0pW0NASF0xW0NAQEhdMltDSDJdW0NIXT1DKFtDQF0zNFtDSDNdKVtDSDJdQyg9TylbQ0hdPVtDSF00

>  <s_epik_cmdline>  (302) 
J2VwaWtfcHl0aG9uJywgJy1waHQnLCAnMi4wJywgJy1waCcsICc3LjAnLCAnLXRuJywgJzgnLCAnLW1hJywgJzIwMCcsICctaW1hZScsICc8aW5maWxlLm1hZT4nLCAnLW9tYWUnLCAnPG91dGZpbGUubWFlPic=

>  <r_lp_tautomer_probability>  (302) 
1

>  <r_epik_Ionization_Penalty>  (302) 
9.74823e-07

>  <r_epik_Ionization_Penalty_Charging>  (302) 
0

>  <r_epik_Ionization_Penalty_Neutral>  (302) 
9.74823e-07

>  <r_epik_State_Penalty>  (302) 
-0

>  <r_epik_Charging_Adjusted_Penalty>  (302) 
0

>  <i_epik_Tot_Q>  (302) 
0

>  <i_epik_Tot_abs_Q>  (302) 
0

>  <s_lp_Force_Field>  (302) 
OPLS3e

>  <r_lp_Energy>  (302) 
60.3828

>  <b_lp_Chiralities_Consistent>  (302) 
1

>  <s_lp_Variant>  (302) 
86:0-1

>  <s_i_glide_gridfile>  (302) 
pfpi4k_grid

>  <i_i_glide_lignum>  (302) 
38

>  <i_i_glide_rotatable_bonds>  (302) 
6

>  <r_i_docking_score>  (302) 
-2.09817

>  <r_i_glide_ligand_efficiency>  (302) 
-0.0723507

>  <r_i_glide_ligand_efficiency_sa>  (302) 
-0.222284

>  <r_i_glide_ligand_efficiency_ln>  (302) 
-0.480428

>  <r_i_glide_gscore>  (302) 
-2.09817

>  <r_i_glide_lipo>  (302) 
-0.219251

>  <r_i_glide_hbond>  (302) 
0

>  <r_i_glide_metal>  (302) 
-0

>  <r_i_glide_rewards>  (302) 
-0.637291

>  <r_i_glide_evdw>  (302) 
-23.2168

>  <r_i_glide_ecoul>  (302) 
-2.78584

>  <r_i_glide_erotb>  (302) 
0.356934

>  <r_i_glide_esite>  (302) 
-0.0198489

>  <r_i_glide_emodel>  (302) 
-28.0017

>  <r_i_glide_energy>  (302) 
-26.0026

>  <r_i_glide_einternal>  (302) 
3.58209

>  <r_i_glide_intrahb_reward>  (302) 
-0

>  <i_i_glide_confnum>  (302) 
3

>  <i_i_glide_posenum>  (302) 
2

>  <r_i_glide_eff_state_penalty>  (302) 
0

>  <ligand_id>  (302) 
86

>  <original_smiles>  (302) 
CCOC1CC2C3CC=C4CC(=O)C=CC4(C)C3(F)C(O)CC2(C)C1C(C)CO

>  <smiles>  (302) 
[H]OC([H])([H])C([H])(C([H])([H])[H])C1([H])C([H])(OC([H])([H])C([H])([H])[H])C([H])([H])C2([H])C3([H])C([H])([H])C([H])=C4C([H])([H])C(=O)C([H])=C([H])C4(C([H])([H])[H])C3(F)C([H])(O[H])C([H])([H])C21C([H])([H])[H]

$$$$
87:0:0
     RDKit          3D

 76 80  0  0  1  0  0  0  0  0999 V2000
   -1.7872   -7.8935    3.4621 C   0  0  0  0  0  0  0  0  0  0  0  0
   -0.2716   -8.1968    3.4107 C   0  0  2  0  0  0  0  0  0  0  0  0
    0.0229   -9.6815    3.1007 C   0  0  1  0  0  0  0  0  0  0  0  0
   -0.8039  -10.2043    2.0867 O   0  0  0  0  0  0  0  0  0  0  0  0
    1.5067   -9.8847    2.7619 C   0  0  1  0  0  0  0  0  0  0  0  0
    1.8210   -9.1716    1.5866 O   0  0  0  0  0  0  0  0  0  0  0  0
    2.4332   -9.3371    3.8607 C   0  0  0  0  0  0  0  0  0  0  0  0
    2.0728   -7.8860    4.3058 C   0  0  2  0  0  0  0  0  0  0  0  0
    3.0884   -7.2049    5.3067 C   0  0  1  0  0  0  0  0  0  0  0  0
    3.0664   -7.8498    6.7197 C   0  0  0  0  0  0  0  0  0  0  0  0
    4.5682   -7.3600    4.8486 C   0  0  0  0  0  0  0  0  0  0  0  0
    4.9909   -6.5001    3.6383 C   0  0  0  0  0  0  0  0  0  0  0  0
    4.7219   -4.9757    3.8154 C   0  0  2  0  0  0  0  0  0  0  0  0
    5.5147   -4.4518    5.0585 C   0  0  0  0  0  0  0  0  0  0  0  0
    3.2162   -4.9065    4.1329 C   0  0  0  0  0  0  0  0  0  0  0  0
    2.3643   -4.2813    3.2987 C   0  0  0  0  0  0  0  0  0  0  0  0
    2.7206   -3.7314    1.9420 C   0  0  0  0  0  0  0  0  0  0  0  0
    4.0862   -4.1994    1.3684 C   0  0  1  0  0  0  0  0  0  0  0  0
    4.4451   -3.3651    0.0676 C   0  0  0  0  0  0  0  0  0  0  0  0
    5.5103   -4.0630   -0.8080 C   0  0  0  0  0  0  0  0  0  0  0  0
    3.2040   -3.2213   -0.8608 C   0  0  0  0  0  0  0  0  0  0  0  0
    4.9357   -1.9504    0.4443 C   0  0  0  0  0  0  0  0  0  0  0  0
    5.0609   -1.1030   -0.4441 O   0  0  0  0  0  0  0  0  0  0  0  0
    5.3137   -1.6685    1.8437 C   0  0  0  0  0  0  0  0  0  0  0  0
    5.4063   -2.6454    2.7664 C   0  0  0  0  0  0  0  0  0  0  0  0
    5.1640   -4.1382    2.5082 C   0  0  1  0  0  0  0  0  0  0  0  0
    6.5318   -4.7066    2.0207 C   0  0  0  0  0  0  0  0  0  0  0  0
    2.7508   -5.6780    5.3953 C   0  0  1  0  0  0  0  0  0  0  0  0
    1.2636   -5.4816    5.8059 C   0  0  0  0  0  0  0  0  0  0  0  0
    0.2360   -6.2459    4.9438 C   0  0  0  0  0  0  0  0  0  0  0  0
    0.5484   -7.7389    4.6690 C   0  0  1  0  0  0  0  0  0  0  0  0
    0.1234   -8.5922    5.9077 C   0  0  0  0  0  0  0  0  0  0  0  0
   -2.2992   -8.4728    4.2235 H   0  0  0  0  0  0  0  0  0  0  0  0
   -2.2532   -8.1447    2.5054 H   0  0  0  0  0  0  0  0  0  0  0  0
   -1.9925   -6.8405    3.6231 H   0  0  0  0  0  0  0  0  0  0  0  0
    0.0761   -7.6092    2.5672 H   0  0  0  0  0  0  0  0  0  0  0  0
   -0.1900  -10.2881    3.9763 H   0  0  0  0  0  0  0  0  0  0  0  0
   -0.4596  -10.0275    1.2055 H   0  0  0  0  0  0  0  0  0  0  0  0
    1.7120  -10.9425    2.6129 H   0  0  0  0  0  0  0  0  0  0  0  0
    1.3000   -9.5231    0.8762 H   0  0  0  0  0  0  0  0  0  0  0  0
    2.4210  -10.0161    4.7149 H   0  0  0  0  0  0  0  0  0  0  0  0
    3.4363   -9.3790    3.4496 H   0  0  0  0  0  0  0  0  0  0  0  0
    2.1894   -7.2991    3.3903 H   0  0  0  0  0  0  0  0  0  0  0  0
    3.8679   -7.4602    7.3489 H   0  0  0  0  0  0  0  0  0  0  0  0
    3.1949   -8.9293    6.6711 H   0  0  0  0  0  0  0  0  0  0  0  0
    2.1648   -7.6532    7.2815 H   0  0  0  0  0  0  0  0  0  0  0  0
    5.2383   -7.1300    5.6758 H   0  0  0  0  0  0  0  0  0  0  0  0
    4.8112   -8.4007    4.6488 H   0  0  0  0  0  0  0  0  0  0  0  0
    6.0461   -6.7162    3.4866 H   0  0  0  0  0  0  0  0  0  0  0  0
    4.4844   -6.8697    2.7458 H   0  0  0  0  0  0  0  0  0  0  0  0
    6.5816   -4.3552    4.8805 H   0  0  0  0  0  0  0  0  0  0  0  0
    5.4421   -5.0844    5.9394 H   0  0  0  0  0  0  0  0  0  0  0  0
    5.1372   -3.4820    5.3891 H   0  0  0  0  0  0  0  0  0  0  0  0
    1.3191   -4.1738    3.5277 H   0  0  0  0  0  0  0  0  0  0  0  0
    1.9349   -4.0809    1.2761 H   0  0  0  0  0  0  0  0  0  0  0  0
    2.6420   -2.6442    1.9986 H   0  0  0  0  0  0  0  0  0  0  0  0
    3.9747   -5.2470    1.0820 H   0  0  0  0  0  0  0  0  0  0  0  0
    5.4366   -5.1463   -0.7297 H   0  0  0  0  0  0  0  0  0  0  0  0
    6.5249   -3.7683   -0.5488 H   0  0  0  0  0  0  0  0  0  0  0  0
    5.4071   -3.8153   -1.8632 H   0  0  0  0  0  0  0  0  0  0  0  0
    2.7402   -4.1930   -1.0739 H   0  0  0  0  0  0  0  0  0  0  0  0
    3.4585   -2.7677   -1.8194 H   0  0  0  0  0  0  0  0  0  0  0  0
    2.4410   -2.5707   -0.4209 H   0  0  0  0  0  0  0  0  0  0  0  0
    5.5381   -0.6434    2.0886 H   0  0  0  0  0  0  0  0  0  0  0  0
    5.7254   -2.3377    3.7486 H   0  0  0  0  0  0  0  0  0  0  0  0
    6.4251   -5.5922    1.3931 H   0  0  0  0  0  0  0  0  0  0  0  0
    7.1816   -5.0185    2.8421 H   0  0  0  0  0  0  0  0  0  0  0  0
    7.1116   -3.9663    1.4734 H   0  0  0  0  0  0  0  0  0  0  0  0
    3.3117   -5.2650    6.2260 H   0  0  0  0  0  0  0  0  0  0  0  0
    1.1457   -5.7782    6.8419 H   0  0  0  0  0  0  0  0  0  0  0  0
    1.0201   -4.4176    5.8117 H   0  0  0  0  0  0  0  0  0  0  0  0
   -0.7266   -6.1641    5.4494 H   0  0  0  0  0  0  0  0  0  0  0  0
    0.0853   -5.7414    3.9984 H   0  0  0  0  0  0  0  0  0  0  0  0
    0.1464   -8.0351    6.8454 H   0  0  0  0  0  0  0  0  0  0  0  0
    0.7384   -9.4785    6.0449 H   0  0  0  0  0  0  0  0  0  0  0  0
   -0.8986   -8.9636    5.8333 H   0  0  0  0  0  0  0  0  0  0  0  0
  1  2  1  0
  1 33  1  0
  1 34  1  0
  1 35  1  0
  2 31  1  0
  2  3  1  0
  2 36  1  6
  3  4  1  0
  3  5  1  0
  3 37  1  1
  4 38  1  0
  5  6  1  0
  5  7  1  0
  5 39  1  6
  6 40  1  0
  7  8  1  0
  7 41  1  0
  7 42  1  0
  8 31  1  0
  8  9  1  0
  8 43  1  6
  9 28  1  0
  9 10  1  1
  9 11  1  0
 10 44  1  0
 10 45  1  0
 10 46  1  0
 11 12  1  0
 11 47  1  0
 11 48  1  0
 12 13  1  0
 12 49  1  0
 12 50  1  0
 13 26  1  0
 13 14  1  1
 13 15  1  0
 14 51  1  0
 14 52  1  0
 14 53  1  0
 15 16  2  0
 15 28  1  0
 16 17  1  0
 16 54  1  0
 17 18  1  0
 17 55  1  0
 17 56  1  0
 18 26  1  0
 18 19  1  0
 18 57  1  6
 19 20  1  0
 19 21  1  0
 19 22  1  0
 20 58  1  0
 20 59  1  0
 20 60  1  0
 21 61  1  0
 21 62  1  0
 21 63  1  0
 22 23  2  0
 22 24  1  0
 24 25  2  0
 24 64  1  0
 25 26  1  0
 25 65  1  0
 26 27  1  6
 27 66  1  0
 27 67  1  0
 27 68  1  0
 28 29  1  0
 28 69  1  1
 29 30  1  0
 29 70  1  0
 29 71  1  0
 30 31  1  0
 30 72  1  0
 30 73  1  0
 31 32  1  1
 32 74  1  0
 32 75  1  0
 32 76  1  0
M  END
>  <i_m_ct_stereo_status>  (303) 
1

>  <s_m_source_file>  (303) 
/var/tmp/pbs.5076255.sched01/tmp2672eyar/80wl2hclo4.sdf

>  <i_m_source_file_index>  (303) 
39

>  <i_lp_mmshare_version>  (303) 
48012

>  <i_f3d_flags>  (303) 
0

>  <s_epik_input>  (303) 
W09IXVtDQEBIXShbQ0gyXTEpW0NASF0oW09IXSlbQ0BASF0oW0NIM10pW0NAQF0oW0NIM10pKFtDQEhdMVtDQEBdMjNbQ0gzXSlbQ0gyXVtDSDJdW0NAQEhdM0M9NFtDQEBdKFtDSDNdKShbQ0gyXVtDSDJdMilbQ0BAXTUoW0NIM10pW0NAQEhdKFtDSDJdW0NIXTQpQyhbQ0gzXSkoW0NIM10pQyg9TylbQ0hdPVtDSF01

>  <s_epik_cmdline>  (303) 
J2VwaWtfcHl0aG9uJywgJy1waHQnLCAnMi4wJywgJy1waCcsICc3LjAnLCAnLXRuJywgJzgnLCAnLW1hJywgJzIwMCcsICctaW1hZScsICc8aW5maWxlLm1hZT4nLCAnLW9tYWUnLCAnPG91dGZpbGUubWFlPic=

>  <r_lp_tautomer_probability>  (303) 
1

>  <r_epik_Ionization_Penalty>  (303) 
1.44798e-06

>  <r_epik_Ionization_Penalty_Charging>  (303) 
0

>  <r_epik_Ionization_Penalty_Neutral>  (303) 
1.44798e-06

>  <r_epik_State_Penalty>  (303) 
-0

>  <r_epik_Charging_Adjusted_Penalty>  (303) 
0

>  <i_epik_Tot_Q>  (303) 
0

>  <i_epik_Tot_abs_Q>  (303) 
0

>  <s_lp_Force_Field>  (303) 
OPLS3e

>  <r_lp_Energy>  (303) 
84.8159

>  <b_lp_Chiralities_Consistent>  (303) 
1

>  <s_lp_Variant>  (303) 
87:0-1

>  <s_i_glide_gridfile>  (303) 
pfpi4k_grid

>  <i_i_glide_lignum>  (303) 
39

>  <i_i_glide_rotatable_bonds>  (303) 
2

>  <r_i_docking_score>  (303) 
-3.46061

>  <r_i_glide_ligand_efficiency>  (303) 
-0.108144

>  <r_i_glide_ligand_efficiency_sa>  (303) 
-0.343336

>  <r_i_glide_ligand_efficiency_ln>  (303) 
-0.774926

>  <r_i_glide_gscore>  (303) 
-3.46061

>  <r_i_glide_lipo>  (303) 
-0.436413

>  <r_i_glide_hbond>  (303) 
0

>  <r_i_glide_metal>  (303) 
-0

>  <r_i_glide_rewards>  (303) 
-0.439311

>  <r_i_glide_evdw>  (303) 
-24.755

>  <r_i_glide_ecoul>  (303) 
-8.98095

>  <r_i_glide_erotb>  (303) 
0

>  <r_i_glide_esite>  (303) 
0

>  <r_i_glide_emodel>  (303) 
-39.5439

>  <r_i_glide_energy>  (303) 
-33.7359

>  <r_i_glide_einternal>  (303) 
0.907273

>  <r_i_glide_intrahb_reward>  (303) 
-0

>  <i_i_glide_confnum>  (303) 
2

>  <i_i_glide_posenum>  (303) 
19

>  <r_i_glide_eff_state_penalty>  (303) 
0

>  <ligand_id>  (303) 
87

>  <original_smiles>  (303) 
CC1C(O)C(O)CC2C3(C)CCC4(C)C(=CCC5C(C)(C)C(=O)C=CC54C)C3CCC12C

>  <smiles>  (303) 
[H]OC1([H])C([H])([H])C2([H])C3(C([H])([H])[H])C([H])([H])C([H])([H])C4(C([H])([H])[H])C(=C([H])C([H])([H])C5([H])C(C([H])([H])[H])(C([H])([H])[H])C(=O)C([H])=C([H])C54C([H])([H])[H])C3([H])C([H])([H])C([H])([H])C2(C([H])([H])[H])C([H])(C([H])([H])[H])C1([H])O[H]

$$$$
87:0:1
     RDKit          3D

 76 80  0  0  1  0  0  0  0  0999 V2000
   -0.3290   -7.3016    3.2370 C   0  0  0  0  0  0  0  0  0  0  0  0
    1.1792   -7.3115    2.8827 C   0  0  2  0  0  0  0  0  0  0  0  0
    1.7930   -8.7358    2.9582 C   0  0  1  0  0  0  0  0  0  0  0  0
    0.9860   -9.7262    2.3620 O   0  0  0  0  0  0  0  0  0  0  0  0
    3.2282   -8.7884    2.3876 C   0  0  1  0  0  0  0  0  0  0  0  0
    3.2572   -8.6105    0.9977 O   0  0  0  0  0  0  0  0  0  0  0  0
    4.1262   -7.7037    2.9820 C   0  0  0  0  0  0  0  0  0  0  0  0
    3.4784   -6.2776    3.0251 C   0  0  2  0  0  0  0  0  0  0  0  0
    4.4487   -5.1195    3.5117 C   0  0  1  0  0  0  0  0  0  0  0  0
    4.8461   -5.2394    5.0071 C   0  0  0  0  0  0  0  0  0  0  0  0
    5.8030   -5.1629    2.7488 C   0  0  0  0  0  0  0  0  0  0  0  0
    5.7863   -4.6644    1.2902 C   0  0  0  0  0  0  0  0  0  0  0  0
    5.1757   -3.2450    1.0903 C   0  0  2  0  0  0  0  0  0  0  0  0
    5.9659   -2.1759    1.8912 C   0  0  0  0  0  0  0  0  0  0  0  0
    3.7967   -3.3673    1.7404 C   0  0  0  0  0  0  0  0  0  0  0  0
    2.6898   -3.2585    0.9943 C   0  0  0  0  0  0  0  0  0  0  0  0
    2.6363   -3.2163   -0.5154 C   0  0  0  0  0  0  0  0  0  0  0  0
    3.9595   -3.5058   -1.2538 C   0  0  1  0  0  0  0  0  0  0  0  0
    3.8130   -3.0501   -2.7815 C   0  0  0  0  0  0  0  0  0  0  0  0
    4.8398   -3.8090   -3.6434 C   0  0  0  0  0  0  0  0  0  0  0  0
    2.3996   -3.2893   -3.3992 C   0  0  0  0  0  0  0  0  0  0  0  0
    4.0568   -1.5392   -2.9527 C   0  0  0  0  0  0  0  0  0  0  0  0
    3.8173   -1.0132   -4.0436 O   0  0  0  0  0  0  0  0  0  0  0  0
    4.5667   -0.7550   -1.8412 C   0  0  0  0  0  0  0  0  0  0  0  0
    5.0382   -1.3020   -0.7003 C   0  0  0  0  0  0  0  0  0  0  0  0
    5.1464   -2.8176   -0.4616 C   0  0  1  0  0  0  0  0  0  0  0  0
    6.5231   -3.1929   -1.0649 C   0  0  0  0  0  0  0  0  0  0  0  0
    3.7608   -3.7372    3.2593 C   0  0  1  0  0  0  0  0  0  0  0  0
    2.3723   -3.6876    3.9302 C   0  0  0  0  0  0  0  0  0  0  0  0
    1.4401   -4.8809    3.6121 C   0  0  0  0  0  0  0  0  0  0  0  0
    2.0579   -6.3020    3.6992 C   0  0  1  0  0  0  0  0  0  0  0  0
    2.0744   -6.7288    5.1985 C   0  0  0  0  0  0  0  0  0  0  0  0
   -0.5505   -7.6594    4.2464 H   0  0  0  0  0  0  0  0  0  0  0  0
   -0.8865   -7.9311    2.5426 H   0  0  0  0  0  0  0  0  0  0  0  0
   -0.7577   -6.2965    3.1456 H   0  0  0  0  0  0  0  0  0  0  0  0
    1.2077   -6.9903    1.8389 H   0  0  0  0  0  0  0  0  0  0  0  0
    1.8491   -9.0273    4.0076 H   0  0  0  0  0  0  0  0  0  0  0  0
    0.7919   -9.4594    1.4474 H   0  0  0  0  0  0  0  0  0  0  0  0
    3.6539   -9.7761    2.5861 H   0  0  0  0  0  0  0  0  0  0  0  0
    2.8575   -9.3929    0.6196 H   0  0  0  0  0  0  0  0  0  0  0  0
    4.4579   -8.0125    3.9753 H   0  0  0  0  0  0  0  0  0  0  0  0
    5.0104   -7.6891    2.3472 H   0  0  0  0  0  0  0  0  0  0  0  0
    3.2847   -6.0290    1.9830 H   0  0  0  0  0  0  0  0  0  0  0  0
    5.6139   -4.5160    5.2718 H   0  0  0  0  0  0  0  0  0  0  0  0
    5.2436   -6.2265    5.2395 H   0  0  0  0  0  0  0  0  0  0  0  0
    4.0394   -5.0389    5.7003 H   0  0  0  0  0  0  0  0  0  0  0  0
    6.5296   -4.5780    3.2955 H   0  0  0  0  0  0  0  0  0  0  0  0
    6.2466   -6.1603    2.7799 H   0  0  0  0  0  0  0  0  0  0  0  0
    6.8166   -4.7019    0.9535 H   0  0  0  0  0  0  0  0  0  0  0  0
    5.2423   -5.3849    0.6728 H   0  0  0  0  0  0  0  0  0  0  0  0
    6.9349   -1.9619    1.4382 H   0  0  0  0  0  0  0  0  0  0  0  0
    6.1653   -2.4985    2.9115 H   0  0  0  0  0  0  0  0  0  0  0  0
    5.4078   -1.2346    1.9644 H   0  0  0  0  0  0  0  0  0  0  0  0
    1.7419   -3.2193    1.4862 H   0  0  0  0  0  0  0  0  0  0  0  0
    1.8689   -3.9207   -0.8409 H   0  0  0  0  0  0  0  0  0  0  0  0
    2.3678   -2.2104   -0.7782 H   0  0  0  0  0  0  0  0  0  0  0  0
    4.1386   -4.5930   -1.1892 H   0  0  0  0  0  0  0  0  0  0  0  0
    5.0042   -4.8043   -3.2285 H   0  0  0  0  0  0  0  0  0  0  0  0
    5.7961   -3.2912   -3.7074 H   0  0  0  0  0  0  0  0  0  0  0  0
    4.4949   -3.9326   -4.6701 H   0  0  0  0  0  0  0  0  0  0  0  0
    2.0106   -4.2966   -3.2119 H   0  0  0  0  0  0  0  0  0  0  0  0
    2.4269   -3.1008   -4.4853 H   0  0  0  0  0  0  0  0  0  0  0  0
    1.6630   -2.5751   -3.0100 H   0  0  0  0  0  0  0  0  0  0  0  0
    4.5301    0.3154   -1.9856 H   0  0  0  0  0  0  0  0  0  0  0  0
    5.4415   -0.6200    0.0219 H   0  0  0  0  0  0  0  0  0  0  0  0
    6.5109   -4.2319   -1.2884 H   0  0  0  0  0  0  0  0  0  0  0  0
    7.3674   -2.9969   -0.4054 H   0  0  0  0  0  0  0  0  0  0  0  0
    6.7579   -2.6432   -1.9782 H   0  0  0  0  0  0  0  0  0  0  0  0
    4.3255   -2.9745    3.7957 H   0  0  0  0  0  0  0  0  0  0  0  0
    2.5035   -3.6468    5.0034 H   0  0  0  0  0  0  0  0  0  0  0  0
    1.8582   -2.7548    3.6872 H   0  0  0  0  0  0  0  0  0  0  0  0
    0.5896   -4.8138    4.2929 H   0  0  0  0  0  0  0  0  0  0  0  0
    0.9986   -4.7607    2.6195 H   0  0  0  0  0  0  0  0  0  0  0  0
    2.1276   -5.8938    5.8963 H   0  0  0  0  0  0  0  0  0  0  0  0
    2.9069   -7.3911    5.4273 H   0  0  0  0  0  0  0  0  0  0  0  0
    1.1794   -7.2766    5.4989 H   0  0  0  0  0  0  0  0  0  0  0  0
  1  2  1  0
  1 33  1  0
  1 34  1  0
  1 35  1  0
  2 31  1  0
  2  3  1  0
  2 36  1  6
  3  4  1  0
  3  5  1  0
  3 37  1  1
  4 38  1  0
  5  6  1  0
  5  7  1  0
  5 39  1  6
  6 40  1  0
  7  8  1  0
  7 41  1  0
  7 42  1  0
  8 31  1  0
  8  9  1  0
  8 43  1  6
  9 28  1  0
  9 10  1  1
  9 11  1  0
 10 44  1  0
 10 45  1  0
 10 46  1  0
 11 12  1  0
 11 47  1  0
 11 48  1  0
 12 13  1  0
 12 49  1  0
 12 50  1  0
 13 26  1  0
 13 14  1  1
 13 15  1  0
 14 51  1  0
 14 52  1  0
 14 53  1  0
 15 16  2  0
 15 28  1  0
 16 17  1  0
 16 54  1  0
 17 18  1  0
 17 55  1  0
 17 56  1  0
 18 26  1  0
 18 19  1  0
 18 57  1  6
 19 20  1  0
 19 21  1  0
 19 22  1  0
 20 58  1  0
 20 59  1  0
 20 60  1  0
 21 61  1  0
 21 62  1  0
 21 63  1  0
 22 23  2  0
 22 24  1  0
 24 25  2  0
 24 64  1  0
 25 26  1  0
 25 65  1  0
 26 27  1  6
 27 66  1  0
 27 67  1  0
 27 68  1  0
 28 29  1  0
 28 69  1  1
 29 30  1  0
 29 70  1  0
 29 71  1  0
 30 31  1  0
 30 72  1  0
 30 73  1  0
 31 32  1  1
 32 74  1  0
 32 75  1  0
 32 76  1  0
M  END
>  <i_m_ct_stereo_status>  (304) 
1

>  <s_m_source_file>  (304) 
/var/tmp/pbs.5076255.sched01/tmp2672eyar/80wl2hclo4.sdf

>  <i_m_source_file_index>  (304) 
39

>  <i_lp_mmshare_version>  (304) 
48012

>  <i_f3d_flags>  (304) 
0

>  <s_epik_input>  (304) 
W09IXVtDQEBIXShbQ0gyXTEpW0NASF0oW09IXSlbQ0BASF0oW0NIM10pW0NAQF0oW0NIM10pKFtDQEhdMVtDQEBdMjNbQ0gzXSlbQ0gyXVtDSDJdW0NAQEhdM0M9NFtDQEBdKFtDSDNdKShbQ0gyXVtDSDJdMilbQ0BAXTUoW0NIM10pW0NAQEhdKFtDSDJdW0NIXTQpQyhbQ0gzXSkoW0NIM10pQyg9TylbQ0hdPVtDSF01

>  <s_epik_cmdline>  (304) 
J2VwaWtfcHl0aG9uJywgJy1waHQnLCAnMi4wJywgJy1waCcsICc3LjAnLCAnLXRuJywgJzgnLCAnLW1hJywgJzIwMCcsICctaW1hZScsICc8aW5maWxlLm1hZT4nLCAnLW9tYWUnLCAnPG91dGZpbGUubWFlPic=

>  <r_lp_tautomer_probability>  (304) 
1

>  <r_epik_Ionization_Penalty>  (304) 
1.44798e-06

>  <r_epik_Ionization_Penalty_Charging>  (304) 
0

>  <r_epik_Ionization_Penalty_Neutral>  (304) 
1.44798e-06

>  <r_epik_State_Penalty>  (304) 
-0

>  <r_epik_Charging_Adjusted_Penalty>  (304) 
0

>  <i_epik_Tot_Q>  (304) 
0

>  <i_epik_Tot_abs_Q>  (304) 
0

>  <s_lp_Force_Field>  (304) 
OPLS3e

>  <r_lp_Energy>  (304) 
84.8159

>  <b_lp_Chiralities_Consistent>  (304) 
1

>  <s_lp_Variant>  (304) 
87:0-1

>  <s_i_glide_gridfile>  (304) 
pfpi4k_grid

>  <i_i_glide_lignum>  (304) 
39

>  <i_i_glide_rotatable_bonds>  (304) 
2

>  <r_i_docking_score>  (304) 
-3.0457

>  <r_i_glide_ligand_efficiency>  (304) 
-0.095178

>  <r_i_glide_ligand_efficiency_sa>  (304) 
-0.302171

>  <r_i_glide_ligand_efficiency_ln>  (304) 
-0.682014

>  <r_i_glide_gscore>  (304) 
-3.0457

>  <r_i_glide_lipo>  (304) 
-0.591533

>  <r_i_glide_hbond>  (304) 
0

>  <r_i_glide_metal>  (304) 
-0

>  <r_i_glide_rewards>  (304) 
-0.419204

>  <r_i_glide_evdw>  (304) 
-27.0644

>  <r_i_glide_ecoul>  (304) 
-4.54491

>  <r_i_glide_erotb>  (304) 
0

>  <r_i_glide_esite>  (304) 
0

>  <r_i_glide_emodel>  (304) 
-36.1701

>  <r_i_glide_energy>  (304) 
-31.6094

>  <r_i_glide_einternal>  (304) 
0.520015

>  <r_i_glide_intrahb_reward>  (304) 
-0

>  <i_i_glide_confnum>  (304) 
2

>  <i_i_glide_posenum>  (304) 
4

>  <r_i_glide_eff_state_penalty>  (304) 
0

>  <ligand_id>  (304) 
87

>  <original_smiles>  (304) 
CC1C(O)C(O)CC2C3(C)CCC4(C)C(=CCC5C(C)(C)C(=O)C=CC54C)C3CCC12C

>  <smiles>  (304) 
[H]OC1([H])C([H])([H])C2([H])C3(C([H])([H])[H])C([H])([H])C([H])([H])C4(C([H])([H])[H])C(=C([H])C([H])([H])C5([H])C(C([H])([H])[H])(C([H])([H])[H])C(=O)C([H])=C([H])C54C([H])([H])[H])C3([H])C([H])([H])C([H])([H])C2(C([H])([H])[H])C([H])(C([H])([H])[H])C1([H])O[H]

$$$$
87:0:2
     RDKit          3D

 76 80  0  0  1  0  0  0  0  0999 V2000
    2.8674   -3.5807   -0.4715 C   0  0  0  0  0  0  0  0  0  0  0  0
    3.5535   -2.6818    0.5869 C   0  0  2  0  0  0  0  0  0  0  0  0
    4.9520   -2.1781    0.1366 C   0  0  1  0  0  0  0  0  0  0  0  0
    4.9957   -1.7130   -1.2008 O   0  0  0  0  0  0  0  0  0  0  0  0
    5.4439   -1.0480    1.0577 C   0  0  1  0  0  0  0  0  0  0  0  0
    4.6573    0.1192    0.8838 O   0  0  0  0  0  0  0  0  0  0  0  0
    5.4122   -1.4689    2.5401 C   0  0  0  0  0  0  0  0  0  0  0  0
    4.0727   -2.1071    3.0021 C   0  0  2  0  0  0  0  0  0  0  0  0
    3.9508   -2.4036    4.5556 C   0  0  1  0  0  0  0  0  0  0  0  0
    4.8682   -3.5626    5.0358 C   0  0  0  0  0  0  0  0  0  0  0  0
    4.3919   -1.1921    5.4289 C   0  0  0  0  0  0  0  0  0  0  0  0
    3.4243    0.0075    5.4509 C   0  0  0  0  0  0  0  0  0  0  0  0
    1.9662   -0.3546    5.8710 C   0  0  2  0  0  0  0  0  0  0  0  0
    1.9712   -0.9605    7.3101 C   0  0  0  0  0  0  0  0  0  0  0  0
    1.5650   -1.4592    4.8716 C   0  0  0  0  0  0  0  0  0  0  0  0
    0.5646   -1.2698    3.9983 C   0  0  0  0  0  0  0  0  0  0  0  0
   -0.1694    0.0270    3.7728 C   0  0  0  0  0  0  0  0  0  0  0  0
    0.5026    1.2835    4.3968 C   0  0  1  0  0  0  0  0  0  0  0  0
   -0.4777    2.5269    4.2937 C   0  0  0  0  0  0  0  0  0  0  0  0
    0.2648    3.8818    4.4424 C   0  0  0  0  0  0  0  0  0  0  0  0
   -1.1712    2.5774    2.9010 C   0  0  0  0  0  0  0  0  0  0  0  0
   -1.5807    2.4304    5.3733 C   0  0  0  0  0  0  0  0  0  0  0  0
   -2.5654    3.1683    5.2970 O   0  0  0  0  0  0  0  0  0  0  0  0
   -1.4209    1.4760    6.4864 C   0  0  0  0  0  0  0  0  0  0  0  0
   -0.2742    0.7988    6.7008 C   0  0  0  0  0  0  0  0  0  0  0  0
    0.9995    0.9382    5.8505 C   0  0  1  0  0  0  0  0  0  0  0  0
    1.7697    2.1249    6.5006 C   0  0  0  0  0  0  0  0  0  0  0  0
    2.4577   -2.7361    4.8758 C   0  0  1  0  0  0  0  0  0  0  0  0
    1.9672   -3.9122    3.9927 C   0  0  0  0  0  0  0  0  0  0  0  0
    2.2167   -3.7472    2.4779 C   0  0  0  0  0  0  0  0  0  0  0  0
    3.6279   -3.2779    2.0436 C   0  0  1  0  0  0  0  0  0  0  0  0
    4.5877   -4.5104    2.0448 C   0  0  0  0  0  0  0  0  0  0  0  0
    3.4127   -4.4996   -0.6870 H   0  0  0  0  0  0  0  0  0  0  0  0
    2.7522   -3.0387   -1.4121 H   0  0  0  0  0  0  0  0  0  0  0  0
    1.8538   -3.8523   -0.1747 H   0  0  0  0  0  0  0  0  0  0  0  0
    2.8983   -1.8096    0.6366 H   0  0  0  0  0  0  0  0  0  0  0  0
    5.6655   -3.0041    0.1840 H   0  0  0  0  0  0  0  0  0  0  0  0
    4.2219   -1.1796   -1.3442 H   0  0  0  0  0  0  0  0  0  0  0  0
    6.4723   -0.7952    0.7941 H   0  0  0  0  0  0  0  0  0  0  0  0
    4.9319    0.5677    0.0906 H   0  0  0  0  0  0  0  0  0  0  0  0
    6.2162   -2.1760    2.7286 H   0  0  0  0  0  0  0  0  0  0  0  0
    5.6410   -0.5729    3.1111 H   0  0  0  0  0  0  0  0  0  0  0  0
    3.3420   -1.3173    2.8294 H   0  0  0  0  0  0  0  0  0  0  0  0
    4.8653   -3.6556    6.1227 H   0  0  0  0  0  0  0  0  0  0  0  0
    5.9022   -3.4058    4.7365 H   0  0  0  0  0  0  0  0  0  0  0  0
    4.5740   -4.5435    4.6838 H   0  0  0  0  0  0  0  0  0  0  0  0
    4.5463   -1.5156    6.4564 H   0  0  0  0  0  0  0  0  0  0  0  0
    5.3878   -0.8513    5.1533 H   0  0  0  0  0  0  0  0  0  0  0  0
    3.8681    0.7366    6.1248 H   0  0  0  0  0  0  0  0  0  0  0  0
    3.4248    0.4783    4.4659 H   0  0  0  0  0  0  0  0  0  0  0  0
    2.1054   -0.2046    8.0836 H   0  0  0  0  0  0  0  0  0  0  0  0
    2.7497   -1.6976    7.4839 H   0  0  0  0  0  0  0  0  0  0  0  0
    1.0424   -1.4930    7.5168 H   0  0  0  0  0  0  0  0  0  0  0  0
    0.2427   -2.0476    3.3283 H   0  0  0  0  0  0  0  0  0  0  0  0
   -0.2044    0.1506    2.6904 H   0  0  0  0  0  0  0  0  0  0  0  0
   -1.1931   -0.1099    4.1158 H   0  0  0  0  0  0  0  0  0  0  0  0
    1.3869    1.5046    3.7904 H   0  0  0  0  0  0  0  0  0  0  0  0
    1.2779    3.8296    4.0434 H   0  0  0  0  0  0  0  0  0  0  0  0
    0.3229    4.2264    5.4722 H   0  0  0  0  0  0  0  0  0  0  0  0
   -0.2361    4.6868    3.9034 H   0  0  0  0  0  0  0  0  0  0  0  0
   -0.4386    2.5353    2.0883 H   0  0  0  0  0  0  0  0  0  0  0  0
   -1.7370    3.5034    2.7639 H   0  0  0  0  0  0  0  0  0  0  0  0
   -1.8923    1.7678    2.7553 H   0  0  0  0  0  0  0  0  0  0  0  0
   -2.2664    1.3554    7.1486 H   0  0  0  0  0  0  0  0  0  0  0  0
   -0.2353    0.1671    7.5707 H   0  0  0  0  0  0  0  0  0  0  0  0
    2.4586    2.6046    5.8033 H   0  0  0  0  0  0  0  0  0  0  0  0
    2.3520    1.8210    7.3680 H   0  0  0  0  0  0  0  0  0  0  0  0
    1.1037    2.8912    6.8921 H   0  0  0  0  0  0  0  0  0  0  0  0
    2.4086   -3.1278    5.8891 H   0  0  0  0  0  0  0  0  0  0  0  0
    2.4525   -4.8284    4.3210 H   0  0  0  0  0  0  0  0  0  0  0  0
    0.9090   -4.1030    4.1693 H   0  0  0  0  0  0  0  0  0  0  0  0
    1.9877   -4.7003    2.0006 H   0  0  0  0  0  0  0  0  0  0  0  0
    1.4930   -3.0500    2.0709 H   0  0  0  0  0  0  0  0  0  0  0  0
    4.2851   -5.2910    2.7406 H   0  0  0  0  0  0  0  0  0  0  0  0
    5.6131   -4.2433    2.2874 H   0  0  0  0  0  0  0  0  0  0  0  0
    4.6315   -5.0118    1.0785 H   0  0  0  0  0  0  0  0  0  0  0  0
  1  2  1  0
  1 33  1  0
  1 34  1  0
  1 35  1  0
  2 31  1  0
  2  3  1  0
  2 36  1  1
  3  4  1  0
  3  5  1  0
  3 37  1  6
  4 38  1  0
  5  6  1  0
  5  7  1  0
  5 39  1  6
  6 40  1  0
  7  8  1  0
  7 41  1  0
  7 42  1  0
  8 31  1  0
  8  9  1  0
  8 43  1  6
  9 28  1  0
  9 10  1  1
  9 11  1  0
 10 44  1  0
 10 45  1  0
 10 46  1  0
 11 12  1  0
 11 47  1  0
 11 48  1  0
 12 13  1  0
 12 49  1  0
 12 50  1  0
 13 26  1  0
 13 14  1  1
 13 15  1  0
 14 51  1  0
 14 52  1  0
 14 53  1  0
 15 16  2  0
 15 28  1  0
 16 17  1  0
 16 54  1  0
 17 18  1  0
 17 55  1  0
 17 56  1  0
 18 26  1  0
 18 19  1  0
 18 57  1  6
 19 20  1  0
 19 21  1  0
 19 22  1  0
 20 58  1  0
 20 59  1  0
 20 60  1  0
 21 61  1  0
 21 62  1  0
 21 63  1  0
 22 23  2  0
 22 24  1  0
 24 25  2  0
 24 64  1  0
 25 26  1  0
 25 65  1  0
 26 27  1  1
 27 66  1  0
 27 67  1  0
 27 68  1  0
 28 29  1  0
 28 69  1  1
 29 30  1  0
 29 70  1  0
 29 71  1  0
 30 31  1  0
 30 72  1  0
 30 73  1  0
 31 32  1  6
 32 74  1  0
 32 75  1  0
 32 76  1  0
M  END
>  <i_m_ct_stereo_status>  (305) 
1

>  <s_m_source_file>  (305) 
/var/tmp/pbs.5076255.sched01/tmp2672eyar/80wl2hclo4.sdf

>  <i_m_source_file_index>  (305) 
39

>  <i_lp_mmshare_version>  (305) 
48012

>  <i_f3d_flags>  (305) 
0

>  <s_epik_input>  (305) 
W09IXVtDQEBIXShbQ0gyXTEpW0NASF0oW09IXSlbQ0BASF0oW0NIM10pW0NAQF0oW0NIM10pKFtDQEhdMVtDQEBdMjNbQ0gzXSlbQ0gyXVtDSDJdW0NAQEhdM0M9NFtDQEBdKFtDSDNdKShbQ0gyXVtDSDJdMilbQ0BAXTUoW0NIM10pW0NAQEhdKFtDSDJdW0NIXTQpQyhbQ0gzXSkoW0NIM10pQyg9TylbQ0hdPVtDSF01

>  <s_epik_cmdline>  (305) 
J2VwaWtfcHl0aG9uJywgJy1waHQnLCAnMi4wJywgJy1waCcsICc3LjAnLCAnLXRuJywgJzgnLCAnLW1hJywgJzIwMCcsICctaW1hZScsICc8aW5maWxlLm1hZT4nLCAnLW9tYWUnLCAnPG91dGZpbGUubWFlPic=

>  <r_lp_tautomer_probability>  (305) 
1

>  <r_epik_Ionization_Penalty>  (305) 
1.44798e-06

>  <r_epik_Ionization_Penalty_Charging>  (305) 
0

>  <r_epik_Ionization_Penalty_Neutral>  (305) 
1.44798e-06

>  <r_epik_State_Penalty>  (305) 
-0

>  <r_epik_Charging_Adjusted_Penalty>  (305) 
0

>  <i_epik_Tot_Q>  (305) 
0

>  <i_epik_Tot_abs_Q>  (305) 
0

>  <s_lp_Force_Field>  (305) 
OPLS3e

>  <r_lp_Energy>  (305) 
84.8159

>  <b_lp_Chiralities_Consistent>  (305) 
1

>  <s_lp_Variant>  (305) 
87:0-1

>  <s_i_glide_gridfile>  (305) 
pfpi4k_grid

>  <i_i_glide_lignum>  (305) 
39

>  <i_i_glide_rotatable_bonds>  (305) 
2

>  <r_i_docking_score>  (305) 
-2.74209

>  <r_i_glide_ligand_efficiency>  (305) 
-0.0856903

>  <r_i_glide_ligand_efficiency_sa>  (305) 
-0.27205

>  <r_i_glide_ligand_efficiency_ln>  (305) 
-0.614028

>  <r_i_glide_gscore>  (305) 
-2.74209

>  <r_i_glide_lipo>  (305) 
-0.265413

>  <r_i_glide_hbond>  (305) 
0

>  <r_i_glide_metal>  (305) 
-0

>  <r_i_glide_rewards>  (305) 
-0.42461

>  <r_i_glide_evdw>  (305) 
-28.5526

>  <r_i_glide_ecoul>  (305) 
-4.1629

>  <r_i_glide_erotb>  (305) 
0

>  <r_i_glide_esite>  (305) 
0

>  <r_i_glide_emodel>  (305) 
-37.476

>  <r_i_glide_energy>  (305) 
-32.7155

>  <r_i_glide_einternal>  (305) 
0.642484

>  <r_i_glide_intrahb_reward>  (305) 
-0

>  <i_i_glide_confnum>  (305) 
2

>  <i_i_glide_posenum>  (305) 
2

>  <r_i_glide_eff_state_penalty>  (305) 
0

>  <ligand_id>  (305) 
87

>  <original_smiles>  (305) 
CC1C(O)C(O)CC2C3(C)CCC4(C)C(=CCC5C(C)(C)C(=O)C=CC54C)C3CCC12C

>  <smiles>  (305) 
[H]OC1([H])C([H])([H])C2([H])C3(C([H])([H])[H])C([H])([H])C([H])([H])C4(C([H])([H])[H])C(=C([H])C([H])([H])C5([H])C(C([H])([H])[H])(C([H])([H])[H])C(=O)C([H])=C([H])C54C([H])([H])[H])C3([H])C([H])([H])C([H])([H])C2(C([H])([H])[H])C([H])(C([H])([H])[H])C1([H])O[H]

$$$$
88:0:0
     RDKit          3D

 18 20  0  0  1  0  0  0  0  0999 V2000
   -7.7206   -6.6314   -6.8503 C   0  0  0  0  0  0  0  0  0  0  0  0
   -7.8605   -5.1392   -6.4893 C   0  0  0  0  0  0  0  0  0  0  0  0
   -7.5242   -4.8592   -5.0251 C   0  0  2  0  0  0  0  0  0  0  0  0
   -6.1704   -4.2650   -4.6804 C   0  0  0  0  0  0  0  0  0  0  0  0
   -6.4673   -5.6895   -4.3120 C   0  0  2  0  0  0  0  0  0  0  0  0
   -5.9355   -6.7158   -5.1787 N   0  0  0  0  0  0  0  0  0  0  0  0
   -4.8069   -7.4095   -4.9129 N   0  0  0  0  0  0  0  0  0  0  0  0
   -4.6710   -8.2751   -5.8755 N   0  0  0  0  0  0  0  0  0  0  0  0
   -5.7051   -8.1721   -6.7969 N   0  0  0  0  0  0  0  0  0  0  0  0
   -6.4560   -7.1974   -6.3033 C   0  0  0  0  0  0  0  0  0  0  0  0
   -7.7374   -6.7784   -7.9322 H   0  0  0  0  0  0  0  0  0  0  0  0
   -8.5487   -7.1955   -6.4263 H   0  0  0  0  0  0  0  0  0  0  0  0
   -7.1604   -4.5661   -7.0977 H   0  0  0  0  0  0  0  0  0  0  0  0
   -8.8536   -4.7559   -6.7265 H   0  0  0  0  0  0  0  0  0  0  0  0
   -8.3746   -4.5637   -4.4089 H   0  0  0  0  0  0  0  0  0  0  0  0
   -5.4543   -4.0747   -5.4792 H   0  0  0  0  0  0  0  0  0  0  0  0
   -6.1602   -3.5366   -3.8733 H   0  0  0  0  0  0  0  0  0  0  0  0
   -6.5815   -5.9967   -3.2773 H   0  0  0  0  0  0  0  0  0  0  0  0
  1 10  1  0
  1  2  1  0
  1 11  1  0
  1 12  1  0
  2  3  1  0
  2 13  1  0
  2 14  1  0
  3  5  1  0
  3  4  1  0
  3 15  1  1
  4  5  1  0
  4 16  1  0
  4 17  1  0
  5  6  1  0
  5 18  1  1
  6 10  1  0
  6  7  1  0
  7  8  2  0
  8  9  1  0
  9 10  2  0
M  END
>  <i_m_ct_stereo_status>  (306) 
1

>  <s_m_source_file>  (306) 
/var/tmp/pbs.5076255.sched01/tmp2672eyar/80wl2hclo4.sdf

>  <i_m_source_file_index>  (306) 
40

>  <i_lp_mmshare_version>  (306) 
48012

>  <i_f3d_flags>  (306) 
0

>  <s_epik_input>  (306) 
bjFubmMoW0NIMl1bQ0gyXTIpbjFbQ0BIXShbQ0BIXTIzKVtDSDJdMw==

>  <s_epik_cmdline>  (306) 
J2VwaWtfcHl0aG9uJywgJy1waHQnLCAnMi4wJywgJy1waCcsICc3LjAnLCAnLXRuJywgJzgnLCAnLW1hJywgJzIwMCcsICctaW1hZScsICc8aW5maWxlLm1hZT4nLCAnLW9tYWUnLCAnPG91dGZpbGUubWFlPic=

>  <r_lp_tautomer_probability>  (306) 
1

>  <r_epik_Ionization_Penalty>  (306) 
2.0653e-08

>  <r_epik_Ionization_Penalty_Charging>  (306) 
0

>  <r_epik_Ionization_Penalty_Neutral>  (306) 
2.0653e-08

>  <r_epik_State_Penalty>  (306) 
-0

>  <r_epik_Charging_Adjusted_Penalty>  (306) 
0

>  <i_epik_Tot_Q>  (306) 
0

>  <i_epik_Tot_abs_Q>  (306) 
0

>  <s_lp_Force_Field>  (306) 
OPLS3e

>  <r_lp_Energy>  (306) 
12.4251

>  <b_lp_Chiralities_Consistent>  (306) 
1

>  <s_lp_Variant>  (306) 
88:0-1

>  <s_i_glide_gridfile>  (306) 
pfpi4k_grid

>  <i_i_glide_lignum>  (306) 
40

>  <i_i_glide_rotatable_bonds>  (306) 
0

>  <r_i_docking_score>  (306) 
-5.7109

>  <r_i_glide_ligand_efficiency>  (306) 
-0.57109

>  <r_i_glide_ligand_efficiency_sa>  (306) 
-1.23038

>  <r_i_glide_ligand_efficiency_ln>  (306) 
-1.72922

>  <r_i_glide_gscore>  (306) 
-5.7109

>  <r_i_glide_lipo>  (306) 
-1.4479

>  <r_i_glide_hbond>  (306) 
0

>  <r_i_glide_metal>  (306) 
-0

>  <r_i_glide_rewards>  (306) 
-3.20735

>  <r_i_glide_evdw>  (306) 
-20.4947

>  <r_i_glide_ecoul>  (306) 
-0.206127

>  <r_i_glide_erotb>  (306) 
0

>  <r_i_glide_esite>  (306) 
0

>  <r_i_glide_emodel>  (306) 
-27.8063

>  <r_i_glide_energy>  (306) 
-20.7008

>  <r_i_glide_einternal>  (306) 
0

>  <r_i_glide_intrahb_reward>  (306) 
-0

>  <i_i_glide_confnum>  (306) 
1

>  <i_i_glide_posenum>  (306) 
11

>  <r_i_glide_eff_state_penalty>  (306) 
0

>  <ligand_id>  (306) 
88

>  <original_smiles>  (306) 
C1CC2CC2n2nnnc21

>  <smiles>  (306) 
[H]C1([H])c2nnnn2C2([H])C([H])([H])C2([H])C1([H])[H]

$$$$
88:0:1
     RDKit          3D

 18 20  0  0  1  0  0  0  0  0999 V2000
   -1.0488    2.4200    5.4588 C   0  0  0  0  0  0  0  0  0  0  0  0
   -0.9724    3.0438    4.0539 C   0  0  0  0  0  0  0  0  0  0  0  0
   -0.0211    2.2712    3.1394 C   0  0  2  0  0  0  0  0  0  0  0  0
   -0.5996    1.3442    2.0876 C   0  0  0  0  0  0  0  0  0  0  0  0
    0.1234    0.7584    3.2693 C   0  0  2  0  0  0  0  0  0  0  0  0
   -0.6918    0.2610    4.3552 N   0  0  0  0  0  0  0  0  0  0  0  0
   -0.9877   -1.0450    4.5357 N   0  0  0  0  0  0  0  0  0  0  0  0
   -1.7099   -1.1118    5.6188 N   0  0  0  0  0  0  0  0  0  0  0  0
   -1.8819    0.1430    6.1864 N   0  0  0  0  0  0  0  0  0  0  0  0
   -1.2259    0.9471    5.3640 C   0  0  0  0  0  0  0  0  0  0  0  0
   -1.8741    2.8477    6.0302 H   0  0  0  0  0  0  0  0  0  0  0  0
   -0.1263    2.6200    6.0082 H   0  0  0  0  0  0  0  0  0  0  0  0
   -1.9686    3.0138    3.6056 H   0  0  0  0  0  0  0  0  0  0  0  0
   -0.6775    4.0927    4.0988 H   0  0  0  0  0  0  0  0  0  0  0  0
    0.8913    2.8070    2.8781 H   0  0  0  0  0  0  0  0  0  0  0  0
   -1.6826    1.2367    2.0339 H   0  0  0  0  0  0  0  0  0  0  0  0
   -0.0830    1.3383    1.1297 H   0  0  0  0  0  0  0  0  0  0  0  0
    1.0787    0.2525    3.1559 H   0  0  0  0  0  0  0  0  0  0  0  0
  1 10  1  0
  1  2  1  0
  1 11  1  0
  1 12  1  0
  2  3  1  0
  2 13  1  0
  2 14  1  0
  3  5  1  0
  3  4  1  0
  3 15  1  6
  4  5  1  0
  4 16  1  0
  4 17  1  0
  5  6  1  0
  5 18  1  6
  6 10  1  0
  6  7  1  0
  7  8  2  0
  8  9  1  0
  9 10  2  0
M  END
>  <i_m_ct_stereo_status>  (307) 
1

>  <s_m_source_file>  (307) 
/var/tmp/pbs.5076255.sched01/tmp2672eyar/80wl2hclo4.sdf

>  <i_m_source_file_index>  (307) 
40

>  <i_lp_mmshare_version>  (307) 
48012

>  <i_f3d_flags>  (307) 
0

>  <s_epik_input>  (307) 
bjFubmMoW0NIMl1bQ0gyXTIpbjFbQ0BIXShbQ0BIXTIzKVtDSDJdMw==

>  <s_epik_cmdline>  (307) 
J2VwaWtfcHl0aG9uJywgJy1waHQnLCAnMi4wJywgJy1waCcsICc3LjAnLCAnLXRuJywgJzgnLCAnLW1hJywgJzIwMCcsICctaW1hZScsICc8aW5maWxlLm1hZT4nLCAnLW9tYWUnLCAnPG91dGZpbGUubWFlPic=

>  <r_lp_tautomer_probability>  (307) 
1

>  <r_epik_Ionization_Penalty>  (307) 
2.0653e-08

>  <r_epik_Ionization_Penalty_Charging>  (307) 
0

>  <r_epik_Ionization_Penalty_Neutral>  (307) 
2.0653e-08

>  <r_epik_State_Penalty>  (307) 
-0

>  <r_epik_Charging_Adjusted_Penalty>  (307) 
0

>  <i_epik_Tot_Q>  (307) 
0

>  <i_epik_Tot_abs_Q>  (307) 
0

>  <s_lp_Force_Field>  (307) 
OPLS3e

>  <r_lp_Energy>  (307) 
12.4251

>  <b_lp_Chiralities_Consistent>  (307) 
1

>  <s_lp_Variant>  (307) 
88:0-1

>  <s_i_glide_gridfile>  (307) 
pfpi4k_grid

>  <i_i_glide_lignum>  (307) 
40

>  <i_i_glide_rotatable_bonds>  (307) 
0

>  <r_i_docking_score>  (307) 
-3.64818

>  <r_i_glide_ligand_efficiency>  (307) 
-0.364818

>  <r_i_glide_ligand_efficiency_sa>  (307) 
-0.785976

>  <r_i_glide_ligand_efficiency_ln>  (307) 
-1.10464

>  <r_i_glide_gscore>  (307) 
-3.64818

>  <r_i_glide_lipo>  (307) 
0

>  <r_i_glide_hbond>  (307) 
0

>  <r_i_glide_metal>  (307) 
-0

>  <r_i_glide_rewards>  (307) 
-2.25

>  <r_i_glide_evdw>  (307) 
-12.6526

>  <r_i_glide_ecoul>  (307) 
-3.47765

>  <r_i_glide_erotb>  (307) 
0

>  <r_i_glide_esite>  (307) 
-0.243901

>  <r_i_glide_emodel>  (307) 
-20.6421

>  <r_i_glide_energy>  (307) 
-16.1303

>  <r_i_glide_einternal>  (307) 
0

>  <r_i_glide_intrahb_reward>  (307) 
-0

>  <i_i_glide_confnum>  (307) 
1

>  <i_i_glide_posenum>  (307) 
12

>  <r_i_glide_eff_state_penalty>  (307) 
0

>  <ligand_id>  (307) 
88

>  <original_smiles>  (307) 
C1CC2CC2n2nnnc21

>  <smiles>  (307) 
[H]C1([H])c2nnnn2C2([H])C([H])([H])C2([H])C1([H])[H]

$$$$
88:0:2
     RDKit          3D

 18 20  0  0  1  0  0  0  0  0999 V2000
   -0.6785    2.7879    6.1656 C   0  0  0  0  0  0  0  0  0  0  0  0
   -1.3686    3.8424    5.2850 C   0  0  0  0  0  0  0  0  0  0  0  0
   -1.2969    3.4895    3.7994 C   0  0  2  0  0  0  0  0  0  0  0  0
   -2.5326    2.9357    3.1170 C   0  0  0  0  0  0  0  0  0  0  0  0
   -1.3492    2.0306    3.3517 C   0  0  2  0  0  0  0  0  0  0  0  0
   -1.4004    1.1397    4.5015 N   0  0  0  0  0  0  0  0  0  0  0  0
   -1.7261   -0.1721    4.4354 N   0  0  0  0  0  0  0  0  0  0  0  0
   -1.6491   -0.6372    5.6488 N   0  0  0  0  0  0  0  0  0  0  0  0
   -1.2542    0.3473    6.5374 N   0  0  0  0  0  0  0  0  0  0  0  0
   -1.1046    1.4149    5.7695 C   0  0  0  0  0  0  0  0  0  0  0  0
   -0.9119    2.9482    7.2198 H   0  0  0  0  0  0  0  0  0  0  0  0
    0.4057    2.8567    6.0544 H   0  0  0  0  0  0  0  0  0  0  0  0
   -2.4213    3.8934    5.5700 H   0  0  0  0  0  0  0  0  0  0  0  0
   -0.9457    4.8327    5.4557 H   0  0  0  0  0  0  0  0  0  0  0  0
   -0.6446    4.1326    3.2095 H   0  0  0  0  0  0  0  0  0  0  0  0
   -3.4295    2.7704    3.7112 H   0  0  0  0  0  0  0  0  0  0  0  0
   -2.7095    3.2619    2.0942 H   0  0  0  0  0  0  0  0  0  0  0  0
   -0.7479    1.6627    2.5246 H   0  0  0  0  0  0  0  0  0  0  0  0
  1 10  1  0
  1  2  1  0
  1 11  1  0
  1 12  1  0
  2  3  1  0
  2 13  1  0
  2 14  1  0
  3  5  1  0
  3  4  1  0
  3 15  1  6
  4  5  1  0
  4 16  1  0
  4 17  1  0
  5  6  1  0
  5 18  1  6
  6 10  1  0
  6  7  1  0
  7  8  2  0
  8  9  1  0
  9 10  2  0
M  END
>  <i_m_ct_stereo_status>  (308) 
1

>  <s_m_source_file>  (308) 
/var/tmp/pbs.5076255.sched01/tmp2672eyar/80wl2hclo4.sdf

>  <i_m_source_file_index>  (308) 
40

>  <i_lp_mmshare_version>  (308) 
48012

>  <i_f3d_flags>  (308) 
0

>  <s_epik_input>  (308) 
bjFubmMoW0NIMl1bQ0gyXTIpbjFbQ0BIXShbQ0BIXTIzKVtDSDJdMw==

>  <s_epik_cmdline>  (308) 
J2VwaWtfcHl0aG9uJywgJy1waHQnLCAnMi4wJywgJy1waCcsICc3LjAnLCAnLXRuJywgJzgnLCAnLW1hJywgJzIwMCcsICctaW1hZScsICc8aW5maWxlLm1hZT4nLCAnLW9tYWUnLCAnPG91dGZpbGUubWFlPic=

>  <r_lp_tautomer_probability>  (308) 
1

>  <r_epik_Ionization_Penalty>  (308) 
2.0653e-08

>  <r_epik_Ionization_Penalty_Charging>  (308) 
0

>  <r_epik_Ionization_Penalty_Neutral>  (308) 
2.0653e-08

>  <r_epik_State_Penalty>  (308) 
-0

>  <r_epik_Charging_Adjusted_Penalty>  (308) 
0

>  <i_epik_Tot_Q>  (308) 
0

>  <i_epik_Tot_abs_Q>  (308) 
0

>  <s_lp_Force_Field>  (308) 
OPLS3e

>  <r_lp_Energy>  (308) 
12.4251

>  <b_lp_Chiralities_Consistent>  (308) 
1

>  <s_lp_Variant>  (308) 
88:0-1

>  <s_i_glide_gridfile>  (308) 
pfpi4k_grid

>  <i_i_glide_lignum>  (308) 
40

>  <i_i_glide_rotatable_bonds>  (308) 
0

>  <r_i_docking_score>  (308) 
-3.52529

>  <r_i_glide_ligand_efficiency>  (308) 
-0.352529

>  <r_i_glide_ligand_efficiency_sa>  (308) 
-0.759501

>  <r_i_glide_ligand_efficiency_ln>  (308) 
-1.06743

>  <r_i_glide_gscore>  (308) 
-3.52529

>  <r_i_glide_lipo>  (308) 
0

>  <r_i_glide_hbond>  (308) 
0

>  <r_i_glide_metal>  (308) 
-0

>  <r_i_glide_rewards>  (308) 
-2.25

>  <r_i_glide_evdw>  (308) 
-13.1012

>  <r_i_glide_ecoul>  (308) 
-2.51469

>  <r_i_glide_erotb>  (308) 
0

>  <r_i_glide_esite>  (308) 
-0.243025

>  <r_i_glide_emodel>  (308) 
-19.9564

>  <r_i_glide_energy>  (308) 
-15.6159

>  <r_i_glide_einternal>  (308) 
0

>  <r_i_glide_intrahb_reward>  (308) 
-0

>  <i_i_glide_confnum>  (308) 
1

>  <i_i_glide_posenum>  (308) 
2

>  <r_i_glide_eff_state_penalty>  (308) 
0

>  <ligand_id>  (308) 
88

>  <original_smiles>  (308) 
C1CC2CC2n2nnnc21

>  <smiles>  (308) 
[H]C1([H])c2nnnn2C2([H])C([H])([H])C2([H])C1([H])[H]

$$$$
89:0:0
     RDKit          3D

 28 29  0  0  1  0  0  0  0  0999 V2000
    2.0244    0.1418    1.6731 C   0  0  0  0  0  0  0  0  0  0  0  0
    3.2826   -0.3952    0.9809 C   0  0  0  0  0  0  0  0  0  0  0  0
    3.9395   -1.8857    1.7811 S   0  0  0  0  0  0  0  0  0  0  0  0
    5.4777   -1.9539    0.9016 C   0  0  0  0  0  0  0  0  0  0  0  0
    6.6019   -1.4278    1.3932 N   0  0  0  0  0  0  0  0  0  0  0  0
    7.5792   -1.7118    0.4736 N   0  0  0  0  0  0  0  0  0  0  0  0
    6.9566   -2.3602   -0.5125 C   0  0  0  0  0  0  0  0  0  0  0  0
    7.6470   -2.7869   -1.7573 C   0  0  0  0  0  0  0  0  0  0  0  0
    5.6358   -2.5315   -0.3092 N   0  0  0  0  0  0  0  0  0  0  0  0
    4.6308   -3.1327   -1.1772 C   0  0  0  0  0  0  0  0  0  0  0  0
    4.1582   -2.1910   -2.2379 C   0  0  0  0  0  0  0  0  0  0  0  0
    4.4049   -0.8447   -2.3730 C   0  0  0  0  0  0  0  0  0  0  0  0
    3.7714   -0.2659   -3.5092 C   0  0  0  0  0  0  0  0  0  0  0  0
    3.0526   -1.1744   -4.2275 C   0  0  0  0  0  0  0  0  0  0  0  0
    3.1208   -2.7616   -3.5216 S   0  0  0  0  0  0  0  0  0  0  0  0
    1.6413    1.0042    1.1307 H   0  0  0  0  0  0  0  0  0  0  0  0
    2.2166    0.4630    2.6981 H   0  0  0  0  0  0  0  0  0  0  0  0
    1.2196   -0.5952    1.6861 H   0  0  0  0  0  0  0  0  0  0  0  0
    3.0292   -0.6562   -0.0467 H   0  0  0  0  0  0  0  0  0  0  0  0
    4.0492    0.3862    0.9496 H   0  0  0  0  0  0  0  0  0  0  0  0
    8.7137   -2.5679   -1.6756 H   0  0  0  0  0  0  0  0  0  0  0  0
    7.2374   -2.2561   -2.6208 H   0  0  0  0  0  0  0  0  0  0  0  0
    7.5321   -3.8514   -1.9163 H   0  0  0  0  0  0  0  0  0  0  0  0
    5.0637   -4.0117   -1.6388 H   0  0  0  0  0  0  0  0  0  0  0  0
    3.7843   -3.4575   -0.5741 H   0  0  0  0  0  0  0  0  0  0  0  0
    4.9877   -0.2558   -1.6856 H   0  0  0  0  0  0  0  0  0  0  0  0
    3.8299    0.7874   -3.7348 H   0  0  0  0  0  0  0  0  0  0  0  0
    2.4577   -0.9886   -5.1037 H   0  0  0  0  0  0  0  0  0  0  0  0
  1  2  1  0
  1 16  1  0
  1 17  1  0
  1 18  1  0
  2  3  1  0
  2 19  1  0
  2 20  1  0
  3  4  1  0
  4  9  1  0
  4  5  2  0
  5  6  1  0
  6  7  2  0
  7  8  1  0
  7  9  1  0
  8 21  1  0
  8 22  1  0
  8 23  1  0
  9 10  1  0
 10 11  1  0
 10 24  1  0
 10 25  1  0
 11 15  1  0
 11 12  2  0
 12 13  1  0
 12 26  1  0
 13 14  2  0
 13 27  1  0
 14 15  1  0
 14 28  1  0
M  END
>  <i_m_ct_stereo_status>  (309) 
1

>  <s_m_source_file>  (309) 
/var/tmp/pbs.5076255.sched01/tmpyj7ipo08/120az4jmrmy.sdf

>  <i_m_source_file_index>  (309) 
1

>  <i_lp_mmshare_version>  (309) 
48012

>  <i_f3d_flags>  (309) 
0

>  <s_epik_input>  (309) 
W0NIM11bQ0gyXVNjMW5uYyhbQ0gzXSluMVtDSDJdYzJbY0hdW2NIXVtjSF1zMg==

>  <s_epik_cmdline>  (309) 
J2VwaWtfcHl0aG9uJywgJy1waHQnLCAnMi4wJywgJy1waCcsICc3LjAnLCAnLXRuJywgJzgnLCAnLW1hJywgJzIwMCcsICctaW1hZScsICc8aW5maWxlLm1hZT4nLCAnLW9tYWUnLCAnPG91dGZpbGUubWFlPic=

>  <r_lp_tautomer_probability>  (309) 
1

>  <r_epik_Ionization_Penalty>  (309) 
7.37926e-06

>  <r_epik_Ionization_Penalty_Charging>  (309) 
0

>  <r_epik_Ionization_Penalty_Neutral>  (309) 
7.37926e-06

>  <r_epik_State_Penalty>  (309) 
-0

>  <r_epik_Charging_Adjusted_Penalty>  (309) 
0

>  <i_epik_Tot_Q>  (309) 
0

>  <i_epik_Tot_abs_Q>  (309) 
0

>  <s_lp_Force_Field>  (309) 
OPLS3e

>  <r_lp_Energy>  (309) 
5.52027

>  <b_lp_Chiralities_Consistent>  (309) 
1

>  <s_lp_Variant>  (309) 
89:0-1

>  <s_i_glide_gridfile>  (309) 
pfpi4k_grid

>  <i_i_glide_lignum>  (309) 
1

>  <i_i_glide_rotatable_bonds>  (309) 
4

>  <r_i_docking_score>  (309) 
-3.06324

>  <r_i_glide_ligand_efficiency>  (309) 
-0.204216

>  <r_i_glide_ligand_efficiency_sa>  (309) 
-0.50364

>  <r_i_glide_ligand_efficiency_ln>  (309) 
-0.826105

>  <r_i_glide_gscore>  (309) 
-3.06324

>  <r_i_glide_lipo>  (309) 
-0.465158

>  <r_i_glide_hbond>  (309) 
0

>  <r_i_glide_metal>  (309) 
-0

>  <r_i_glide_rewards>  (309) 
-1.8815

>  <r_i_glide_evdw>  (309) 
-25.1369

>  <r_i_glide_ecoul>  (309) 
-2.07959

>  <r_i_glide_erotb>  (309) 
0.904832

>  <r_i_glide_esite>  (309) 
-0.0526322

>  <r_i_glide_emodel>  (309) 
-31.6185

>  <r_i_glide_energy>  (309) 
-27.2164

>  <r_i_glide_einternal>  (309) 
2.65575

>  <r_i_glide_intrahb_reward>  (309) 
-0

>  <i_i_glide_confnum>  (309) 
4

>  <i_i_glide_posenum>  (309) 
30

>  <r_i_glide_eff_state_penalty>  (309) 
0

>  <ligand_id>  (309) 
89

>  <original_smiles>  (309) 
CCSc1nnc(C)n1Cc1cccs1

>  <smiles>  (309) 
[H]c1sc(C([H])([H])n2c(SC([H])([H])C([H])([H])[H])nnc2C([H])([H])[H])c([H])c1[H]

$$$$
89:0:1
     RDKit          3D

 28 29  0  0  1  0  0  0  0  0999 V2000
   -0.7303   -7.0040    4.9060 C   0  0  0  0  0  0  0  0  0  0  0  0
   -0.9900   -8.3902    4.2913 C   0  0  0  0  0  0  0  0  0  0  0  0
   -1.1569   -8.3909    2.4821 S   0  0  0  0  0  0  0  0  0  0  0  0
    0.3609   -7.5882    2.0615 C   0  0  0  0  0  0  0  0  0  0  0  0
    0.4206   -6.2736    1.8322 N   0  0  0  0  0  0  0  0  0  0  0  0
    1.7308   -5.9991    1.5541 N   0  0  0  0  0  0  0  0  0  0  0  0
    2.3525   -7.1690    1.5887 C   0  0  0  0  0  0  0  0  0  0  0  0
    3.7807   -7.2804    1.2270 C   0  0  0  0  0  0  0  0  0  0  0  0
    1.5519   -8.2176    1.9037 N   0  0  0  0  0  0  0  0  0  0  0  0
    1.8465   -9.6584    1.9969 C   0  0  0  0  0  0  0  0  0  0  0  0
    2.4972  -10.0985    3.2806 C   0  0  0  0  0  0  0  0  0  0  0  0
    3.7610   -9.8522    3.7116 C   0  0  0  0  0  0  0  0  0  0  0  0
    4.0178  -10.3170    5.0314 C   0  0  0  0  0  0  0  0  0  0  0  0
    2.9902  -11.0429    5.5465 C   0  0  0  0  0  0  0  0  0  0  0  0
    1.6613  -11.1029    4.4285 S   0  0  0  0  0  0  0  0  0  0  0  0
   -0.5819   -7.0829    5.9839 H   0  0  0  0  0  0  0  0  0  0  0  0
   -1.5569   -6.3225    4.6927 H   0  0  0  0  0  0  0  0  0  0  0  0
    0.1929   -6.5598    4.5433 H   0  0  0  0  0  0  0  0  0  0  0  0
   -0.1920   -9.0747    4.5646 H   0  0  0  0  0  0  0  0  0  0  0  0
   -1.9066   -8.8088    4.7068 H   0  0  0  0  0  0  0  0  0  0  0  0
    4.1333   -6.2940    0.9415 H   0  0  0  0  0  0  0  0  0  0  0  0
    3.9036   -7.9573    0.3831 H   0  0  0  0  0  0  0  0  0  0  0  0
    4.3738   -7.6149    2.0759 H   0  0  0  0  0  0  0  0  0  0  0  0
    0.9272  -10.2215    1.8604 H   0  0  0  0  0  0  0  0  0  0  0  0
    2.4774   -9.9447    1.1596 H   0  0  0  0  0  0  0  0  0  0  0  0
    4.5722   -9.3427    3.1996 H   0  0  0  0  0  0  0  0  0  0  0  0
    4.9503  -10.1207    5.4993 H   0  0  0  0  0  0  0  0  0  0  0  0
    2.9526  -11.5664    6.4910 H   0  0  0  0  0  0  0  0  0  0  0  0
  1  2  1  0
  1 16  1  0
  1 17  1  0
  1 18  1  0
  2  3  1  0
  2 19  1  0
  2 20  1  0
  3  4  1  0
  4  9  1  0
  4  5  2  0
  5  6  1  0
  6  7  2  0
  7  8  1  0
  7  9  1  0
  8 21  1  0
  8 22  1  0
  8 23  1  0
  9 10  1  0
 10 11  1  0
 10 24  1  0
 10 25  1  0
 11 15  1  0
 11 12  2  0
 12 13  1  0
 12 26  1  0
 13 14  2  0
 13 27  1  0
 14 15  1  0
 14 28  1  0
M  END
>  <i_m_ct_stereo_status>  (310) 
1

>  <s_m_source_file>  (310) 
/var/tmp/pbs.5076255.sched01/tmpyj7ipo08/120az4jmrmy.sdf

>  <i_m_source_file_index>  (310) 
1

>  <i_lp_mmshare_version>  (310) 
48012

>  <i_f3d_flags>  (310) 
0

>  <s_epik_input>  (310) 
W0NIM11bQ0gyXVNjMW5uYyhbQ0gzXSluMVtDSDJdYzJbY0hdW2NIXVtjSF1zMg==

>  <s_epik_cmdline>  (310) 
J2VwaWtfcHl0aG9uJywgJy1waHQnLCAnMi4wJywgJy1waCcsICc3LjAnLCAnLXRuJywgJzgnLCAnLW1hJywgJzIwMCcsICctaW1hZScsICc8aW5maWxlLm1hZT4nLCAnLW9tYWUnLCAnPG91dGZpbGUubWFlPic=

>  <r_lp_tautomer_probability>  (310) 
1

>  <r_epik_Ionization_Penalty>  (310) 
7.37926e-06

>  <r_epik_Ionization_Penalty_Charging>  (310) 
0

>  <r_epik_Ionization_Penalty_Neutral>  (310) 
7.37926e-06

>  <r_epik_State_Penalty>  (310) 
-0

>  <r_epik_Charging_Adjusted_Penalty>  (310) 
0

>  <i_epik_Tot_Q>  (310) 
0

>  <i_epik_Tot_abs_Q>  (310) 
0

>  <s_lp_Force_Field>  (310) 
OPLS3e

>  <r_lp_Energy>  (310) 
5.52027

>  <b_lp_Chiralities_Consistent>  (310) 
1

>  <s_lp_Variant>  (310) 
89:0-1

>  <s_i_glide_gridfile>  (310) 
pfpi4k_grid

>  <i_i_glide_lignum>  (310) 
1

>  <i_i_glide_rotatable_bonds>  (310) 
4

>  <r_i_docking_score>  (310) 
-2.98003

>  <r_i_glide_ligand_efficiency>  (310) 
-0.198669

>  <r_i_glide_ligand_efficiency_sa>  (310) 
-0.489959

>  <r_i_glide_ligand_efficiency_ln>  (310) 
-0.803665

>  <r_i_glide_gscore>  (310) 
-2.98003

>  <r_i_glide_lipo>  (310) 
-0.168505

>  <r_i_glide_hbond>  (310) 
0

>  <r_i_glide_metal>  (310) 
-0

>  <r_i_glide_rewards>  (310) 
-1.77708

>  <r_i_glide_evdw>  (310) 
-20.6945

>  <r_i_glide_ecoul>  (310) 
-4.32145

>  <r_i_glide_erotb>  (310) 
0.904832

>  <r_i_glide_esite>  (310) 
-0.256339

>  <r_i_glide_emodel>  (310) 
-29.5183

>  <r_i_glide_energy>  (310) 
-25.016

>  <r_i_glide_einternal>  (310) 
1.07252

>  <r_i_glide_intrahb_reward>  (310) 
-0

>  <i_i_glide_confnum>  (310) 
1

>  <i_i_glide_posenum>  (310) 
25

>  <r_i_glide_eff_state_penalty>  (310) 
0

>  <ligand_id>  (310) 
89

>  <original_smiles>  (310) 
CCSc1nnc(C)n1Cc1cccs1

>  <smiles>  (310) 
[H]c1sc(C([H])([H])n2c(SC([H])([H])C([H])([H])[H])nnc2C([H])([H])[H])c([H])c1[H]

$$$$
89:0:2
     RDKit          3D

 28 29  0  0  1  0  0  0  0  0999 V2000
   -1.7062   -8.8283    2.1174 C   0  0  0  0  0  0  0  0  0  0  0  0
   -0.7836   -8.7086    3.3469 C   0  0  0  0  0  0  0  0  0  0  0  0
   -0.2984   -7.0252    3.8727 S   0  0  0  0  0  0  0  0  0  0  0  0
    0.6689   -6.5026    2.4930 C   0  0  0  0  0  0  0  0  0  0  0  0
    0.2244   -6.5951    1.2303 N   0  0  0  0  0  0  0  0  0  0  0  0
    1.2290   -6.1495    0.4218 N   0  0  0  0  0  0  0  0  0  0  0  0
    2.1843   -5.7744    1.2667 C   0  0  0  0  0  0  0  0  0  0  0  0
    3.4479   -5.1511    0.7776 C   0  0  0  0  0  0  0  0  0  0  0  0
    1.8849   -5.9360    2.5684 N   0  0  0  0  0  0  0  0  0  0  0  0
    2.6682   -5.5517    3.7432 C   0  0  0  0  0  0  0  0  0  0  0  0
    2.5573   -4.0879    4.0296 C   0  0  0  0  0  0  0  0  0  0  0  0
    3.5493   -3.1510    3.9620 C   0  0  0  0  0  0  0  0  0  0  0  0
    3.1018   -1.8320    4.2785 C   0  0  0  0  0  0  0  0  0  0  0  0
    1.7689   -1.7817    4.5840 C   0  0  0  0  0  0  0  0  0  0  0  0
    1.0332   -3.3579    4.4854 S   0  0  0  0  0  0  0  0  0  0  0  0
   -2.0264   -9.8633    1.9818 H   0  0  0  0  0  0  0  0  0  0  0  0
   -1.2278   -8.5240    1.1932 H   0  0  0  0  0  0  0  0  0  0  0  0
   -2.5947   -8.2254    2.2464 H   0  0  0  0  0  0  0  0  0  0  0  0
   -1.3032   -9.1202    4.2048 H   0  0  0  0  0  0  0  0  0  0  0  0
    0.1039   -9.3219    3.2292 H   0  0  0  0  0  0  0  0  0  0  0  0
    3.3881   -5.1207   -0.3133 H   0  0  0  0  0  0  0  0  0  0  0  0
    4.3207   -5.7444    1.0751 H   0  0  0  0  0  0  0  0  0  0  0  0
    3.5175   -4.1235    1.1495 H   0  0  0  0  0  0  0  0  0  0  0  0
    2.3333   -6.1108    4.6167 H   0  0  0  0  0  0  0  0  0  0  0  0
    3.7211   -5.8131    3.5877 H   0  0  0  0  0  0  0  0  0  0  0  0
    4.5724   -3.3576    3.6855 H   0  0  0  0  0  0  0  0  0  0  0  0
    3.7699   -0.9865    4.2719 H   0  0  0  0  0  0  0  0  0  0  0  0
    1.1853   -0.9215    4.8564 H   0  0  0  0  0  0  0  0  0  0  0  0
  1  2  1  0
  1 16  1  0
  1 17  1  0
  1 18  1  0
  2  3  1  0
  2 19  1  0
  2 20  1  0
  3  4  1  0
  4  9  1  0
  4  5  2  0
  5  6  1  0
  6  7  2  0
  7  8  1  0
  7  9  1  0
  8 21  1  0
  8 22  1  0
  8 23  1  0
  9 10  1  0
 10 11  1  0
 10 24  1  0
 10 25  1  0
 11 15  1  0
 11 12  2  0
 12 13  1  0
 12 26  1  0
 13 14  2  0
 13 27  1  0
 14 15  1  0
 14 28  1  0
M  END
>  <i_m_ct_stereo_status>  (311) 
1

>  <s_m_source_file>  (311) 
/var/tmp/pbs.5076255.sched01/tmpyj7ipo08/120az4jmrmy.sdf

>  <i_m_source_file_index>  (311) 
1

>  <i_lp_mmshare_version>  (311) 
48012

>  <i_f3d_flags>  (311) 
0

>  <s_epik_input>  (311) 
W0NIM11bQ0gyXVNjMW5uYyhbQ0gzXSluMVtDSDJdYzJbY0hdW2NIXVtjSF1zMg==

>  <s_epik_cmdline>  (311) 
J2VwaWtfcHl0aG9uJywgJy1waHQnLCAnMi4wJywgJy1waCcsICc3LjAnLCAnLXRuJywgJzgnLCAnLW1hJywgJzIwMCcsICctaW1hZScsICc8aW5maWxlLm1hZT4nLCAnLW9tYWUnLCAnPG91dGZpbGUubWFlPic=

>  <r_lp_tautomer_probability>  (311) 
1

>  <r_epik_Ionization_Penalty>  (311) 
7.37926e-06

>  <r_epik_Ionization_Penalty_Charging>  (311) 
0

>  <r_epik_Ionization_Penalty_Neutral>  (311) 
7.37926e-06

>  <r_epik_State_Penalty>  (311) 
-0

>  <r_epik_Charging_Adjusted_Penalty>  (311) 
0

>  <i_epik_Tot_Q>  (311) 
0

>  <i_epik_Tot_abs_Q>  (311) 
0

>  <s_lp_Force_Field>  (311) 
OPLS3e

>  <r_lp_Energy>  (311) 
5.52027

>  <b_lp_Chiralities_Consistent>  (311) 
1

>  <s_lp_Variant>  (311) 
89:0-1

>  <s_i_glide_gridfile>  (311) 
pfpi4k_grid

>  <i_i_glide_lignum>  (311) 
1

>  <i_i_glide_rotatable_bonds>  (311) 
4

>  <r_i_docking_score>  (311) 
-2.86972

>  <r_i_glide_ligand_efficiency>  (311) 
-0.191315

>  <r_i_glide_ligand_efficiency_sa>  (311) 
-0.471823

>  <r_i_glide_ligand_efficiency_ln>  (311) 
-0.773916

>  <r_i_glide_gscore>  (311) 
-2.86972

>  <r_i_glide_lipo>  (311) 
-0.187144

>  <r_i_glide_hbond>  (311) 
0

>  <r_i_glide_metal>  (311) 
-0

>  <r_i_glide_rewards>  (311) 
-1.77708

>  <r_i_glide_evdw>  (311) 
-16.5449

>  <r_i_glide_ecoul>  (311) 
-4.3992

>  <r_i_glide_erotb>  (311) 
0.904832

>  <r_i_glide_esite>  (311) 
-0.323208

>  <r_i_glide_emodel>  (311) 
-25.698

>  <r_i_glide_energy>  (311) 
-20.9441

>  <r_i_glide_einternal>  (311) 
0.294374

>  <r_i_glide_intrahb_reward>  (311) 
-0

>  <i_i_glide_confnum>  (311) 
1

>  <i_i_glide_posenum>  (311) 
10

>  <r_i_glide_eff_state_penalty>  (311) 
0

>  <ligand_id>  (311) 
89

>  <original_smiles>  (311) 
CCSc1nnc(C)n1Cc1cccs1

>  <smiles>  (311) 
[H]c1sc(C([H])([H])n2c(SC([H])([H])C([H])([H])[H])nnc2C([H])([H])[H])c([H])c1[H]

$$$$
90:0:0
     RDKit          3D

 81 88  0  0  1  0  0  0  0  0999 V2000
    5.0800   -3.8160    2.9597 C   0  0  0  0  0  0  0  0  0  0  0  0
    4.3098   -2.7585    2.6513 C   0  0  0  0  0  0  0  0  0  0  0  0
    4.9028   -1.4142    2.3373 C   0  0  0  0  0  0  0  0  0  0  0  0
    6.0924   -1.1345    2.4794 O   0  0  0  0  0  0  0  0  0  0  0  0
    3.9919   -0.4756    1.8366 O   0  0  0  0  0  0  0  0  0  0  0  0
    2.6136   -0.7845    1.4766 C   0  0  1  0  0  0  0  0  0  0  0  0
    2.5423   -2.2507    1.0502 C   0  0  1  0  0  0  0  0  0  0  0  0
    3.3427   -2.6344   -0.0496 O   0  0  0  0  0  0  0  0  0  0  0  0
    2.8987   -2.8299    2.3761 C   0  0  0  0  0  0  0  0  0  0  0  0
    2.1239   -2.2207    3.2909 C   0  0  0  0  0  0  0  0  0  0  0  0
    1.6899   -0.8586    2.7390 C   0  0  1  0  0  0  0  0  0  0  0  0
    1.6872    0.4087    3.7114 C   0  0  1  0  0  0  0  0  0  0  0  0
    2.7030    0.1688    4.8749 C   0  0  0  0  0  0  0  0  0  0  0  0
    1.8821    1.7593    2.9519 C   0  0  1  0  0  0  0  0  0  0  0  0
    0.6353    1.7456    2.0886 C   0  0  0  0  0  0  0  0  0  0  0  0
   -0.3486    1.2208    2.8121 C   0  0  0  0  0  0  0  0  0  0  0  0
    0.2404    0.8631    4.1640 C   0  0  1  0  0  0  0  0  0  0  0  0
   -0.5598   -0.2122    4.9208 C   0  0  0  0  0  0  0  0  0  0  0  0
    0.5318    2.2176    4.9305 C   0  0  1  0  0  0  0  0  0  0  0  0
    1.6726    2.8513    4.0571 C   0  0  2  0  0  0  0  0  0  0  0  0
    1.4547    4.3044    3.5404 C   0  0  0  0  0  0  0  0  0  0  0  0
    0.7765    5.2979    4.5244 C   0  0  1  0  0  0  0  0  0  0  0  0
   -0.1842    6.1185    3.8672 O   0  0  0  0  0  0  0  0  0  0  0  0
    0.1589    4.6203    5.8065 C   0  0  2  0  0  0  0  0  0  0  0  0
    1.1085    4.7992    7.1095 C   0  0  2  0  0  0  0  0  0  0  0  0
    2.5852    5.1871    6.7734 C   0  0  0  0  0  0  0  0  0  0  0  0
    1.1884    3.6006    8.0874 C   0  0  0  0  0  0  0  0  0  0  0  0
   -0.0110    3.7138    8.9703 C   0  0  1  0  0  0  0  0  0  0  0  0
    0.1829    4.4969   10.1422 O   0  0  0  0  0  0  0  0  0  0  0  0
   -0.4366    5.1551    9.0181 C   0  0  1  0  0  0  0  0  0  0  0  0
    0.4508    5.8899    8.0334 C   0  0  1  0  0  0  0  0  0  0  0  0
    1.3631    6.6598    8.7869 O   0  0  0  0  0  0  0  0  0  0  0  0
   -0.8809    2.4810    9.0920 C   0  0  1  0  0  0  0  0  0  0  0  0
   -2.1672    2.7100    9.9174 C   0  0  0  0  0  0  0  0  0  0  0  0
   -1.1309    1.8047    7.7190 C   0  0  0  0  0  0  0  0  0  0  0  0
   -1.5820    2.6827    6.5185 C   0  0  1  0  0  0  0  0  0  0  0  0
   -2.4962    3.6657    6.9574 O   0  0  0  0  0  0  0  0  0  0  0  0
   -0.5778    3.2425    5.4176 C   0  0  2  0  0  0  0  0  0  0  0  0
   -1.5789    3.5483    4.2441 C   0  0  0  0  0  0  0  0  0  0  0  0
    4.6595   -4.8054    3.1061 H   0  0  0  0  0  0  0  0  0  0  0  0
    6.1586   -3.7134    3.0451 H   0  0  0  0  0  0  0  0  0  0  0  0
    2.2357   -0.1102    0.7041 H   0  0  0  0  0  0  0  0  0  0  0  0
    1.5232   -2.5297    0.8159 H   0  0  0  0  0  0  0  0  0  0  0  0
    2.9233   -2.2753   -0.8207 H   0  0  0  0  0  0  0  0  0  0  0  0
    2.3346   -2.3141    4.3464 H   0  0  0  0  0  0  0  0  0  0  0  0
    0.6798   -1.0367    2.3726 H   0  0  0  0  0  0  0  0  0  0  0  0
    2.9586    1.0334    5.4776 H   0  0  0  0  0  0  0  0  0  0  0  0
    3.6528   -0.1963    4.4951 H   0  0  0  0  0  0  0  0  0  0  0  0
    2.3256   -0.5692    5.5818 H   0  0  0  0  0  0  0  0  0  0  0  0
    2.8068    1.8517    2.3855 H   0  0  0  0  0  0  0  0  0  0  0  0
    0.5712    2.1289    1.0850 H   0  0  0  0  0  0  0  0  0  0  0  0
   -1.3763    1.0739    2.5137 H   0  0  0  0  0  0  0  0  0  0  0  0
   -0.0817   -0.4635    5.8658 H   0  0  0  0  0  0  0  0  0  0  0  0
   -0.6355   -1.1318    4.3438 H   0  0  0  0  0  0  0  0  0  0  0  0
   -1.5771    0.1114    5.1271 H   0  0  0  0  0  0  0  0  0  0  0  0
    1.0134    1.8877    5.8347 H   0  0  0  0  0  0  0  0  0  0  0  0
    2.5806    2.9102    4.6512 H   0  0  0  0  0  0  0  0  0  0  0  0
    2.4139    4.7144    3.2242 H   0  0  0  0  0  0  0  0  0  0  0  0
    0.8976    4.2736    2.6183 H   0  0  0  0  0  0  0  0  0  0  0  0
    1.5036    6.0619    4.7706 H   0  0  0  0  0  0  0  0  0  0  0  0
    0.2448    6.6732    3.2187 H   0  0  0  0  0  0  0  0  0  0  0  0
   -0.6973    5.2564    6.0223 H   0  0  0  0  0  0  0  0  0  0  0  0
    3.2448    5.1246    7.6384 H   0  0  0  0  0  0  0  0  0  0  0  0
    2.6841    6.2210    6.4420 H   0  0  0  0  0  0  0  0  0  0  0  0
    3.0209    4.5408    6.0145 H   0  0  0  0  0  0  0  0  0  0  0  0
    1.3430    2.6236    7.6600 H   0  0  0  0  0  0  0  0  0  0  0  0
    2.0438    3.7146    8.7551 H   0  0  0  0  0  0  0  0  0  0  0  0
   -1.4836    5.4281    9.1223 H   0  0  0  0  0  0  0  0  0  0  0  0
   -0.1376    6.6191    7.4764 H   0  0  0  0  0  0  0  0  0  0  0  0
    1.7445    6.0810    9.4335 H   0  0  0  0  0  0  0  0  0  0  0  0
   -0.2972    1.7655    9.6719 H   0  0  0  0  0  0  0  0  0  0  0  0
   -2.8391    3.4485    9.4794 H   0  0  0  0  0  0  0  0  0  0  0  0
   -1.9319    3.0393   10.9328 H   0  0  0  0  0  0  0  0  0  0  0  0
   -2.7330    1.7845   10.0186 H   0  0  0  0  0  0  0  0  0  0  0  0
   -0.2648    1.2095    7.4413 H   0  0  0  0  0  0  0  0  0  0  0  0
   -1.9041    1.0546    7.8838 H   0  0  0  0  0  0  0  0  0  0  0  0
   -2.2422    1.9990    5.9909 H   0  0  0  0  0  0  0  0  0  0  0  0
   -2.0768    4.1684    7.6404 H   0  0  0  0  0  0  0  0  0  0  0  0
   -2.2128    4.4073    4.4676 H   0  0  0  0  0  0  0  0  0  0  0  0
   -2.2557    2.7208    4.0281 H   0  0  0  0  0  0  0  0  0  0  0  0
   -1.0973    3.7647    3.2947 H   0  0  0  0  0  0  0  0  0  0  0  0
  1  2  2  0
  1 40  1  0
  1 41  1  0
  2  9  1  0
  2  3  1  0
  3  4  2  0
  3  5  1  0
  5  6  1  0
  6 11  1  0
  6  7  1  0
  6 42  1  6
  7  8  1  0
  7  9  1  0
  7 43  1  6
  8 44  1  0
  9 10  2  0
 10 11  1  0
 10 45  1  0
 11 12  1  0
 11 46  1  6
 12 17  1  0
 12 13  1  1
 12 14  1  0
 13 47  1  0
 13 48  1  0
 13 49  1  0
 14 20  1  0
 14 15  1  0
 14 50  1  6
 15 16  2  0
 15 51  1  0
 16 17  1  0
 16 52  1  0
 17 18  1  1
 17 19  1  0
 18 53  1  0
 18 54  1  0
 18 55  1  0
 19 38  1  0
 19 20  1  0
 19 56  1  1
 20 21  1  0
 20 57  1  1
 21 22  1  0
 21 58  1  0
 21 59  1  0
 22 23  1  0
 22 24  1  0
 22 60  1  1
 23 61  1  0
 24 38  1  0
 24 25  1  0
 24 62  1  1
 25 31  1  0
 25 26  1  6
 25 27  1  0
 26 63  1  0
 26 64  1  0
 26 65  1  0
 27 28  1  0
 27 66  1  0
 27 67  1  0
 28 30  1  0
 28 29  1  1
 28 33  1  0
 29 30  1  0
 30 31  1  0
 30 68  1  1
 31 32  1  0
 31 69  1  6
 32 70  1  0
 33 34  1  0
 33 35  1  0
 33 71  1  1
 34 72  1  0
 34 73  1  0
 34 74  1  0
 35 36  1  0
 35 75  1  0
 35 76  1  0
 36 37  1  0
 36 38  1  0
 36 77  1  6
 37 78  1  0
 38 39  1  6
 39 79  1  0
 39 80  1  0
 39 81  1  0
M  END
>  <i_m_ct_stereo_status>  (312) 
1

>  <s_m_source_file>  (312) 
/var/tmp/pbs.5076255.sched01/tmpyj7ipo08/120az4jmrmy.sdf

>  <i_m_source_file_index>  (312) 
2

>  <i_lp_mmshare_version>  (312) 
48012

>  <i_f3d_flags>  (312) 
0

>  <s_epik_input>  (312) 
W0NASF0xMk9DKD1PKUMoPVtDSDJdKUMoW0NAQEhdMVtPSF0pPVtDSF1bQ0BIXTJbQ0BAXShbQ0gzXSkoW0NAQEhdKFtDSF09W0NIXTMpW0NASF00W0NIMl1bQ0BIXTVbT0hdKVtDQEBdMyhbQ0gzXSlbQ0BASF00W0NAXShbQ0gzXSkoW0NASF01W0NAXShbQ0gzXSkoW0NIMl02KVtDQEBIXShbQ0BASF0oW0NAQF02NzgpTzcpW09IXSlbQ0BIXShbT0hdKVtDSDJdW0NAQEhdOFtDSDNd

>  <s_epik_cmdline>  (312) 
J2VwaWtfcHl0aG9uJywgJy1waHQnLCAnMi4wJywgJy1waCcsICc3LjAnLCAnLXRuJywgJzgnLCAnLW1hJywgJzIwMCcsICctaW1hZScsICc8aW5maWxlLm1hZT4nLCAnLW9tYWUnLCAnPG91dGZpbGUubWFlPic=

>  <r_epik_Ionization_Penalty>  (312) 
0.0619898

>  <r_epik_Ionization_Penalty_Charging>  (312) 
0

>  <r_epik_Ionization_Penalty_Neutral>  (312) 
0.0619898

>  <r_epik_State_Penalty>  (312) 
0.0538414

>  <r_epik_Charging_Adjusted_Penalty>  (312) 
0.0538414

>  <i_epik_Tot_Q>  (312) 
0

>  <i_epik_Tot_abs_Q>  (312) 
0

>  <s_epik_Chemistry_Notes>  (312) 
This compound has an ester and may undergo hydrolysis at high or low pH.

>  <s_lp_Force_Field>  (312) 
OPLS3e

>  <r_lp_Energy>  (312) 
184.769

>  <b_lp_Chiralities_Consistent>  (312) 
1

>  <s_lp_Variant>  (312) 
90:0-1

>  <s_i_glide_gridfile>  (312) 
pfpi4k_grid

>  <i_i_glide_lignum>  (312) 
2

>  <i_i_glide_rotatable_bonds>  (312) 
5

>  <r_i_docking_score>  (312) 
-2.64788

>  <r_i_glide_ligand_efficiency>  (312) 
-0.0678944

>  <r_i_glide_ligand_efficiency_sa>  (312) 
-0.230244

>  <r_i_glide_ligand_efficiency_ln>  (312) 
-0.567781

>  <r_i_glide_gscore>  (312) 
-2.64788

>  <r_i_glide_lipo>  (312) 
-0.0920029

>  <r_i_glide_hbond>  (312) 
-0.135108

>  <r_i_glide_metal>  (312) 
-0

>  <r_i_glide_rewards>  (312) 
-0.107327

>  <r_i_glide_evdw>  (312) 
-28.3215

>  <r_i_glide_ecoul>  (312) 
-6.45723

>  <r_i_glide_erotb>  (312) 
0.0712138

>  <r_i_glide_esite>  (312) 
0

>  <r_i_glide_emodel>  (312) 
-39.5787

>  <r_i_glide_energy>  (312) 
-34.7787

>  <r_i_glide_einternal>  (312) 
2.51521

>  <r_i_glide_intrahb_reward>  (312) 
-0

>  <i_i_glide_confnum>  (312) 
1

>  <i_i_glide_posenum>  (312) 
15

>  <r_i_glide_eff_state_penalty>  (312) 
0

>  <ligand_id>  (312) 
90

>  <original_smiles>  (312) 
C=C1C(=O)OC2C(O)C1=CC2C1(C)C2C=CC1(C)C1C2CC(O)C2C3(C)CC4(OC4C3O)C(C)CC(O)C21C

>  <smiles>  (312) 
[H]OC1([H])C2=C([H])C([H])(C3(C([H])([H])[H])C4([H])C([H])=C([H])C3(C([H])([H])[H])C3([H])C4([H])C([H])([H])C([H])(O[H])C4([H])C5(C([H])([H])[H])C([H])([H])C6(OC6([H])C5([H])O[H])C([H])(C([H])([H])[H])C([H])([H])C([H])(O[H])C34C([H])([H])[H])C1([H])OC(=O)C2=C([H])[H]

$$$$
90:0:1
     RDKit          3D

 81 88  0  0  1  0  0  0  0  0999 V2000
    5.0582   -3.8008    3.0951 C   0  0  0  0  0  0  0  0  0  0  0  0
    4.2708   -2.7418    2.8035 C   0  0  0  0  0  0  0  0  0  0  0  0
    4.8460   -1.4010    2.5064 C   0  0  0  0  0  0  0  0  0  0  0  0
    6.0397   -1.1108    2.6334 O   0  0  0  0  0  0  0  0  0  0  0  0
    3.9286   -0.4553    2.0231 O   0  0  0  0  0  0  0  0  0  0  0  0
    2.5512   -0.7630    1.6722 C   0  0  1  0  0  0  0  0  0  0  0  0
    2.4932   -2.2262    1.2331 C   0  0  1  0  0  0  0  0  0  0  0  0
    3.3059   -2.5782    0.1184 O   0  0  0  0  0  0  0  0  0  0  0  0
    2.8649   -2.8326    2.5409 C   0  0  0  0  0  0  0  0  0  0  0  0
    2.1102   -2.2364    3.4769 C   0  0  0  0  0  0  0  0  0  0  0  0
    1.6576   -0.8674    2.9428 C   0  0  1  0  0  0  0  0  0  0  0  0
    1.6563    0.3884    3.9259 C   0  0  1  0  0  0  0  0  0  0  0  0
    2.6465    0.1238    5.1074 C   0  0  0  0  0  0  0  0  0  0  0  0
    1.8822    1.7396    3.1817 C   0  0  1  0  0  0  0  0  0  0  0  0
    0.6555    1.7459    2.2927 C   0  0  0  0  0  0  0  0  0  0  0  0
   -0.3565    1.2326    2.9952 C   0  0  0  0  0  0  0  0  0  0  0  0
    0.2024    0.8580    4.3508 C   0  0  1  0  0  0  0  0  0  0  0  0
   -0.6274   -0.2134    5.0851 C   0  0  0  0  0  0  0  0  0  0  0  0
    0.4996    2.1981    5.1334 C   0  0  1  0  0  0  0  0  0  0  0  0
    1.6677    2.8235    4.2906 C   0  0  2  0  0  0  0  0  0  0  0  0
    1.4578    4.2762    3.7731 C   0  0  0  0  0  0  0  0  0  0  0  0
    0.8087    5.2763    4.7642 C   0  0  1  0  0  0  0  0  0  0  0  0
   -0.1308    6.1114    4.0912 O   0  0  0  0  0  0  0  0  0  0  0  0
    0.1537    4.6030    6.0263 C   0  0  2  0  0  0  0  0  0  0  0  0
    1.0767    4.7511    7.3466 C   0  0  2  0  0  0  0  0  0  0  0  0
    2.5638    5.1213    7.0477 C   0  0  0  0  0  0  0  0  0  0  0  0
    1.1098    3.5443    8.3138 C   0  0  0  0  0  0  0  0  0  0  0  0
   -0.1013    3.6687    9.1677 C   0  0  1  0  0  0  0  0  0  0  0  0
    0.0865    4.4281   10.3644 O   0  0  0  0  0  0  0  0  0  0  0  0
   -0.4954    5.1284    9.2356 C   0  0  1  0  0  0  0  0  0  0  0  0
    0.4192    5.8431    8.2653 C   0  0  1  0  0  0  0  0  0  0  0  0
    1.3521    6.5981    9.0117 O   0  0  0  0  0  0  0  0  0  0  0  0
   -0.9859    2.4585    9.2674 C   0  0  1  0  0  0  0  0  0  0  0  0
   -2.2808    2.7015   10.0721 C   0  0  0  0  0  0  0  0  0  0  0  0
   -1.2167    1.7934    7.8841 C   0  0  0  0  0  0  0  0  0  0  0  0
   -1.6249    2.6906    6.6859 C   0  0  1  0  0  0  0  0  0  0  0  0
   -2.4960    3.7111    7.1358 O   0  0  0  0  0  0  0  0  0  0  0  0
   -0.5955    3.2383    5.6111 C   0  0  2  0  0  0  0  0  0  0  0  0
   -1.5774    3.5631    4.4300 C   0  0  0  0  0  0  0  0  0  0  0  0
    4.6577   -4.7935    3.2282 H   0  0  0  0  0  0  0  0  0  0  0  0
    6.1318   -3.6754    3.1639 H   0  0  0  0  0  0  0  0  0  0  0  0
    2.1606   -0.1024    0.8981 H   0  0  0  0  0  0  0  0  0  0  0  0
    1.4672   -2.5079    0.9976 H   0  0  0  0  0  0  0  0  0  0  0  0
    2.9035   -2.1759   -0.6317 H   0  0  0  0  0  0  0  0  0  0  0  0
    2.3947   -2.3373    4.5119 H   0  0  0  0  0  0  0  0  0  0  0  0
    0.6436   -1.0572    2.6029 H   0  0  0  0  0  0  0  0  0  0  0  0
    2.9064    0.9770    5.7291 H   0  0  0  0  0  0  0  0  0  0  0  0
    3.5966   -0.2527    4.7342 H   0  0  0  0  0  0  0  0  0  0  0  0
    2.2412   -0.6169    5.7996 H   0  0  0  0  0  0  0  0  0  0  0  0
    2.8153    1.8316    2.6274 H   0  0  0  0  0  0  0  0  0  0  0  0
    0.6131    2.1073    1.2821 H   0  0  0  0  0  0  0  0  0  0  0  0
   -1.3712    1.0972    2.6622 H   0  0  0  0  0  0  0  0  0  0  0  0
   -0.1698   -0.4766    6.0372 H   0  0  0  0  0  0  0  0  0  0  0  0
   -0.7081   -1.1277    4.4982 H   0  0  0  0  0  0  0  0  0  0  0  0
   -1.6444    0.1226    5.2730 H   0  0  0  0  0  0  0  0  0  0  0  0
    0.9526    1.8432    6.0399 H   0  0  0  0  0  0  0  0  0  0  0  0
    2.5700    2.8715    4.9011 H   0  0  0  0  0  0  0  0  0  0  0  0
    2.4235    4.6765    3.4768 H   0  0  0  0  0  0  0  0  0  0  0  0
    0.8871    4.2607    2.8552 H   0  0  0  0  0  0  0  0  0  0  0  0
    1.5509    6.0238    5.0238 H   0  0  0  0  0  0  0  0  0  0  0  0
    0.3155    6.6251    3.4264 H   0  0  0  0  0  0  0  0  0  0  0  0
   -0.6918    5.2616    6.2312 H   0  0  0  0  0  0  0  0  0  0  0  0
    3.2040    5.0402    7.9265 H   0  0  0  0  0  0  0  0  0  0  0  0
    2.6840    6.1584    6.7300 H   0  0  0  0  0  0  0  0  0  0  0  0
    3.0071    4.4758    6.2944 H   0  0  0  0  0  0  0  0  0  0  0  0
    1.2489    2.5595    7.8842 H   0  0  0  0  0  0  0  0  0  0  0  0
    1.9474    3.6363    9.0054 H   0  0  0  0  0  0  0  0  0  0  0  0
   -1.5406    5.3990    9.3033 H   0  0  0  0  0  0  0  0  0  0  0  0
   -0.1519    6.5904    7.7118 H   0  0  0  0  0  0  0  0  0  0  0  0
    1.7633    5.9942    9.6075 H   0  0  0  0  0  0  0  0  0  0  0  0
   -0.4158    1.7330    9.8528 H   0  0  0  0  0  0  0  0  0  0  0  0
   -2.9335    3.4601    9.6387 H   0  0  0  0  0  0  0  0  0  0  0  0
   -2.0487    3.0216   11.0905 H   0  0  0  0  0  0  0  0  0  0  0  0
   -2.8601    1.7856   10.1698 H   0  0  0  0  0  0  0  0  0  0  0  0
   -0.3570    1.1837    7.6201 H   0  0  0  0  0  0  0  0  0  0  0  0
   -2.0092    1.0606    8.0302 H   0  0  0  0  0  0  0  0  0  0  0  0
   -2.2938    2.0223    6.1467 H   0  0  0  0  0  0  0  0  0  0  0  0
   -2.9811    3.3748    7.8719 H   0  0  0  0  0  0  0  0  0  0  0  0
   -2.1972    4.4332    4.6520 H   0  0  0  0  0  0  0  0  0  0  0  0
   -2.2584    2.7439    4.1968 H   0  0  0  0  0  0  0  0  0  0  0  0
   -1.0791    3.7784    3.4928 H   0  0  0  0  0  0  0  0  0  0  0  0
  1  2  2  0
  1 40  1  0
  1 41  1  0
  2  9  1  0
  2  3  1  0
  3  4  2  0
  3  5  1  0
  5  6  1  0
  6 11  1  0
  6  7  1  0
  6 42  1  6
  7  8  1  0
  7  9  1  0
  7 43  1  6
  8 44  1  0
  9 10  2  0
 10 11  1  0
 10 45  1  0
 11 12  1  0
 11 46  1  6
 12 17  1  0
 12 13  1  1
 12 14  1  0
 13 47  1  0
 13 48  1  0
 13 49  1  0
 14 20  1  0
 14 15  1  0
 14 50  1  6
 15 16  2  0
 15 51  1  0
 16 17  1  0
 16 52  1  0
 17 18  1  1
 17 19  1  0
 18 53  1  0
 18 54  1  0
 18 55  1  0
 19 38  1  0
 19 20  1  0
 19 56  1  1
 20 21  1  0
 20 57  1  1
 21 22  1  0
 21 58  1  0
 21 59  1  0
 22 23  1  0
 22 24  1  0
 22 60  1  1
 23 61  1  0
 24 38  1  0
 24 25  1  0
 24 62  1  1
 25 31  1  0
 25 26  1  6
 25 27  1  0
 26 63  1  0
 26 64  1  0
 26 65  1  0
 27 28  1  0
 27 66  1  0
 27 67  1  0
 28 30  1  0
 28 29  1  1
 28 33  1  0
 29 30  1  0
 30 31  1  0
 30 68  1  1
 31 32  1  0
 31 69  1  6
 32 70  1  0
 33 34  1  0
 33 35  1  0
 33 71  1  1
 34 72  1  0
 34 73  1  0
 34 74  1  0
 35 36  1  0
 35 75  1  0
 35 76  1  0
 36 37  1  0
 36 38  1  0
 36 77  1  6
 37 78  1  0
 38 39  1  6
 39 79  1  0
 39 80  1  0
 39 81  1  0
M  END
>  <i_m_ct_stereo_status>  (313) 
1

>  <s_m_source_file>  (313) 
/var/tmp/pbs.5076255.sched01/tmpyj7ipo08/120az4jmrmy.sdf

>  <i_m_source_file_index>  (313) 
2

>  <i_lp_mmshare_version>  (313) 
48012

>  <i_f3d_flags>  (313) 
0

>  <s_epik_input>  (313) 
W0NASF0xMk9DKD1PKUMoPVtDSDJdKUMoW0NAQEhdMVtPSF0pPVtDSF1bQ0BIXTJbQ0BAXShbQ0gzXSkoW0NAQEhdKFtDSF09W0NIXTMpW0NASF00W0NIMl1bQ0BIXTVbT0hdKVtDQEBdMyhbQ0gzXSlbQ0BASF00W0NAXShbQ0gzXSkoW0NASF01W0NAXShbQ0gzXSkoW0NIMl02KVtDQEBIXShbQ0BASF0oW0NAQF02NzgpTzcpW09IXSlbQ0BIXShbT0hdKVtDSDJdW0NAQEhdOFtDSDNd

>  <s_epik_cmdline>  (313) 
J2VwaWtfcHl0aG9uJywgJy1waHQnLCAnMi4wJywgJy1waCcsICc3LjAnLCAnLXRuJywgJzgnLCAnLW1hJywgJzIwMCcsICctaW1hZScsICc8aW5maWxlLm1hZT4nLCAnLW9tYWUnLCAnPG91dGZpbGUubWFlPic=

>  <r_epik_Ionization_Penalty>  (313) 
0.0619898

>  <r_epik_Ionization_Penalty_Charging>  (313) 
0

>  <r_epik_Ionization_Penalty_Neutral>  (313) 
0.0619898

>  <r_epik_State_Penalty>  (313) 
0.0538414

>  <r_epik_Charging_Adjusted_Penalty>  (313) 
0.0538414

>  <i_epik_Tot_Q>  (313) 
0

>  <i_epik_Tot_abs_Q>  (313) 
0

>  <s_epik_Chemistry_Notes>  (313) 
This compound has an ester and may undergo hydrolysis at high or low pH.

>  <s_lp_Force_Field>  (313) 
OPLS3e

>  <r_lp_Energy>  (313) 
184.769

>  <b_lp_Chiralities_Consistent>  (313) 
1

>  <s_lp_Variant>  (313) 
90:0-1

>  <s_i_glide_gridfile>  (313) 
pfpi4k_grid

>  <i_i_glide_lignum>  (313) 
2

>  <i_i_glide_rotatable_bonds>  (313) 
5

>  <r_i_docking_score>  (313) 
-2.59244

>  <r_i_glide_ligand_efficiency>  (313) 
-0.0664728

>  <r_i_glide_ligand_efficiency_sa>  (313) 
-0.225423

>  <r_i_glide_ligand_efficiency_ln>  (313) 
-0.555893

>  <r_i_glide_gscore>  (313) 
-2.59244

>  <r_i_glide_lipo>  (313) 
-0.0869872

>  <r_i_glide_hbond>  (313) 
-0.0708896

>  <r_i_glide_metal>  (313) 
-0

>  <r_i_glide_rewards>  (313) 
-0.100012

>  <r_i_glide_evdw>  (313) 
-29.4384

>  <r_i_glide_ecoul>  (313) 
-6.22564

>  <r_i_glide_erotb>  (313) 
0.0712138

>  <r_i_glide_esite>  (313) 
0

>  <r_i_glide_emodel>  (313) 
-39.9451

>  <r_i_glide_energy>  (313) 
-35.664

>  <r_i_glide_einternal>  (313) 
3.30998

>  <r_i_glide_intrahb_reward>  (313) 
-0

>  <i_i_glide_confnum>  (313) 
3

>  <i_i_glide_posenum>  (313) 
35

>  <r_i_glide_eff_state_penalty>  (313) 
0

>  <ligand_id>  (313) 
90

>  <original_smiles>  (313) 
C=C1C(=O)OC2C(O)C1=CC2C1(C)C2C=CC1(C)C1C2CC(O)C2C3(C)CC4(OC4C3O)C(C)CC(O)C21C

>  <smiles>  (313) 
[H]OC1([H])C2=C([H])C([H])(C3(C([H])([H])[H])C4([H])C([H])=C([H])C3(C([H])([H])[H])C3([H])C4([H])C([H])([H])C([H])(O[H])C4([H])C5(C([H])([H])[H])C([H])([H])C6(OC6([H])C5([H])O[H])C([H])(C([H])([H])[H])C([H])([H])C([H])(O[H])C34C([H])([H])[H])C1([H])OC(=O)C2=C([H])[H]

$$$$
90:0:2
     RDKit          3D

 81 88  0  0  1  0  0  0  0  0999 V2000
    1.2677   -6.4247    0.9963 C   0  0  0  0  0  0  0  0  0  0  0  0
    2.0531   -5.6966    1.8290 C   0  0  0  0  0  0  0  0  0  0  0  0
    1.9372   -5.8390    3.3062 C   0  0  0  0  0  0  0  0  0  0  0  0
    1.0124   -6.4360    3.8426 O   0  0  0  0  0  0  0  0  0  0  0  0
    2.9771   -5.2239    4.0355 O   0  0  0  0  0  0  0  0  0  0  0  0
    4.0397   -4.4096    3.4459 C   0  0  1  0  0  0  0  0  0  0  0  0
    4.4254   -5.0823    2.1198 C   0  0  1  0  0  0  0  0  0  0  0  0
    4.7832   -6.4568    2.2177 O   0  0  0  0  0  0  0  0  0  0  0  0
    3.1091   -4.8126    1.4351 C   0  0  0  0  0  0  0  0  0  0  0  0
    2.7945   -3.5141    1.6234 C   0  0  0  0  0  0  0  0  0  0  0  0
    3.5213   -3.0300    2.8689 C   0  0  1  0  0  0  0  0  0  0  0  0
    2.7722   -1.9749    3.8253 C   0  0  1  0  0  0  0  0  0  0  0  0
    1.4253   -2.5916    4.3380 C   0  0  0  0  0  0  0  0  0  0  0  0
    3.7095   -1.4174    4.9527 C   0  0  1  0  0  0  0  0  0  0  0  0
    4.7357   -0.6675    4.1209 C   0  0  0  0  0  0  0  0  0  0  0  0
    4.0850   -0.1256    3.0907 C   0  0  0  0  0  0  0  0  0  0  0  0
    2.6262   -0.5047    3.2353 C   0  0  1  0  0  0  0  0  0  0  0  0
    1.8368   -0.3825    1.9204 C   0  0  0  0  0  0  0  0  0  0  0  0
    2.0459    0.2981    4.4698 C   0  0  1  0  0  0  0  0  0  0  0  0
    2.8409   -0.3273    5.6722 C   0  0  2  0  0  0  0  0  0  0  0  0
    3.6165    0.6702    6.5794 C   0  0  0  0  0  0  0  0  0  0  0  0
    2.8638    1.9837    6.9240 C   0  0  1  0  0  0  0  0  0  0  0  0
    3.7806    3.0638    6.9191 O   0  0  0  0  0  0  0  0  0  0  0  0
    1.5891    2.2798    6.0488 C   0  0  2  0  0  0  0  0  0  0  0  0
    0.2092    1.9493    6.8409 C   0  0  2  0  0  0  0  0  0  0  0  0
    0.3928    1.0364    8.0962 C   0  0  0  0  0  0  0  0  0  0  0  0
   -0.9420    1.3286    6.0117 C   0  0  0  0  0  0  0  0  0  0  0  0
   -1.6098    2.4669    5.3247 C   0  0  1  0  0  0  0  0  0  0  0  0
   -2.6786    3.0661    6.0731 O   0  0  0  0  0  0  0  0  0  0  0  0
   -1.3798    3.7188    6.1394 C   0  0  1  0  0  0  0  0  0  0  0  0
   -0.4382    3.3237    7.2535 C   0  0  1  0  0  0  0  0  0  0  0  0
   -1.1911    3.2941    8.4504 O   0  0  0  0  0  0  0  0  0  0  0  0
   -1.7938    2.3508    3.8376 C   0  0  1  0  0  0  0  0  0  0  0  0
   -2.3974    3.5950    3.1714 C   0  0  0  0  0  0  0  0  0  0  0  0
   -0.5254    1.8230    3.1252 C   0  0  0  0  0  0  0  0  0  0  0  0
    0.8368    2.4802    3.4722 C   0  0  1  0  0  0  0  0  0  0  0  0
    0.6908    3.8781    3.6225 O   0  0  0  0  0  0  0  0  0  0  0  0
    1.8605    1.8715    4.5251 C   0  0  2  0  0  0  0  0  0  0  0  0
    3.1840    2.5742    4.0808 C   0  0  0  0  0  0  0  0  0  0  0  0
    1.3950   -6.3622   -0.0707 H   0  0  0  0  0  0  0  0  0  0  0  0
    0.5349   -7.1147    1.3983 H   0  0  0  0  0  0  0  0  0  0  0  0
    4.9000   -4.2770    4.1145 H   0  0  0  0  0  0  0  0  0  0  0  0
    5.2189   -4.5453    1.5897 H   0  0  0  0  0  0  0  0  0  0  0  0
    4.1135   -6.9033    2.7082 H   0  0  0  0  0  0  0  0  0  0  0  0
    1.7889   -3.1707    1.4546 H   0  0  0  0  0  0  0  0  0  0  0  0
    4.4051   -2.5579    2.4482 H   0  0  0  0  0  0  0  0  0  0  0  0
    0.9030   -2.0157    5.1022 H   0  0  0  0  0  0  0  0  0  0  0  0
    1.5711   -3.5469    4.8179 H   0  0  0  0  0  0  0  0  0  0  0  0
    0.7150   -2.7018    3.5142 H   0  0  0  0  0  0  0  0  0  0  0  0
    4.1564   -2.1731    5.5988 H   0  0  0  0  0  0  0  0  0  0  0  0
    5.7885   -0.5834    4.3497 H   0  0  0  0  0  0  0  0  0  0  0  0
    4.4939    0.4780    2.2911 H   0  0  0  0  0  0  0  0  0  0  0  0
    0.8227   -0.7629    2.0452 H   0  0  0  0  0  0  0  0  0  0  0  0
    2.3054   -0.9508    1.1183 H   0  0  0  0  0  0  0  0  0  0  0  0
    1.7663    0.6421    1.5501 H   0  0  0  0  0  0  0  0  0  0  0  0
    1.0403   -0.0706    4.5434 H   0  0  0  0  0  0  0  0  0  0  0  0
    2.1460   -0.8343    6.3378 H   0  0  0  0  0  0  0  0  0  0  0  0
    3.8343    0.1637    7.5180 H   0  0  0  0  0  0  0  0  0  0  0  0
    4.6060    0.8835    6.1744 H   0  0  0  0  0  0  0  0  0  0  0  0
    2.6397    1.9794    7.9810 H   0  0  0  0  0  0  0  0  0  0  0  0
    4.0883    3.1727    6.0387 H   0  0  0  0  0  0  0  0  0  0  0  0
    1.5848    3.3649    5.9783 H   0  0  0  0  0  0  0  0  0  0  0  0
   -0.5551    0.6878    8.5070 H   0  0  0  0  0  0  0  0  0  0  0  0
    0.8633    1.5613    8.9283 H   0  0  0  0  0  0  0  0  0  0  0  0
    0.9786    0.1470    7.8771 H   0  0  0  0  0  0  0  0  0  0  0  0
   -0.6927    0.5046    5.3572 H   0  0  0  0  0  0  0  0  0  0  0  0
   -1.6993    0.9074    6.6718 H   0  0  0  0  0  0  0  0  0  0  0  0
   -1.2753    4.6773    5.6428 H   0  0  0  0  0  0  0  0  0  0  0  0
    0.2991    4.1114    7.4035 H   0  0  0  0  0  0  0  0  0  0  0  0
   -1.9923    2.8418    8.2545 H   0  0  0  0  0  0  0  0  0  0  0  0
   -2.5521    1.5828    3.7133 H   0  0  0  0  0  0  0  0  0  0  0  0
   -1.7720    4.4827    3.2804 H   0  0  0  0  0  0  0  0  0  0  0  0
   -3.3795    3.7862    3.5948 H   0  0  0  0  0  0  0  0  0  0  0  0
   -2.5507    3.4300    2.1068 H   0  0  0  0  0  0  0  0  0  0  0  0
   -0.4641    0.7455    3.2359 H   0  0  0  0  0  0  0  0  0  0  0  0
   -0.6967    1.9494    2.0567 H   0  0  0  0  0  0  0  0  0  0  0  0
    1.3401    2.4321    2.5112 H   0  0  0  0  0  0  0  0  0  0  0  0
    0.4915    4.2232    2.7566 H   0  0  0  0  0  0  0  0  0  0  0  0
    3.1809    3.6419    4.3042 H   0  0  0  0  0  0  0  0  0  0  0  0
    3.3516    2.4904    3.0056 H   0  0  0  0  0  0  0  0  0  0  0  0
    4.0812    2.1533    4.5163 H   0  0  0  0  0  0  0  0  0  0  0  0
  1  2  2  0
  1 40  1  0
  1 41  1  0
  2  9  1  0
  2  3  1  0
  3  4  2  0
  3  5  1  0
  5  6  1  0
  6 11  1  0
  6  7  1  0
  6 42  1  1
  7  8  1  0
  7  9  1  0
  7 43  1  6
  8 44  1  0
  9 10  2  0
 10 11  1  0
 10 45  1  0
 11 12  1  0
 11 46  1  6
 12 17  1  0
 12 13  1  1
 12 14  1  0
 13 47  1  0
 13 48  1  0
 13 49  1  0
 14 20  1  0
 14 15  1  0
 14 50  1  1
 15 16  2  0
 15 51  1  0
 16 17  1  0
 16 52  1  0
 17 18  1  6
 17 19  1  0
 18 53  1  0
 18 54  1  0
 18 55  1  0
 19 38  1  0
 19 20  1  0
 19 56  1  1
 20 21  1  0
 20 57  1  1
 21 22  1  0
 21 58  1  0
 21 59  1  0
 22 23  1  0
 22 24  1  0
 22 60  1  1
 23 61  1  0
 24 38  1  0
 24 25  1  0
 24 62  1  6
 25 31  1  0
 25 26  1  1
 25 27  1  0
 26 63  1  0
 26 64  1  0
 26 65  1  0
 27 28  1  0
 27 66  1  0
 27 67  1  0
 28 30  1  0
 28 29  1  1
 28 33  1  0
 29 30  1  0
 30 31  1  0
 30 68  1  6
 31 32  1  0
 31 69  1  1
 32 70  1  0
 33 34  1  0
 33 35  1  0
 33 71  1  1
 34 72  1  0
 34 73  1  0
 34 74  1  0
 35 36  1  0
 35 75  1  0
 35 76  1  0
 36 37  1  0
 36 38  1  0
 36 77  1  6
 37 78  1  0
 38 39  1  6
 39 79  1  0
 39 80  1  0
 39 81  1  0
M  END
>  <i_m_ct_stereo_status>  (314) 
1

>  <s_m_source_file>  (314) 
/var/tmp/pbs.5076255.sched01/tmpyj7ipo08/120az4jmrmy.sdf

>  <i_m_source_file_index>  (314) 
2

>  <i_lp_mmshare_version>  (314) 
48012

>  <i_f3d_flags>  (314) 
0

>  <s_epik_input>  (314) 
W0NASF0xMk9DKD1PKUMoPVtDSDJdKUMoW0NAQEhdMVtPSF0pPVtDSF1bQ0BIXTJbQ0BAXShbQ0gzXSkoW0NAQEhdKFtDSF09W0NIXTMpW0NASF00W0NIMl1bQ0BIXTVbT0hdKVtDQEBdMyhbQ0gzXSlbQ0BASF00W0NAXShbQ0gzXSkoW0NASF01W0NAXShbQ0gzXSkoW0NIMl02KVtDQEBIXShbQ0BASF0oW0NAQF02NzgpTzcpW09IXSlbQ0BIXShbT0hdKVtDSDJdW0NAQEhdOFtDSDNd

>  <s_epik_cmdline>  (314) 
J2VwaWtfcHl0aG9uJywgJy1waHQnLCAnMi4wJywgJy1waCcsICc3LjAnLCAnLXRuJywgJzgnLCAnLW1hJywgJzIwMCcsICctaW1hZScsICc8aW5maWxlLm1hZT4nLCAnLW9tYWUnLCAnPG91dGZpbGUubWFlPic=

>  <r_epik_Ionization_Penalty>  (314) 
0.0619898

>  <r_epik_Ionization_Penalty_Charging>  (314) 
0

>  <r_epik_Ionization_Penalty_Neutral>  (314) 
0.0619898

>  <r_epik_State_Penalty>  (314) 
0.0538414

>  <r_epik_Charging_Adjusted_Penalty>  (314) 
0.0538414

>  <i_epik_Tot_Q>  (314) 
0

>  <i_epik_Tot_abs_Q>  (314) 
0

>  <s_epik_Chemistry_Notes>  (314) 
This compound has an ester and may undergo hydrolysis at high or low pH.

>  <s_lp_Force_Field>  (314) 
OPLS3e

>  <r_lp_Energy>  (314) 
184.769

>  <b_lp_Chiralities_Consistent>  (314) 
1

>  <s_lp_Variant>  (314) 
90:0-1

>  <s_i_glide_gridfile>  (314) 
pfpi4k_grid

>  <i_i_glide_lignum>  (314) 
2

>  <i_i_glide_rotatable_bonds>  (314) 
5

>  <r_i_docking_score>  (314) 
-2.32199

>  <r_i_glide_ligand_efficiency>  (314) 
-0.0595383

>  <r_i_glide_ligand_efficiency_sa>  (314) 
-0.201907

>  <r_i_glide_ligand_efficiency_ln>  (314) 
-0.497902

>  <r_i_glide_gscore>  (314) 
-2.32199

>  <r_i_glide_lipo>  (314) 
-0.117285

>  <r_i_glide_hbond>  (314) 
-0.156682

>  <r_i_glide_metal>  (314) 
-0

>  <r_i_glide_rewards>  (314) 
0

>  <r_i_glide_evdw>  (314) 
-30.4626

>  <r_i_glide_ecoul>  (314) 
-3.9341

>  <r_i_glide_erotb>  (314) 
0.0712138

>  <r_i_glide_esite>  (314) 
-0.00599428

>  <r_i_glide_emodel>  (314) 
-38.4961

>  <r_i_glide_energy>  (314) 
-34.3967

>  <r_i_glide_einternal>  (314) 
1.33545

>  <r_i_glide_intrahb_reward>  (314) 
-0

>  <i_i_glide_confnum>  (314) 
1

>  <i_i_glide_posenum>  (314) 
12

>  <r_i_glide_eff_state_penalty>  (314) 
0

>  <ligand_id>  (314) 
90

>  <original_smiles>  (314) 
C=C1C(=O)OC2C(O)C1=CC2C1(C)C2C=CC1(C)C1C2CC(O)C2C3(C)CC4(OC4C3O)C(C)CC(O)C21C

>  <smiles>  (314) 
[H]OC1([H])C2=C([H])C([H])(C3(C([H])([H])[H])C4([H])C([H])=C([H])C3(C([H])([H])[H])C3([H])C4([H])C([H])([H])C([H])(O[H])C4([H])C5(C([H])([H])[H])C([H])([H])C6(OC6([H])C5([H])O[H])C([H])(C([H])([H])[H])C([H])([H])C([H])(O[H])C34C([H])([H])[H])C1([H])OC(=O)C2=C([H])[H]

$$$$
90:1:0
     RDKit          3D

 80 87  0  0  1  0  0  0  0  0999 V2000
    1.7451    0.9806    6.1852 C   0  0  0  0  0  0  0  0  0  0  0  0
    1.1694   -0.2415    6.2029 C   0  0  0  0  0  0  0  0  0  0  0  0
    1.1055   -1.0242    7.4822 C   0  0  0  0  0  0  0  0  0  0  0  0
    1.7395   -0.7487    8.4952 O   0  0  0  0  0  0  0  0  0  0  0  0
    0.1796   -2.0802    7.4001 O   0  0  0  0  0  0  0  0  0  0  0  0
   -0.5864   -2.4577    6.1949 C   0  0  1  0  0  0  0  0  0  0  0  0
   -1.0297   -1.2038    5.3883 C   0  0  1  0  0  0  0  0  0  0  0  0
   -1.6542   -0.3502    6.1601 O   0  0  0  0  0  0  0  0  0  0  0  0
    0.4119   -0.8216    5.0857 C   0  0  0  0  0  0  0  0  0  0  0  0
    1.0207   -1.9148    4.5978 C   0  0  0  0  0  0  0  0  0  0  0  0
    0.3521   -3.1774    5.1583 C   0  0  1  0  0  0  0  0  0  0  0  0
    1.2616   -4.4096    5.6630 C   0  0  1  0  0  0  0  0  0  0  0  0
    2.7530   -3.9642    5.7518 C   0  0  0  0  0  0  0  0  0  0  0  0
    0.7130   -5.0951    6.9599 C   0  0  1  0  0  0  0  0  0  0  0  0
   -0.6210   -5.5742    6.4388 C   0  0  0  0  0  0  0  0  0  0  0  0
   -0.4388   -5.9915    5.1905 C   0  0  0  0  0  0  0  0  0  0  0  0
    1.0178   -5.7562    4.8575 C   0  0  1  0  0  0  0  0  0  0  0  0
    1.3093   -5.6723    3.3475 C   0  0  0  0  0  0  0  0  0  0  0  0
    1.8581   -6.8161    5.6844 C   0  0  1  0  0  0  0  0  0  0  0  0
    1.6027   -6.3630    7.1622 C   0  0  2  0  0  0  0  0  0  0  0  0
    1.0308   -7.4360    8.1392 C   0  0  0  0  0  0  0  0  0  0  0  0
    1.6479   -8.8620    8.0219 C   0  0  1  0  0  0  0  0  0  0  0  0
    0.6357   -9.8538    8.1549 O   0  0  0  0  0  0  0  0  0  0  0  0
    2.5127   -9.0928    6.7308 C   0  0  2  0  0  0  0  0  0  0  0  0
    4.1045   -9.0319    7.0475 C   0  0  2  0  0  0  0  0  0  0  0  0
    4.4619   -8.3433    8.4048 C   0  0  0  0  0  0  0  0  0  0  0  0
    5.0036   -8.3649    5.9760 C   0  0  0  0  0  0  0  0  0  0  0  0
    5.2594   -9.4252    4.9491 C   0  0  1  0  0  0  0  0  0  0  0  0
    6.4088  -10.2345    5.1800 O   0  0  0  0  0  0  0  0  0  0  0  0
    5.1330  -10.7674    5.6027 C   0  0  1  0  0  0  0  0  0  0  0  0
    4.6458  -10.5090    7.0184 C   0  0  1  0  0  0  0  0  0  0  0  0
    5.7155  -10.7771    7.9058 O   0  0  0  0  0  0  0  0  0  0  0  0
    4.9727   -9.0472    3.5106 C   0  0  1  0  0  0  0  0  0  0  0  0
    5.1546  -10.2177    2.5162 C   0  0  0  0  0  0  0  0  0  0  0  0
    3.6205   -8.3087    3.3575 C   0  0  0  0  0  0  0  0  0  0  0  0
    2.3562   -8.8944    4.0503 C   0  0  1  0  0  0  0  0  0  0  0  0
    2.3760  -10.3084    3.9875 O   0  0  0  0  0  0  0  0  0  0  0  0
    1.8217   -8.3906    5.4625 C   0  0  2  0  0  0  0  0  0  0  0  0
    0.3300   -8.8818    5.3940 C   0  0  0  0  0  0  0  0  0  0  0  0
    1.7315    1.5957    5.2893 H   0  0  0  0  0  0  0  0  0  0  0  0
    2.2111    1.3966    7.0734 H   0  0  0  0  0  0  0  0  0  0  0  0
   -1.4451   -3.0733    6.4702 H   0  0  0  0  0  0  0  0  0  0  0  0
   -1.4418   -1.5276    4.4407 H   0  0  0  0  0  0  0  0  0  0  0  0
    2.0947   -1.9314    4.4442 H   0  0  0  0  0  0  0  0  0  0  0  0
   -0.2526   -3.5407    4.3292 H   0  0  0  0  0  0  0  0  0  0  0  0
    3.4119   -4.6225    6.3041 H   0  0  0  0  0  0  0  0  0  0  0  0
    2.8457   -2.9992    6.2446 H   0  0  0  0  0  0  0  0  0  0  0  0
    3.1834   -3.8781    4.7564 H   0  0  0  0  0  0  0  0  0  0  0  0
    0.6339   -4.4628    7.8446 H   0  0  0  0  0  0  0  0  0  0  0  0
   -1.5334   -5.5767    7.0089 H   0  0  0  0  0  0  0  0  0  0  0  0
   -1.1731   -6.4096    4.5207 H   0  0  0  0  0  0  0  0  0  0  0  0
    2.3648   -5.4850    3.1591 H   0  0  0  0  0  0  0  0  0  0  0  0
    0.7564   -4.8654    2.8758 H   0  0  0  0  0  0  0  0  0  0  0  0
    1.0304   -6.5863    2.8280 H   0  0  0  0  0  0  0  0  0  0  0  0
    2.8743   -6.5385    5.4686 H   0  0  0  0  0  0  0  0  0  0  0  0
    2.5460   -6.0378    7.5966 H   0  0  0  0  0  0  0  0  0  0  0  0
    1.1995   -7.0756    9.1509 H   0  0  0  0  0  0  0  0  0  0  0  0
   -0.0573   -7.4875    8.0771 H   0  0  0  0  0  0  0  0  0  0  0  0
    2.1988   -9.0689    8.9315 H   0  0  0  0  0  0  0  0  0  0  0  0
    1.0075  -10.7393    8.0425 H   0  0  0  0  0  0  0  0  0  0  0  0
    2.3361  -10.1418    6.5087 H   0  0  0  0  0  0  0  0  0  0  0  0
    5.5319   -8.1520    8.5120 H   0  0  0  0  0  0  0  0  0  0  0  0
    4.2195   -8.9602    9.2737 H   0  0  0  0  0  0  0  0  0  0  0  0
    3.9725   -7.3786    8.5251 H   0  0  0  0  0  0  0  0  0  0  0  0
    4.6730   -7.4172    5.5784 H   0  0  0  0  0  0  0  0  0  0  0  0
    5.9825   -8.1352    6.3990 H   0  0  0  0  0  0  0  0  0  0  0  0
    4.7488  -11.6208    5.0439 H   0  0  0  0  0  0  0  0  0  0  0  0
    3.8871  -11.2449    7.2843 H   0  0  0  0  0  0  0  0  0  0  0  0
    5.9674  -11.6793    7.7837 H   0  0  0  0  0  0  0  0  0  0  0  0
    5.7424   -8.3265    3.2306 H   0  0  0  0  0  0  0  0  0  0  0  0
    4.4682  -11.0430    2.7053 H   0  0  0  0  0  0  0  0  0  0  0  0
    6.1666  -10.6247    2.5561 H   0  0  0  0  0  0  0  0  0  0  0  0
    4.9853   -9.8938    1.4882 H   0  0  0  0  0  0  0  0  0  0  0  0
    3.7467   -7.2667    3.6341 H   0  0  0  0  0  0  0  0  0  0  0  0
    3.4193   -8.2562    2.2871 H   0  0  0  0  0  0  0  0  0  0  0  0
    1.5819   -8.6398    3.3263 H   0  0  0  0  0  0  0  0  0  0  0  0
    1.5403  -10.6405    4.2828 H   0  0  0  0  0  0  0  0  0  0  0  0
    0.2431   -9.9660    5.4751 H   0  0  0  0  0  0  0  0  0  0  0  0
   -0.1806   -8.6029    4.4712 H   0  0  0  0  0  0  0  0  0  0  0  0
   -0.2989   -8.4875    6.1819 H   0  0  0  0  0  0  0  0  0  0  0  0
  1  2  2  0
  1 40  1  0
  1 41  1  0
  2  9  1  0
  2  3  1  0
  3  4  2  0
  3  5  1  0
  5  6  1  0
  6 11  1  0
  6  7  1  0
  6 42  1  1
  7  8  1  0
  7  9  1  0
  7 43  1  6
  9 10  2  0
 10 11  1  0
 10 44  1  0
 11 12  1  0
 11 45  1  6
 12 17  1  0
 12 13  1  1
 12 14  1  0
 13 46  1  0
 13 47  1  0
 13 48  1  0
 14 20  1  0
 14 15  1  0
 14 49  1  1
 15 16  2  0
 15 50  1  0
 16 17  1  0
 16 51  1  0
 17 18  1  6
 17 19  1  0
 18 52  1  0
 18 53  1  0
 18 54  1  0
 19 38  1  0
 19 20  1  0
 19 55  1  6
 20 21  1  0
 20 56  1  1
 21 22  1  0
 21 57  1  0
 21 58  1  0
 22 23  1  0
 22 24  1  0
 22 59  1  1
 23 60  1  0
 24 38  1  0
 24 25  1  0
 24 61  1  6
 25 31  1  0
 25 26  1  1
 25 27  1  0
 26 62  1  0
 26 63  1  0
 26 64  1  0
 27 28  1  0
 27 65  1  0
 27 66  1  0
 28 30  1  0
 28 29  1  6
 28 33  1  0
 29 30  1  0
 30 31  1  0
 30 67  1  6
 31 32  1  0
 31 68  1  1
 32 69  1  0
 33 34  1  0
 33 35  1  0
 33 70  1  6
 34 71  1  0
 34 72  1  0
 34 73  1  0
 35 36  1  0
 35 74  1  0
 35 75  1  0
 36 37  1  0
 36 38  1  0
 36 76  1  6
 37 77  1  0
 38 39  1  6
 39 78  1  0
 39 79  1  0
 39 80  1  0
M  CHG  1   8  -1
M  END
>  <i_m_ct_stereo_status>  (315) 
1

>  <s_m_source_file>  (315) 
/var/tmp/pbs.5076255.sched01/tmpyj7ipo08/120az4jmrmy.sdf

>  <i_m_source_file_index>  (315) 
3

>  <i_lp_mmshare_version>  (315) 
48012

>  <i_f3d_flags>  (315) 
0

>  <s_epik_input>  (315) 
W0NASF0xMk9DKD1PKUMoPVtDSDJdKUMoW0NAQEhdMVtPSF0pPVtDSF1bQ0BIXTJbQ0BAXShbQ0gzXSkoW0NAQEhdKFtDSF09W0NIXTMpW0NASF00W0NIMl1bQ0BIXTVbT0hdKVtDQEBdMyhbQ0gzXSlbQ0BASF00W0NAXShbQ0gzXSkoW0NASF01W0NAXShbQ0gzXSkoW0NIMl02KVtDQEBIXShbQ0BASF0oW0NAQF02NzgpTzcpW09IXSlbQ0BIXShbT0hdKVtDSDJdW0NAQEhdOFtDSDNd

>  <s_epik_cmdline>  (315) 
J2VwaWtfcHl0aG9uJywgJy1waHQnLCAnMi4wJywgJy1waCcsICc3LjAnLCAnLXRuJywgJzgnLCAnLW1hJywgJzIwMCcsICctaW1hZScsICc8aW5maWxlLm1hZT4nLCAnLW9tYWUnLCAnPG91dGZpbGUubWFlPic=

>  <r_epik_Ionization_Penalty>  (315) 
1.36819

>  <r_epik_Ionization_Penalty_Charging>  (315) 
1.36819

>  <r_epik_Ionization_Penalty_Neutral>  (315) 
1.67672e-06

>  <r_epik_State_Penalty>  (315) 
1.44767

>  <r_epik_Charging_Adjusted_Penalty>  (315) 
2.81586

>  <i_epik_Tot_Q>  (315) 
-1

>  <i_epik_Tot_abs_Q>  (315) 
1

>  <s_epik_Chemistry_Notes>  (315) 
This compound has an ester and may undergo hydrolysis at high or low pH.

>  <s_lp_Force_Field>  (315) 
OPLS3e

>  <r_lp_Energy>  (315) 
205.213

>  <b_lp_Chiralities_Consistent>  (315) 
1

>  <s_lp_Variant>  (315) 
90:0-2

>  <s_i_glide_gridfile>  (315) 
pfpi4k_grid

>  <i_i_glide_lignum>  (315) 
3

>  <i_i_glide_rotatable_bonds>  (315) 
4

>  <r_i_docking_score>  (315) 
-2.94113

>  <r_i_glide_ligand_efficiency>  (315) 
-0.0754135

>  <r_i_glide_ligand_efficiency_sa>  (315) 
-0.255743

>  <r_i_glide_ligand_efficiency_ln>  (315) 
-0.630661

>  <r_i_glide_gscore>  (315) 
-2.94113

>  <r_i_glide_lipo>  (315) 
-0.0636585

>  <r_i_glide_hbond>  (315) 
-0.324588

>  <r_i_glide_metal>  (315) 
-0

>  <r_i_glide_rewards>  (315) 
0

>  <r_i_glide_evdw>  (315) 
-23.6156

>  <r_i_glide_ecoul>  (315) 
-9.57571

>  <r_i_glide_erotb>  (315) 
0.0714601

>  <r_i_glide_esite>  (315) 
-0.00720258

>  <r_i_glide_emodel>  (315) 
-40.3319

>  <r_i_glide_energy>  (315) 
-33.1913

>  <r_i_glide_einternal>  (315) 
3.97946

>  <r_i_glide_intrahb_reward>  (315) 
-0

>  <i_i_glide_confnum>  (315) 
3

>  <i_i_glide_posenum>  (315) 
27

>  <r_i_glide_eff_state_penalty>  (315) 
0

>  <ligand_id>  (315) 
90

>  <original_smiles>  (315) 
C=C1C(=O)OC2C(O)C1=CC2C1(C)C2C=CC1(C)C1C2CC(O)C2C3(C)CC4(OC4C3O)C(C)CC(O)C21C

>  <smiles>  (315) 
[H]OC1([H])C([H])([H])C2([H])C3([H])C([H])=C([H])C(C([H])([H])[H])(C2([H])C2(C([H])([H])[H])C([H])(O[H])C([H])([H])C([H])(C([H])([H])[H])C45OC4([H])C([H])(O[H])C(C([H])([H])[H])(C5([H])[H])C12[H])C3(C([H])([H])[H])C1([H])C([H])=C2C(=C([H])[H])C(=O)OC1([H])C2([H])[O-]

$$$$
90:1:1
     RDKit          3D

 80 87  0  0  1  0  0  0  0  0999 V2000
    3.7923   -1.4608   -2.1355 C   0  0  0  0  0  0  0  0  0  0  0  0
    4.4011   -1.8942   -1.0426 C   0  0  0  0  0  0  0  0  0  0  0  0
    5.3068   -3.0979   -1.1358 C   0  0  0  0  0  0  0  0  0  0  0  0
    5.4244   -3.7948   -2.1380 O   0  0  0  0  0  0  0  0  0  0  0  0
    6.0767   -3.2904    0.0742 O   0  0  0  0  0  0  0  0  0  0  0  0
    5.9371   -2.4894    1.3169 C   0  0  1  0  0  0  0  0  0  0  0  0
    5.6775   -1.0040    0.9651 C   0  0  1  0  0  0  0  0  0  0  0  0
    6.6411   -0.6844    0.1195 O   0  0  0  0  0  0  0  0  0  0  0  0
    4.3471   -1.3170    0.2958 C   0  0  0  0  0  0  0  0  0  0  0  0
    3.6289   -2.0816    1.1238 C   0  0  0  0  0  0  0  0  0  0  0  0
    4.5951   -2.8115    2.0545 C   0  0  1  0  0  0  0  0  0  0  0  0
    4.2855   -4.3269    2.4691 C   0  0  1  0  0  0  0  0  0  0  0  0
    4.0835   -5.2067    1.1855 C   0  0  0  0  0  0  0  0  0  0  0  0
    5.3214   -4.8926    3.4933 C   0  0  1  0  0  0  0  0  0  0  0  0
    5.0544   -3.9907    4.6932 C   0  0  0  0  0  0  0  0  0  0  0  0
    3.7474   -3.7436    4.7247 C   0  0  0  0  0  0  0  0  0  0  0  0
    3.1363   -4.4869    3.5534 C   0  0  1  0  0  0  0  0  0  0  0  0
    1.7644   -3.9368    3.1426 C   0  0  0  0  0  0  0  0  0  0  0  0
    3.2108   -6.0320    3.8713 C   0  0  1  0  0  0  0  0  0  0  0  0
    4.7577   -6.3008    3.8708 C   0  0  2  0  0  0  0  0  0  0  0  0
    5.3368   -6.9421    5.1656 C   0  0  0  0  0  0  0  0  0  0  0  0
    4.5009   -8.0988    5.7707 C   0  0  1  0  0  0  0  0  0  0  0  0
    4.4985   -7.9683    7.1746 O   0  0  0  0  0  0  0  0  0  0  0  0
    3.0389   -8.2236    5.2215 C   0  0  2  0  0  0  0  0  0  0  0  0
    2.8994   -9.4315    4.1651 C   0  0  2  0  0  0  0  0  0  0  0  0
    4.2473   -9.9594    3.5847 C   0  0  0  0  0  0  0  0  0  0  0  0
    1.9887   -9.1694    2.9381 C   0  0  0  0  0  0  0  0  0  0  0  0
    0.6086   -9.4540    3.4151 C   0  0  1  0  0  0  0  0  0  0  0  0
    0.2108  -10.7905    3.2422 O   0  0  0  0  0  0  0  0  0  0  0  0
    0.6672  -10.4263    4.5510 C   0  0  1  0  0  0  0  0  0  0  0  0
    2.1388  -10.5938    4.8992 C   0  0  1  0  0  0  0  0  0  0  0  0
    2.5605  -11.8864    4.5355 O   0  0  0  0  0  0  0  0  0  0  0  0
   -0.4146   -8.3677    3.1246 C   0  0  1  0  0  0  0  0  0  0  0  0
   -1.8054   -8.6320    3.7183 C   0  0  0  0  0  0  0  0  0  0  0  0
    0.1140   -6.9669    3.4727 C   0  0  0  0  0  0  0  0  0  0  0  0
    0.8289   -6.7451    4.8360 C   0  0  1  0  0  0  0  0  0  0  0  0
    0.1986   -7.4534    5.8816 O   0  0  0  0  0  0  0  0  0  0  0  0
    2.4006   -6.7619    5.0070 C   0  0  2  0  0  0  0  0  0  0  0  0
    2.5438   -5.9673    6.3486 C   0  0  0  0  0  0  0  0  0  0  0  0
    3.1390   -0.5919   -2.1496 H   0  0  0  0  0  0  0  0  0  0  0  0
    3.9393   -1.9805   -3.0892 H   0  0  0  0  0  0  0  0  0  0  0  0
    6.8210   -2.5391    1.9592 H   0  0  0  0  0  0  0  0  0  0  0  0
    5.4274   -0.4104    1.8539 H   0  0  0  0  0  0  0  0  0  0  0  0
    2.7810   -2.6343    0.7375 H   0  0  0  0  0  0  0  0  0  0  0  0
    4.5943   -2.2025    2.9587 H   0  0  0  0  0  0  0  0  0  0  0  0
    3.9863   -6.2764    1.3633 H   0  0  0  0  0  0  0  0  0  0  0  0
    4.9265   -5.1321    0.5102 H   0  0  0  0  0  0  0  0  0  0  0  0
    3.1580   -4.9277    0.6720 H   0  0  0  0  0  0  0  0  0  0  0  0
    6.3570   -4.8623    3.1687 H   0  0  0  0  0  0  0  0  0  0  0  0
    5.8028   -3.6438    5.3935 H   0  0  0  0  0  0  0  0  0  0  0  0
    3.2037   -3.1423    5.4458 H   0  0  0  0  0  0  0  0  0  0  0  0
    1.4305   -4.4527    2.2474 H   0  0  0  0  0  0  0  0  0  0  0  0
    1.8013   -2.8695    2.9224 H   0  0  0  0  0  0  0  0  0  0  0  0
    1.0022   -4.0505    3.9121 H   0  0  0  0  0  0  0  0  0  0  0  0
    2.8210   -6.4761    2.9803 H   0  0  0  0  0  0  0  0  0  0  0  0
    5.0127   -6.9977    3.0688 H   0  0  0  0  0  0  0  0  0  0  0  0
    6.3070   -7.3538    4.9194 H   0  0  0  0  0  0  0  0  0  0  0  0
    5.5644   -6.1926    5.9224 H   0  0  0  0  0  0  0  0  0  0  0  0
    5.0618   -9.0238    5.6766 H   0  0  0  0  0  0  0  0  0  0  0  0
    4.1303   -8.7585    7.5410 H   0  0  0  0  0  0  0  0  0  0  0  0
    2.4789   -8.5740    6.0897 H   0  0  0  0  0  0  0  0  0  0  0  0
    4.1025  -10.6493    2.7507 H   0  0  0  0  0  0  0  0  0  0  0  0
    4.8157  -10.5393    4.3119 H   0  0  0  0  0  0  0  0  0  0  0  0
    4.8727   -9.1546    3.2124 H   0  0  0  0  0  0  0  0  0  0  0  0
    2.0909   -8.2408    2.4008 H   0  0  0  0  0  0  0  0  0  0  0  0
    2.1490   -9.9314    2.1735 H   0  0  0  0  0  0  0  0  0  0  0  0
   -0.0689  -10.3712    5.3475 H   0  0  0  0  0  0  0  0  0  0  0  0
    2.2556  -10.5936    5.9914 H   0  0  0  0  0  0  0  0  0  0  0  0
    2.0831  -12.4986    5.0861 H   0  0  0  0  0  0  0  0  0  0  0  0
   -0.5739   -8.4003    2.0461 H   0  0  0  0  0  0  0  0  0  0  0  0
   -1.7803   -8.6862    4.8072 H   0  0  0  0  0  0  0  0  0  0  0  0
   -2.2214   -9.5460    3.3066 H   0  0  0  0  0  0  0  0  0  0  0  0
   -2.5121   -7.8321    3.4666 H   0  0  0  0  0  0  0  0  0  0  0  0
    0.7279   -6.5998    2.6518 H   0  0  0  0  0  0  0  0  0  0  0  0
   -0.7556   -6.3071    3.4621 H   0  0  0  0  0  0  0  0  0  0  0  0
    0.5191   -5.7331    5.0602 H   0  0  0  0  0  0  0  0  0  0  0  0
    0.4134   -8.3725    5.7856 H   0  0  0  0  0  0  0  0  0  0  0  0
    2.1851   -6.5421    7.2028 H   0  0  0  0  0  0  0  0  0  0  0  0
    1.9864   -5.0320    6.3446 H   0  0  0  0  0  0  0  0  0  0  0  0
    3.5626   -5.6865    6.5776 H   0  0  0  0  0  0  0  0  0  0  0  0
  1  2  2  0
  1 40  1  0
  1 41  1  0
  2  9  1  0
  2  3  1  0
  3  4  2  0
  3  5  1  0
  5  6  1  0
  6 11  1  0
  6  7  1  0
  6 42  1  1
  7  8  1  0
  7  9  1  0
  7 43  1  1
  9 10  2  0
 10 11  1  0
 10 44  1  0
 11 12  1  0
 11 45  1  1
 12 17  1  0
 12 13  1  6
 12 14  1  0
 13 46  1  0
 13 47  1  0
 13 48  1  0
 14 20  1  0
 14 15  1  0
 14 49  1  6
 15 16  2  0
 15 50  1  0
 16 17  1  0
 16 51  1  0
 17 18  1  6
 17 19  1  0
 18 52  1  0
 18 53  1  0
 18 54  1  0
 19 38  1  0
 19 20  1  0
 19 55  1  6
 20 21  1  0
 20 56  1  6
 21 22  1  0
 21 57  1  0
 21 58  1  0
 22 23  1  0
 22 24  1  0
 22 59  1  1
 23 60  1  0
 24 38  1  0
 24 25  1  0
 24 61  1  1
 25 31  1  0
 25 26  1  6
 25 27  1  0
 26 62  1  0
 26 63  1  0
 26 64  1  0
 27 28  1  0
 27 65  1  0
 27 66  1  0
 28 30  1  0
 28 29  1  6
 28 33  1  0
 29 30  1  0
 30 31  1  0
 30 67  1  1
 31 32  1  0
 31 68  1  1
 32 69  1  0
 33 34  1  0
 33 35  1  0
 33 70  1  6
 34 71  1  0
 34 72  1  0
 34 73  1  0
 35 36  1  0
 35 74  1  0
 35 75  1  0
 36 37  1  0
 36 38  1  0
 36 76  1  1
 37 77  1  0
 38 39  1  1
 39 78  1  0
 39 79  1  0
 39 80  1  0
M  CHG  1   8  -1
M  END
>  <i_m_ct_stereo_status>  (316) 
1

>  <s_m_source_file>  (316) 
/var/tmp/pbs.5076255.sched01/tmpyj7ipo08/120az4jmrmy.sdf

>  <i_m_source_file_index>  (316) 
3

>  <i_lp_mmshare_version>  (316) 
48012

>  <i_f3d_flags>  (316) 
0

>  <s_epik_input>  (316) 
W0NASF0xMk9DKD1PKUMoPVtDSDJdKUMoW0NAQEhdMVtPSF0pPVtDSF1bQ0BIXTJbQ0BAXShbQ0gzXSkoW0NAQEhdKFtDSF09W0NIXTMpW0NASF00W0NIMl1bQ0BIXTVbT0hdKVtDQEBdMyhbQ0gzXSlbQ0BASF00W0NAXShbQ0gzXSkoW0NASF01W0NAXShbQ0gzXSkoW0NIMl02KVtDQEBIXShbQ0BASF0oW0NAQF02NzgpTzcpW09IXSlbQ0BIXShbT0hdKVtDSDJdW0NAQEhdOFtDSDNd

>  <s_epik_cmdline>  (316) 
J2VwaWtfcHl0aG9uJywgJy1waHQnLCAnMi4wJywgJy1waCcsICc3LjAnLCAnLXRuJywgJzgnLCAnLW1hJywgJzIwMCcsICctaW1hZScsICc8aW5maWxlLm1hZT4nLCAnLW9tYWUnLCAnPG91dGZpbGUubWFlPic=

>  <r_epik_Ionization_Penalty>  (316) 
1.36819

>  <r_epik_Ionization_Penalty_Charging>  (316) 
1.36819

>  <r_epik_Ionization_Penalty_Neutral>  (316) 
1.67672e-06

>  <r_epik_State_Penalty>  (316) 
1.44767

>  <r_epik_Charging_Adjusted_Penalty>  (316) 
2.81586

>  <i_epik_Tot_Q>  (316) 
-1

>  <i_epik_Tot_abs_Q>  (316) 
1

>  <s_epik_Chemistry_Notes>  (316) 
This compound has an ester and may undergo hydrolysis at high or low pH.

>  <s_lp_Force_Field>  (316) 
OPLS3e

>  <r_lp_Energy>  (316) 
205.213

>  <b_lp_Chiralities_Consistent>  (316) 
1

>  <s_lp_Variant>  (316) 
90:0-2

>  <s_i_glide_gridfile>  (316) 
pfpi4k_grid

>  <i_i_glide_lignum>  (316) 
3

>  <i_i_glide_rotatable_bonds>  (316) 
4

>  <r_i_docking_score>  (316) 
-2.23945

>  <r_i_glide_ligand_efficiency>  (316) 
-0.0574217

>  <r_i_glide_ligand_efficiency_sa>  (316) 
-0.194729

>  <r_i_glide_ligand_efficiency_ln>  (316) 
-0.480201

>  <r_i_glide_gscore>  (316) 
-2.23945

>  <r_i_glide_lipo>  (316) 
-0.301418

>  <r_i_glide_hbond>  (316) 
-0.0404702

>  <r_i_glide_metal>  (316) 
-0

>  <r_i_glide_rewards>  (316) 
-0.0620982

>  <r_i_glide_evdw>  (316) 
-36.4079

>  <r_i_glide_ecoul>  (316) 
-0.57684

>  <r_i_glide_erotb>  (316) 
0.0714601

>  <r_i_glide_esite>  (316) 
0

>  <r_i_glide_emodel>  (316) 
-42.671

>  <r_i_glide_energy>  (316) 
-36.9847

>  <r_i_glide_einternal>  (316) 
1.55573

>  <r_i_glide_intrahb_reward>  (316) 
-0

>  <i_i_glide_confnum>  (316) 
4

>  <i_i_glide_posenum>  (316) 
4

>  <r_i_glide_eff_state_penalty>  (316) 
0

>  <ligand_id>  (316) 
90

>  <original_smiles>  (316) 
C=C1C(=O)OC2C(O)C1=CC2C1(C)C2C=CC1(C)C1C2CC(O)C2C3(C)CC4(OC4C3O)C(C)CC(O)C21C

>  <smiles>  (316) 
[H]OC1([H])C([H])([H])C2([H])C3([H])C([H])=C([H])C(C([H])([H])[H])(C2([H])C2(C([H])([H])[H])C([H])(O[H])C([H])([H])C([H])(C([H])([H])[H])C45OC4([H])C([H])(O[H])C(C([H])([H])[H])(C5([H])[H])C12[H])C3(C([H])([H])[H])C1([H])C([H])=C2C(=C([H])[H])C(=O)OC1([H])C2([H])[O-]

$$$$
90:1:2
     RDKit          3D

 80 87  0  0  1  0  0  0  0  0999 V2000
    3.6071   -1.5119   -2.0693 C   0  0  0  0  0  0  0  0  0  0  0  0
    4.2975   -1.9267   -0.9790 C   0  0  0  0  0  0  0  0  0  0  0  0
    5.2174   -3.0950   -1.1097 C   0  0  0  0  0  0  0  0  0  0  0  0
    5.2641   -3.8308   -2.0871 O   0  0  0  0  0  0  0  0  0  0  0  0
    6.0497   -3.2492    0.0549 O   0  0  0  0  0  0  0  0  0  0  0  0
    5.9063   -2.4848    1.3154 C   0  0  1  0  0  0  0  0  0  0  0  0
    5.5765   -0.9902    1.0079 C   0  0  1  0  0  0  0  0  0  0  0  0
    6.5626   -0.6567    0.2257 O   0  0  0  0  0  0  0  0  0  0  0  0
    4.2332   -1.3552    0.3551 C   0  0  0  0  0  0  0  0  0  0  0  0
    3.5736   -2.1482    1.1883 C   0  0  0  0  0  0  0  0  0  0  0  0
    4.5945   -2.8688    2.0901 C   0  0  1  0  0  0  0  0  0  0  0  0
    4.3372   -4.3989    2.5070 C   0  0  1  0  0  0  0  0  0  0  0  0
    4.3604   -5.3100    1.2283 C   0  0  0  0  0  0  0  0  0  0  0  0
    5.2944   -4.8867    3.6499 C   0  0  1  0  0  0  0  0  0  0  0  0
    4.8548   -3.9923    4.7994 C   0  0  0  0  0  0  0  0  0  0  0  0
    3.5372   -3.8338    4.6857 C   0  0  0  0  0  0  0  0  0  0  0  0
    3.0937   -4.6270    3.4719 C   0  0  1  0  0  0  0  0  0  0  0  0
    1.7319   -4.1698    2.9307 C   0  0  0  0  0  0  0  0  0  0  0  0
    3.2402   -6.1614    3.8292 C   0  0  1  0  0  0  0  0  0  0  0  0
    4.7941   -6.3255    3.9968 C   0  0  2  0  0  0  0  0  0  0  0  0
    5.2748   -6.9113    5.3566 C   0  0  0  0  0  0  0  0  0  0  0  0
    4.4485   -8.1100    5.8988 C   0  0  1  0  0  0  0  0  0  0  0  0
    4.2941   -7.9581    7.2918 O   0  0  0  0  0  0  0  0  0  0  0  0
    3.0599   -8.3398    5.2006 C   0  0  2  0  0  0  0  0  0  0  0  0
    3.1098   -9.5738    4.1514 C   0  0  2  0  0  0  0  0  0  0  0  0
    4.5452  -10.0088    3.7357 C   0  0  0  0  0  0  0  0  0  0  0  0
    2.3137   -9.4012    2.8320 C   0  0  0  0  0  0  0  0  0  0  0  0
    0.9040   -9.7616    3.1650 C   0  0  1  0  0  0  0  0  0  0  0  0
    0.6052  -11.1318    2.9943 O   0  0  0  0  0  0  0  0  0  0  0  0
    0.9143  -10.7093    4.3277 C   0  0  1  0  0  0  0  0  0  0  0  0
    2.3532  -10.7807    4.8104 C   0  0  1  0  0  0  0  0  0  0  0  0
    2.8635  -12.0458    4.4472 O   0  0  0  0  0  0  0  0  0  0  0  0
   -0.1441   -8.7305    2.7599 C   0  0  1  0  0  0  0  0  0  0  0  0
   -1.5736   -9.0418    3.2159 C   0  0  0  0  0  0  0  0  0  0  0  0
    0.2642   -7.2958    3.1235 C   0  0  0  0  0  0  0  0  0  0  0  0
    0.8078   -7.0185    4.5498 C   0  0  1  0  0  0  0  0  0  0  0  0
    0.0973   -7.7543    5.5234 O   0  0  0  0  0  0  0  0  0  0  0  0
    2.3557   -6.9294    4.8918 C   0  0  2  0  0  0  0  0  0  0  0  0
    2.3079   -6.1040    6.2206 C   0  0  0  0  0  0  0  0  0  0  0  0
    2.9531   -0.6539   -2.0299 H   0  0  0  0  0  0  0  0  0  0  0  0
    3.7250   -2.0252   -3.0195 H   0  0  0  0  0  0  0  0  0  0  0  0
    6.8180   -2.5271    1.9230 H   0  0  0  0  0  0  0  0  0  0  0  0
    5.3262   -0.4317    1.9197 H   0  0  0  0  0  0  0  0  0  0  0  0
    2.7142   -2.7399    0.8597 H   0  0  0  0  0  0  0  0  0  0  0  0
    4.6173   -2.2654    2.9946 H   0  0  0  0  0  0  0  0  0  0  0  0
    4.3145   -6.3846    1.4324 H   0  0  0  0  0  0  0  0  0  0  0  0
    5.2598   -5.2011    0.6745 H   0  0  0  0  0  0  0  0  0  0  0  0
    3.4791   -5.1034    0.6088 H   0  0  0  0  0  0  0  0  0  0  0  0
    6.3621   -4.8001    3.4332 H   0  0  0  0  0  0  0  0  0  0  0  0
    5.4991   -3.5832    5.5657 H   0  0  0  0  0  0  0  0  0  0  0  0
    2.8820   -3.2563    5.3243 H   0  0  0  0  0  0  0  0  0  0  0  0
    1.5267   -4.7112    2.0102 H   0  0  0  0  0  0  0  0  0  0  0  0
    1.7213   -3.1095    2.7001 H   0  0  0  0  0  0  0  0  0  0  0  0
    0.9098   -4.3978    3.6271 H   0  0  0  0  0  0  0  0  0  0  0  0
    2.9839   -6.6494    2.9138 H   0  0  0  0  0  0  0  0  0  0  0  0
    5.1756   -7.0170    3.2405 H   0  0  0  0  0  0  0  0  0  0  0  0
    6.2915   -7.2583    5.2243 H   0  0  0  0  0  0  0  0  0  0  0  0
    5.3668   -6.1276    6.1160 H   0  0  0  0  0  0  0  0  0  0  0  0
    5.0640   -9.0020    5.8888 H   0  0  0  0  0  0  0  0  0  0  0  0
    5.1419   -8.0643    7.6963 H   0  0  0  0  0  0  0  0  0  0  0  0
    2.4368   -8.7152    6.0124 H   0  0  0  0  0  0  0  0  0  0  0  0
    4.5479  -10.7193    2.9059 H   0  0  0  0  0  0  0  0  0  0  0  0
    5.0703  -10.5406    4.5344 H   0  0  0  0  0  0  0  0  0  0  0  0
    5.1580   -9.1695    3.4177 H   0  0  0  0  0  0  0  0  0  0  0  0
    2.4178   -8.4699    2.2944 H   0  0  0  0  0  0  0  0  0  0  0  0
    2.6217  -10.1551    2.1050 H   0  0  0  0  0  0  0  0  0  0  0  0
    0.1109  -10.6917    5.0619 H   0  0  0  0  0  0  0  0  0  0  0  0
    2.3742  -10.7743    5.9035 H   0  0  0  0  0  0  0  0  0  0  0  0
    2.4963  -12.2514    3.5963 H   0  0  0  0  0  0  0  0  0  0  0  0
   -0.1943   -8.7794    1.6789 H   0  0  0  0  0  0  0  0  0  0  0  0
   -1.6622   -8.9949    4.2990 H   0  0  0  0  0  0  0  0  0  0  0  0
   -1.8436  -10.0255    2.8602 H   0  0  0  0  0  0  0  0  0  0  0  0
   -2.3213   -8.3414    2.8191 H   0  0  0  0  0  0  0  0  0  0  0  0
    0.9412   -6.9189    2.3653 H   0  0  0  0  0  0  0  0  0  0  0  0
   -0.6362   -6.6934    2.9894 H   0  0  0  0  0  0  0  0  0  0  0  0
    0.4076   -6.0286    4.7360 H   0  0  0  0  0  0  0  0  0  0  0  0
    0.2772   -8.6738    5.3896 H   0  0  0  0  0  0  0  0  0  0  0  0
    1.9018   -6.6879    7.0450 H   0  0  0  0  0  0  0  0  0  0  0  0
    1.6965   -5.2048    6.1429 H   0  0  0  0  0  0  0  0  0  0  0  0
    3.2755   -5.7514    6.5477 H   0  0  0  0  0  0  0  0  0  0  0  0
  1  2  2  0
  1 40  1  0
  1 41  1  0
  2  9  1  0
  2  3  1  0
  3  4  2  0
  3  5  1  0
  5  6  1  0
  6 11  1  0
  6  7  1  0
  6 42  1  1
  7  8  1  0
  7  9  1  0
  7 43  1  1
  9 10  2  0
 10 11  1  0
 10 44  1  0
 11 12  1  0
 11 45  1  1
 12 17  1  0
 12 13  1  6
 12 14  1  0
 13 46  1  0
 13 47  1  0
 13 48  1  0
 14 20  1  0
 14 15  1  0
 14 49  1  6
 15 16  2  0
 15 50  1  0
 16 17  1  0
 16 51  1  0
 17 18  1  6
 17 19  1  0
 18 52  1  0
 18 53  1  0
 18 54  1  0
 19 38  1  0
 19 20  1  0
 19 55  1  6
 20 21  1  0
 20 56  1  6
 21 22  1  0
 21 57  1  0
 21 58  1  0
 22 23  1  0
 22 24  1  0
 22 59  1  1
 23 60  1  0
 24 38  1  0
 24 25  1  0
 24 61  1  1
 25 31  1  0
 25 26  1  6
 25 27  1  0
 26 62  1  0
 26 63  1  0
 26 64  1  0
 27 28  1  0
 27 65  1  0
 27 66  1  0
 28 30  1  0
 28 29  1  6
 28 33  1  0
 29 30  1  0
 30 31  1  0
 30 67  1  1
 31 32  1  0
 31 68  1  1
 32 69  1  0
 33 34  1  0
 33 35  1  0
 33 70  1  6
 34 71  1  0
 34 72  1  0
 34 73  1  0
 35 36  1  0
 35 74  1  0
 35 75  1  0
 36 37  1  0
 36 38  1  0
 36 76  1  1
 37 77  1  0
 38 39  1  1
 39 78  1  0
 39 79  1  0
 39 80  1  0
M  CHG  1   8  -1
M  END
>  <i_m_ct_stereo_status>  (317) 
1

>  <s_m_source_file>  (317) 
/var/tmp/pbs.5076255.sched01/tmpyj7ipo08/120az4jmrmy.sdf

>  <i_m_source_file_index>  (317) 
3

>  <i_lp_mmshare_version>  (317) 
48012

>  <i_f3d_flags>  (317) 
0

>  <s_epik_input>  (317) 
W0NASF0xMk9DKD1PKUMoPVtDSDJdKUMoW0NAQEhdMVtPSF0pPVtDSF1bQ0BIXTJbQ0BAXShbQ0gzXSkoW0NAQEhdKFtDSF09W0NIXTMpW0NASF00W0NIMl1bQ0BIXTVbT0hdKVtDQEBdMyhbQ0gzXSlbQ0BASF00W0NAXShbQ0gzXSkoW0NASF01W0NAXShbQ0gzXSkoW0NIMl02KVtDQEBIXShbQ0BASF0oW0NAQF02NzgpTzcpW09IXSlbQ0BIXShbT0hdKVtDSDJdW0NAQEhdOFtDSDNd

>  <s_epik_cmdline>  (317) 
J2VwaWtfcHl0aG9uJywgJy1waHQnLCAnMi4wJywgJy1waCcsICc3LjAnLCAnLXRuJywgJzgnLCAnLW1hJywgJzIwMCcsICctaW1hZScsICc8aW5maWxlLm1hZT4nLCAnLW9tYWUnLCAnPG91dGZpbGUubWFlPic=

>  <r_epik_Ionization_Penalty>  (317) 
1.36819

>  <r_epik_Ionization_Penalty_Charging>  (317) 
1.36819

>  <r_epik_Ionization_Penalty_Neutral>  (317) 
1.67672e-06

>  <r_epik_State_Penalty>  (317) 
1.44767

>  <r_epik_Charging_Adjusted_Penalty>  (317) 
2.81586

>  <i_epik_Tot_Q>  (317) 
-1

>  <i_epik_Tot_abs_Q>  (317) 
1

>  <s_epik_Chemistry_Notes>  (317) 
This compound has an ester and may undergo hydrolysis at high or low pH.

>  <s_lp_Force_Field>  (317) 
OPLS3e

>  <r_lp_Energy>  (317) 
205.213

>  <b_lp_Chiralities_Consistent>  (317) 
1

>  <s_lp_Variant>  (317) 
90:0-2

>  <s_i_glide_gridfile>  (317) 
pfpi4k_grid

>  <i_i_glide_lignum>  (317) 
3

>  <i_i_glide_rotatable_bonds>  (317) 
4

>  <r_i_docking_score>  (317) 
-2.21985

>  <r_i_glide_ligand_efficiency>  (317) 
-0.0569194

>  <r_i_glide_ligand_efficiency_sa>  (317) 
-0.193026

>  <r_i_glide_ligand_efficiency_ln>  (317) 
-0.476

>  <r_i_glide_gscore>  (317) 
-2.21985

>  <r_i_glide_lipo>  (317) 
-0.331103

>  <r_i_glide_hbond>  (317) 
-0.0229176

>  <r_i_glide_metal>  (317) 
-0

>  <r_i_glide_rewards>  (317) 
-0.0570622

>  <r_i_glide_evdw>  (317) 
-36.827

>  <r_i_glide_ecoul>  (317) 
-0.259208

>  <r_i_glide_erotb>  (317) 
0.0714601

>  <r_i_glide_esite>  (317) 
0

>  <r_i_glide_emodel>  (317) 
-41.3111

>  <r_i_glide_energy>  (317) 
-37.0862

>  <r_i_glide_einternal>  (317) 
2.53559

>  <r_i_glide_intrahb_reward>  (317) 
-0

>  <i_i_glide_confnum>  (317) 
2

>  <i_i_glide_posenum>  (317) 
19

>  <r_i_glide_eff_state_penalty>  (317) 
0

>  <ligand_id>  (317) 
90

>  <original_smiles>  (317) 
C=C1C(=O)OC2C(O)C1=CC2C1(C)C2C=CC1(C)C1C2CC(O)C2C3(C)CC4(OC4C3O)C(C)CC(O)C21C

>  <smiles>  (317) 
[H]OC1([H])C([H])([H])C2([H])C3([H])C([H])=C([H])C(C([H])([H])[H])(C2([H])C2(C([H])([H])[H])C([H])(O[H])C([H])([H])C([H])(C([H])([H])[H])C45OC4([H])C([H])(O[H])C(C([H])([H])[H])(C5([H])[H])C12[H])C3(C([H])([H])[H])C1([H])C([H])=C2C(=C([H])[H])C(=O)OC1([H])C2([H])[O-]

$$$$
92:0:0
     RDKit          3D

 69 72  0  0  1  0  0  0  0  0999 V2000
    4.8000   -9.6234    2.7643 C   0  0  0  0  0  0  0  0  0  0  0  0
    3.9061   -8.4055    3.0573 C   0  0  2  0  0  0  0  0  0  0  0  0
    4.2170   -7.7759    4.4349 C   0  0  0  0  0  0  0  0  0  0  0  0
    3.2404   -6.6377    4.8434 C   0  0  0  0  0  0  0  0  0  0  0  0
    1.7219   -6.8686    4.5361 C   0  0  1  0  0  0  0  0  0  0  0  0
    0.8927   -5.5847    4.7671 C   0  0  1  0  0  0  0  0  0  0  0  0
    0.8258   -5.1629    6.2482 C   0  0  0  0  0  0  0  0  0  0  0  0
    1.2356   -4.4508    3.7455 C   0  0  1  0  0  0  0  0  0  0  0  0
    1.9748   -3.2156    4.3224 C   0  0  0  0  0  0  0  0  0  0  0  0
    2.0484   -2.0228    3.3538 C   0  0  0  0  0  0  0  0  0  0  0  0
    2.6460   -0.7650    4.0135 C   0  0  0  0  0  0  0  0  0  0  0  0
    2.5400    0.3288    3.1148 O   0  0  0  0  0  0  0  0  0  0  0  0
    2.5697    1.6158    3.7189 C   0  0  0  0  0  0  0  0  0  0  0  0
    1.9549    2.6443    2.7500 C   0  0  0  0  0  0  0  0  0  0  0  0
    0.4825    2.5112    2.4833 N   0  0  0  0  0  0  0  0  0  0  0  0
   -0.3474    2.7826    3.7041 C   0  0  0  0  0  0  0  0  0  0  0  0
    0.0746    1.2439    1.8127 C   0  0  0  0  0  0  0  0  0  0  0  0
    1.9531   -4.9504    2.6083 O   0  0  0  0  0  0  0  0  0  0  0  0
    1.5059   -6.2057    2.0978 C   0  0  2  0  0  0  0  0  0  0  0  0
    0.0390   -6.3152    2.0888 O   0  0  0  0  0  0  0  0  0  0  0  0
    0.2725   -7.7136    2.3198 C   0  0  2  0  0  0  0  0  0  0  0  0
   -0.5485   -8.7649    3.0080 C   0  0  1  0  0  0  0  0  0  0  0  0
   -2.0138   -8.8701    2.5928 C   0  0  0  0  0  0  0  0  0  0  0  0
    0.2443  -10.0957    2.7710 C   0  0  0  0  0  0  0  0  0  0  0  0
    1.7586   -9.9152    2.3660 C   0  0  0  0  0  0  0  0  0  0  0  0
    2.4065   -8.7149    3.1068 C   0  0  2  0  0  0  0  0  0  0  0  0
    1.5702   -7.4008    3.0879 C   0  0  2  0  0  0  0  0  0  0  0  0
    4.6640  -10.4158    3.5016 H   0  0  0  0  0  0  0  0  0  0  0  0
    5.8530   -9.3400    2.7696 H   0  0  0  0  0  0  0  0  0  0  0  0
    4.5865  -10.0448    1.7805 H   0  0  0  0  0  0  0  0  0  0  0  0
    4.0963   -7.6677    2.2771 H   0  0  0  0  0  0  0  0  0  0  0  0
    4.1732   -8.5563    5.1979 H   0  0  0  0  0  0  0  0  0  0  0  0
    5.2385   -7.4011    4.4544 H   0  0  0  0  0  0  0  0  0  0  0  0
    3.3667   -6.4503    5.9069 H   0  0  0  0  0  0  0  0  0  0  0  0
    3.5829   -5.7358    4.3376 H   0  0  0  0  0  0  0  0  0  0  0  0
    1.3475   -7.6182    5.2364 H   0  0  0  0  0  0  0  0  0  0  0  0
   -0.1290   -5.8843    4.5344 H   0  0  0  0  0  0  0  0  0  0  0  0
    1.7929   -4.8197    6.6206 H   0  0  0  0  0  0  0  0  0  0  0  0
    0.5015   -5.9915    6.8816 H   0  0  0  0  0  0  0  0  0  0  0  0
    0.1056   -4.3559    6.3843 H   0  0  0  0  0  0  0  0  0  0  0  0
    0.2824   -4.0847    3.3696 H   0  0  0  0  0  0  0  0  0  0  0  0
    1.4453   -2.8571    5.2061 H   0  0  0  0  0  0  0  0  0  0  0  0
    2.9758   -3.4878    4.6570 H   0  0  0  0  0  0  0  0  0  0  0  0
    2.6243   -2.2909    2.4709 H   0  0  0  0  0  0  0  0  0  0  0  0
    1.0417   -1.8005    3.0015 H   0  0  0  0  0  0  0  0  0  0  0  0
    2.0872   -0.5524    4.9249 H   0  0  0  0  0  0  0  0  0  0  0  0
    3.6861   -0.9213    4.3087 H   0  0  0  0  0  0  0  0  0  0  0  0
    2.0356    1.6243    4.6731 H   0  0  0  0  0  0  0  0  0  0  0  0
    3.5998    1.8902    3.9620 H   0  0  0  0  0  0  0  0  0  0  0  0
    2.1297    3.6488    3.1509 H   0  0  0  0  0  0  0  0  0  0  0  0
    2.4816    2.6130    1.7908 H   0  0  0  0  0  0  0  0  0  0  0  0
   -0.1869    2.0441    4.4853 H   0  0  0  0  0  0  0  0  0  0  0  0
   -1.4098    2.7553    3.4384 H   0  0  0  0  0  0  0  0  0  0  0  0
   -0.1294    3.7774    4.1126 H   0  0  0  0  0  0  0  0  0  0  0  0
    0.2320    0.3794    2.4404 H   0  0  0  0  0  0  0  0  0  0  0  0
    0.6400    1.1320    0.8887 H   0  0  0  0  0  0  0  0  0  0  0  0
   -0.9867    1.2860    1.5658 H   0  0  0  0  0  0  0  0  0  0  0  0
    1.9646   -6.4462    1.1373 H   0  0  0  0  0  0  0  0  0  0  0  0
    0.4734   -8.0957    1.3091 H   0  0  0  0  0  0  0  0  0  0  0  0
   -0.5355   -8.5635    4.0791 H   0  0  0  0  0  0  0  0  0  0  0  0
   -2.1207   -9.1347    1.5416 H   0  0  0  0  0  0  0  0  0  0  0  0
   -2.5553   -7.9442    2.7890 H   0  0  0  0  0  0  0  0  0  0  0  0
   -2.4793   -9.6546    3.1845 H   0  0  0  0  0  0  0  0  0  0  0  0
    0.1773  -10.6990    3.6724 H   0  0  0  0  0  0  0  0  0  0  0  0
   -0.2530  -10.6784    1.9944 H   0  0  0  0  0  0  0  0  0  0  0  0
    2.2937  -10.8351    2.6083 H   0  0  0  0  0  0  0  0  0  0  0  0
    1.8597   -9.7804    1.2894 H   0  0  0  0  0  0  0  0  0  0  0  0
    2.3061   -9.1526    4.1043 H   0  0  0  0  0  0  0  0  0  0  0  0
    0.2698    3.2622    1.8282 H   0  0  0  0  0  0  0  0  0  0  0  0
  1  2  1  0
  1 28  1  0
  1 29  1  0
  1 30  1  0
  2 26  1  0
  2  3  1  0
  2 31  1  6
  3  4  1  0
  3 32  1  0
  3 33  1  0
  4  5  1  0
  4 34  1  0
  4 35  1  0
  5 27  1  0
  5  6  1  0
  5 36  1  1
  6  7  1  0
  6  8  1  0
  6 37  1  6
  7 38  1  0
  7 39  1  0
  7 40  1  0
  8  9  1  0
  8 18  1  0
  8 41  1  6
  9 10  1  0
  9 42  1  0
  9 43  1  0
 10 11  1  0
 10 44  1  0
 10 45  1  0
 11 12  1  0
 11 46  1  0
 11 47  1  0
 12 13  1  0
 13 14  1  0
 13 48  1  0
 13 49  1  0
 14 15  1  0
 14 50  1  0
 14 51  1  0
 15 16  1  0
 15 17  1  0
 15 69  1  0
 16 52  1  0
 16 53  1  0
 16 54  1  0
 17 55  1  0
 17 56  1  0
 17 57  1  0
 18 19  1  0
 27 19  1  6
 19 20  1  0
 19 58  1  6
 20 21  1  0
 21 27  1  0
 21 22  1  0
 21 59  1  6
 22 23  1  0
 22 24  1  0
 22 60  1  1
 23 61  1  0
 23 62  1  0
 23 63  1  0
 24 25  1  0
 24 64  1  0
 24 65  1  0
 25 26  1  0
 25 66  1  0
 25 67  1  0
 26 27  1  0
 26 68  1  1
M  CHG  1  15   1
M  END
>  <i_m_ct_stereo_status>  (318) 
1

>  <s_m_source_file>  (318) 
/var/tmp/pbs.5076255.sched01/tmpyj7ipo08/120az4jmrmy.sdf

>  <i_m_source_file_index>  (318) 
6

>  <i_lp_mmshare_version>  (318) 
48012

>  <i_f3d_flags>  (318) 
0

>  <s_epik_input>  (318) 
W0NAQF0xMjNbQ0BIXTRbQ0gyXVtDSDJdW0NAQEhdKFtDSDNdKVtDQEBIXTNbQ0gyXVtDSDJdW0NASF0oW0NIM10pW0NASF0yT1tDQEhdMU9bQ0BASF0oW0NAQEhdNFtDSDNdKVtDSDJdW0NIMl1bQ0gyXU9bQ0gyXVtDSDJdTihbQ0gzXSlbQ0gzXQ==

>  <s_epik_cmdline>  (318) 
J2VwaWtfcHl0aG9uJywgJy1waHQnLCAnMi4wJywgJy1waCcsICc3LjAnLCAnLXRuJywgJzgnLCAnLW1hJywgJzIwMCcsICctaW1hZScsICc8aW5maWxlLm1hZT4nLCAnLW9tYWUnLCAnPG91dGZpbGUubWFlPic=

>  <r_epik_Ionization_Penalty>  (318) 
0.00770263

>  <r_epik_Ionization_Penalty_Charging>  (318) 
0.00770263

>  <r_epik_Ionization_Penalty_Neutral>  (318) 
2.07152e-12

>  <r_epik_State_Penalty>  (318) 
0.00576797

>  <r_epik_Charging_Adjusted_Penalty>  (318) 
0.0134706

>  <i_epik_Tot_Q>  (318) 
1

>  <i_epik_Tot_abs_Q>  (318) 
1

>  <s_epik_Chemistry_Notes>  (318) 
This compound contains an acetal/aminal-like group ( X-CH(R)-Y where X, Y are N, S, or O) that may be acid/base labile, releasing an aldehyde.

>  <s_lp_Force_Field>  (318) 
OPLS3e

>  <r_lp_Energy>  (318) 
114.944

>  <b_lp_Chiralities_Consistent>  (318) 
1

>  <s_lp_Variant>  (318) 
92:0-1

>  <s_i_glide_gridfile>  (318) 
pfpi4k_grid

>  <i_i_glide_lignum>  (318) 
6

>  <i_i_glide_rotatable_bonds>  (318) 
7

>  <r_i_docking_score>  (318) 
-3.33661

>  <r_i_glide_ligand_efficiency>  (318) 
-0.123578

>  <r_i_glide_ligand_efficiency_sa>  (318) 
-0.370734

>  <r_i_glide_ligand_efficiency_ln>  (318) 
-0.776708

>  <r_i_glide_gscore>  (318) 
-3.33661

>  <r_i_glide_lipo>  (318) 
-0.310533

>  <r_i_glide_hbond>  (318) 
-0.440579

>  <r_i_glide_metal>  (318) 
-0

>  <r_i_glide_rewards>  (318) 
-0.814197

>  <r_i_glide_evdw>  (318) 
-20.2191

>  <r_i_glide_ecoul>  (318) 
-9.46555

>  <r_i_glide_erotb>  (318) 
0.803705

>  <r_i_glide_esite>  (318) 
-0.144221

>  <r_i_glide_emodel>  (318) 
-36.0373

>  <r_i_glide_energy>  (318) 
-29.6846

>  <r_i_glide_einternal>  (318) 
3.94652

>  <r_i_glide_intrahb_reward>  (318) 
-0

>  <i_i_glide_confnum>  (318) 
4

>  <i_i_glide_posenum>  (318) 
1

>  <r_i_glide_eff_state_penalty>  (318) 
0

>  <ligand_id>  (318) 
92

>  <original_smiles>  (318) 
CC1CCC2C(C)C(CCCOCCN(C)C)OC3OC4C(C)CCC1C324

>  <smiles>  (318) 
[H]C([H])([H])C1([H])C([H])([H])C([H])([H])C2([H])C([H])(C([H])([H])[H])C([H])([H])C([H])([H])C3([H])C([H])(C([H])([H])[H])C([H])(C([H])([H])C([H])([H])C([H])([H])OC([H])([H])C([H])([H])[N+]([H])(C([H])([H])[H])C([H])([H])[H])OC4([H])OC1([H])C423

$$$$
92:0:1
     RDKit          3D

 69 72  0  0  1  0  0  0  0  0999 V2000
    5.4543   -9.3133    1.3661 C   0  0  0  0  0  0  0  0  0  0  0  0
    4.6142   -8.0867    1.7527 C   0  0  2  0  0  0  0  0  0  0  0  0
    5.2361   -7.3057    2.9352 C   0  0  0  0  0  0  0  0  0  0  0  0
    4.3459   -6.1467    3.4652 C   0  0  0  0  0  0  0  0  0  0  0  0
    2.8119   -6.4323    3.5823 C   0  0  1  0  0  0  0  0  0  0  0  0
    2.0151   -5.1491    3.8895 C   0  0  1  0  0  0  0  0  0  0  0  0
    2.3080   -4.5647    5.2867 C   0  0  0  0  0  0  0  0  0  0  0  0
    2.0337   -4.1328    2.7086 C   0  0  1  0  0  0  0  0  0  0  0  0
    2.8480   -2.8496    2.9644 C   0  0  0  0  0  0  0  0  0  0  0  0
    2.6600   -1.7903    1.8663 C   0  0  0  0  0  0  0  0  0  0  0  0
    3.2269   -0.4222    2.2555 C   0  0  0  0  0  0  0  0  0  0  0  0
    2.4752    0.0879    3.3478 O   0  0  0  0  0  0  0  0  0  0  0  0
    2.7627    1.4251    3.7171 C   0  0  0  0  0  0  0  0  0  0  0  0
    2.2501    2.4425    2.6521 C   0  0  0  0  0  0  0  0  0  0  0  0
    0.7661    2.5348    2.5193 N   0  0  0  0  0  0  0  0  0  0  0  0
    0.0994    3.0579    3.7393 C   0  0  0  0  0  0  0  0  0  0  0  0
    0.1025    1.3050    1.9848 C   0  0  0  0  0  0  0  0  0  0  0  0
    2.4675   -4.7345    1.4743 O   0  0  0  0  0  0  0  0  0  0  0  0
    1.9640   -6.0418    1.2269 C   0  0  2  0  0  0  0  0  0  0  0  0
    0.5426   -6.1838    1.6047 O   0  0  0  0  0  0  0  0  0  0  0  0
    0.8867   -7.5347    1.9032 C   0  0  2  0  0  0  0  0  0  0  0  0
    0.3020   -8.5203    2.8726 C   0  0  1  0  0  0  0  0  0  0  0  0
   -1.2186   -8.6916    2.8536 C   0  0  0  0  0  0  0  0  0  0  0  0
    1.0639   -9.8545    2.5828 C   0  0  0  0  0  0  0  0  0  0  0  0
    2.4197   -9.6996    1.7910 C   0  0  0  0  0  0  0  0  0  0  0  0
    3.1874   -8.4098    2.2162 C   0  0  2  0  0  0  0  0  0  0  0  0
    2.3287   -7.1251    2.2814 C   0  0  2  0  0  0  0  0  0  0  0  0
    5.5386  -10.0231    2.1903 H   0  0  0  0  0  0  0  0  0  0  0  0
    6.4624   -9.0182    1.0726 H   0  0  0  0  0  0  0  0  0  0  0  0
    5.0093   -9.8400    0.5217 H   0  0  0  0  0  0  0  0  0  0  0  0
    4.5714   -7.4296    0.8801 H   0  0  0  0  0  0  0  0  0  0  0  0
    5.4174   -8.0002    3.7589 H   0  0  0  0  0  0  0  0  0  0  0  0
    6.2149   -6.9146    2.6567 H   0  0  0  0  0  0  0  0  0  0  0  0
    4.7302   -5.8447    4.4365 H   0  0  0  0  0  0  0  0  0  0  0  0
    4.5118   -5.2981    2.7999 H   0  0  0  0  0  0  0  0  0  0  0  0
    2.6618   -7.1103    4.4266 H   0  0  0  0  0  0  0  0  0  0  0  0
    0.9805   -5.4870    3.9517 H   0  0  0  0  0  0  0  0  0  0  0  0
    3.3217   -4.1669    5.3617 H   0  0  0  0  0  0  0  0  0  0  0  0
    2.1873   -5.3222    6.0623 H   0  0  0  0  0  0  0  0  0  0  0  0
    1.6125   -3.7600    5.5111 H   0  0  0  0  0  0  0  0  0  0  0  0
    1.0011   -3.8226    2.5650 H   0  0  0  0  0  0  0  0  0  0  0  0
    2.5082   -2.3942    3.8946 H   0  0  0  0  0  0  0  0  0  0  0  0
    3.9123   -3.0515    3.0948 H   0  0  0  0  0  0  0  0  0  0  0  0
    3.1418   -2.1340    0.9556 H   0  0  0  0  0  0  0  0  0  0  0  0
    1.6029   -1.6793    1.6273 H   0  0  0  0  0  0  0  0  0  0  0  0
    4.2879   -0.4928    2.5192 H   0  0  0  0  0  0  0  0  0  0  0  0
    3.1133    0.2210    1.3919 H   0  0  0  0  0  0  0  0  0  0  0  0
    2.3013    1.6232    4.6872 H   0  0  0  0  0  0  0  0  0  0  0  0
    3.8383    1.5655    3.8683 H   0  0  0  0  0  0  0  0  0  0  0  0
    2.6301    3.4584    2.9135 H   0  0  0  0  0  0  0  0  0  0  0  0
    2.6614    2.1773    1.6963 H   0  0  0  0  0  0  0  0  0  0  0  0
    0.1801    2.3485    4.5715 H   0  0  0  0  0  0  0  0  0  0  0  0
   -0.9687    3.2456    3.5388 H   0  0  0  0  0  0  0  0  0  0  0  0
    0.5641    4.0117    4.0421 H   0  0  0  0  0  0  0  0  0  0  0  0
    0.2086    0.4607    2.6742 H   0  0  0  0  0  0  0  0  0  0  0  0
    0.5392    1.0315    1.0110 H   0  0  0  0  0  0  0  0  0  0  0  0
   -0.9688    1.4933    1.8413 H   0  0  0  0  0  0  0  0  0  0  0  0
    2.1640   -6.3613    0.2009 H   0  0  0  0  0  0  0  0  0  0  0  0
    0.8564   -8.0203    0.9149 H   0  0  0  0  0  0  0  0  0  0  0  0
    0.5762   -8.1970    3.8790 H   0  0  0  0  0  0  0  0  0  0  0  0
   -1.5712   -9.0613    1.8871 H   0  0  0  0  0  0  0  0  0  0  0  0
   -1.7361   -7.7610    3.0897 H   0  0  0  0  0  0  0  0  0  0  0  0
   -1.4825   -9.4176    3.6185 H   0  0  0  0  0  0  0  0  0  0  0  0
    1.2600  -10.3461    3.5286 H   0  0  0  0  0  0  0  0  0  0  0  0
    0.4047  -10.5241    2.0357 H   0  0  0  0  0  0  0  0  0  0  0  0
    3.0400  -10.5770    1.9905 H   0  0  0  0  0  0  0  0  0  0  0  0
    2.2488   -9.6851    0.7140 H   0  0  0  0  0  0  0  0  0  0  0  0
    3.3666   -8.7392    3.2409 H   0  0  0  0  0  0  0  0  0  0  0  0
    0.6140    3.2592    1.7956 H   0  0  0  0  0  0  0  0  0  0  0  0
  1  2  1  0
  1 28  1  0
  1 29  1  0
  1 30  1  0
  2 26  1  0
  2  3  1  0
  2 31  1  6
  3  4  1  0
  3 32  1  0
  3 33  1  0
  4  5  1  0
  4 34  1  0
  4 35  1  0
  5 27  1  0
  5  6  1  0
  5 36  1  1
  6  7  1  0
  6  8  1  0
  6 37  1  1
  7 38  1  0
  7 39  1  0
  7 40  1  0
  8  9  1  0
  8 18  1  0
  8 41  1  6
  9 10  1  0
  9 42  1  0
  9 43  1  0
 10 11  1  0
 10 44  1  0
 10 45  1  0
 11 12  1  0
 11 46  1  0
 11 47  1  0
 12 13  1  0
 13 14  1  0
 13 48  1  0
 13 49  1  0
 14 15  1  0
 14 50  1  0
 14 51  1  0
 15 16  1  0
 15 17  1  0
 15 69  1  0
 16 52  1  0
 16 53  1  0
 16 54  1  0
 17 55  1  0
 17 56  1  0
 17 57  1  0
 18 19  1  0
 27 19  1  6
 19 20  1  0
 19 58  1  6
 20 21  1  0
 21 27  1  0
 21 22  1  0
 21 59  1  6
 22 23  1  0
 22 24  1  0
 22 60  1  1
 23 61  1  0
 23 62  1  0
 23 63  1  0
 24 25  1  0
 24 64  1  0
 24 65  1  0
 25 26  1  0
 25 66  1  0
 25 67  1  0
 26 27  1  0
 26 68  1  1
M  CHG  1  15   1
M  END
>  <i_m_ct_stereo_status>  (319) 
1

>  <s_m_source_file>  (319) 
/var/tmp/pbs.5076255.sched01/tmpyj7ipo08/120az4jmrmy.sdf

>  <i_m_source_file_index>  (319) 
6

>  <i_lp_mmshare_version>  (319) 
48012

>  <i_f3d_flags>  (319) 
0

>  <s_epik_input>  (319) 
W0NAQF0xMjNbQ0BIXTRbQ0gyXVtDSDJdW0NAQEhdKFtDSDNdKVtDQEBIXTNbQ0gyXVtDSDJdW0NASF0oW0NIM10pW0NASF0yT1tDQEhdMU9bQ0BASF0oW0NAQEhdNFtDSDNdKVtDSDJdW0NIMl1bQ0gyXU9bQ0gyXVtDSDJdTihbQ0gzXSlbQ0gzXQ==

>  <s_epik_cmdline>  (319) 
J2VwaWtfcHl0aG9uJywgJy1waHQnLCAnMi4wJywgJy1waCcsICc3LjAnLCAnLXRuJywgJzgnLCAnLW1hJywgJzIwMCcsICctaW1hZScsICc8aW5maWxlLm1hZT4nLCAnLW9tYWUnLCAnPG91dGZpbGUubWFlPic=

>  <r_epik_Ionization_Penalty>  (319) 
0.00770263

>  <r_epik_Ionization_Penalty_Charging>  (319) 
0.00770263

>  <r_epik_Ionization_Penalty_Neutral>  (319) 
2.07152e-12

>  <r_epik_State_Penalty>  (319) 
0.00576797

>  <r_epik_Charging_Adjusted_Penalty>  (319) 
0.0134706

>  <i_epik_Tot_Q>  (319) 
1

>  <i_epik_Tot_abs_Q>  (319) 
1

>  <s_epik_Chemistry_Notes>  (319) 
This compound contains an acetal/aminal-like group ( X-CH(R)-Y where X, Y are N, S, or O) that may be acid/base labile, releasing an aldehyde.

>  <s_lp_Force_Field>  (319) 
OPLS3e

>  <r_lp_Energy>  (319) 
114.944

>  <b_lp_Chiralities_Consistent>  (319) 
1

>  <s_lp_Variant>  (319) 
92:0-1

>  <s_i_glide_gridfile>  (319) 
pfpi4k_grid

>  <i_i_glide_lignum>  (319) 
6

>  <i_i_glide_rotatable_bonds>  (319) 
7

>  <r_i_docking_score>  (319) 
-3.16186

>  <r_i_glide_ligand_efficiency>  (319) 
-0.117106

>  <r_i_glide_ligand_efficiency_sa>  (319) 
-0.351318

>  <r_i_glide_ligand_efficiency_ln>  (319) 
-0.736029

>  <r_i_glide_gscore>  (319) 
-3.16186

>  <r_i_glide_lipo>  (319) 
-0.139919

>  <r_i_glide_hbond>  (319) 
-0.380061

>  <r_i_glide_metal>  (319) 
-0

>  <r_i_glide_rewards>  (319) 
-0.814197

>  <r_i_glide_evdw>  (319) 
-21.4956

>  <r_i_glide_ecoul>  (319) 
-9.4247

>  <r_i_glide_erotb>  (319) 
0.803705

>  <r_i_glide_esite>  (319) 
-0.142903

>  <r_i_glide_emodel>  (319) 
-36.5824

>  <r_i_glide_energy>  (319) 
-30.9203

>  <r_i_glide_einternal>  (319) 
4.48841

>  <r_i_glide_intrahb_reward>  (319) 
-0

>  <i_i_glide_confnum>  (319) 
4

>  <i_i_glide_posenum>  (319) 
40

>  <r_i_glide_eff_state_penalty>  (319) 
0

>  <ligand_id>  (319) 
92

>  <original_smiles>  (319) 
CC1CCC2C(C)C(CCCOCCN(C)C)OC3OC4C(C)CCC1C324

>  <smiles>  (319) 
[H]C([H])([H])C1([H])C([H])([H])C([H])([H])C2([H])C([H])(C([H])([H])[H])C([H])([H])C([H])([H])C3([H])C([H])(C([H])([H])[H])C([H])(C([H])([H])C([H])([H])C([H])([H])OC([H])([H])C([H])([H])[N+]([H])(C([H])([H])[H])C([H])([H])[H])OC4([H])OC1([H])C423

$$$$
92:0:2
     RDKit          3D

 69 72  0  0  1  0  0  0  0  0999 V2000
    4.7187   -9.9103    2.8375 C   0  0  0  0  0  0  0  0  0  0  0  0
    3.9400   -8.5990    3.0169 C   0  0  2  0  0  0  0  0  0  0  0  0
    4.3330   -7.8657    4.3183 C   0  0  0  0  0  0  0  0  0  0  0  0
    3.4672   -6.6137    4.6234 C   0  0  0  0  0  0  0  0  0  0  0  0
    1.9247   -6.7406    4.3664 C   0  0  1  0  0  0  0  0  0  0  0  0
    1.2058   -5.3758    4.4835 C   0  0  1  0  0  0  0  0  0  0  0  0
    1.2228   -4.7942    5.9093 C   0  0  0  0  0  0  0  0  0  0  0  0
    1.6119   -4.3868    3.3535 C   0  0  1  0  0  0  0  0  0  0  0  0
    2.4594   -3.1671    3.8200 C   0  0  0  0  0  0  0  0  0  0  0  0
    3.0006   -2.3296    2.6399 C   0  0  0  0  0  0  0  0  0  0  0  0
    4.3297   -1.5878    2.9440 C   0  0  0  0  0  0  0  0  0  0  0  0
    5.0744   -1.2303    1.7816 O   0  0  0  0  0  0  0  0  0  0  0  0
    5.4502   -2.3237    0.9603 C   0  0  0  0  0  0  0  0  0  0  0  0
    6.5435   -1.9328   -0.0316 C   0  0  0  0  0  0  0  0  0  0  0  0
    6.8488   -3.0282   -0.9783 N   0  0  0  0  0  0  0  0  0  0  0  0
    8.2229   -2.9638   -1.5091 C   0  0  0  0  0  0  0  0  0  0  0  0
    5.8411   -3.1663   -2.0719 C   0  0  0  0  0  0  0  0  0  0  0  0
    2.2798   -5.0829    2.2852 O   0  0  0  0  0  0  0  0  0  0  0  0
    1.7025   -6.3150    1.8855 C   0  0  2  0  0  0  0  0  0  0  0  0
    0.2249   -6.2920    1.9095 O   0  0  0  0  0  0  0  0  0  0  0  0
    0.3492   -7.6668    2.2640 C   0  0  2  0  0  0  0  0  0  0  0  0
   -0.5346   -8.5747    3.0586 C   0  0  1  0  0  0  0  0  0  0  0  0
   -2.0097   -8.5869    2.6703 C   0  0  0  0  0  0  0  0  0  0  0  0
    0.1369   -9.9794    2.9330 C   0  0  0  0  0  0  0  0  0  0  0  0
    1.6559   -9.9757    2.5077 C   0  0  0  0  0  0  0  0  0  0  0  0
    2.4175   -8.7673    3.1231 C   0  0  2  0  0  0  0  0  0  0  0  0
    1.6935   -7.4064    2.9833 C   0  0  2  0  0  0  0  0  0  0  0  0
    4.5284  -10.6146    3.6468 H   0  0  0  0  0  0  0  0  0  0  0  0
    5.7914   -9.7244    2.7993 H   0  0  0  0  0  0  0  0  0  0  0  0
    4.4473  -10.3957    1.9018 H   0  0  0  0  0  0  0  0  0  0  0  0
    4.1755   -7.9596    2.1627 H   0  0  0  0  0  0  0  0  0  0  0  0
    4.2414   -8.5636    5.1553 H   0  0  0  0  0  0  0  0  0  0  0  0
    5.3838   -7.5835    4.2842 H   0  0  0  0  0  0  0  0  0  0  0  0
    3.6350   -6.3408    5.6609 H   0  0  0  0  0  0  0  0  0  0  0  0
    3.8780   -5.7953    4.0300 H   0  0  0  0  0  0  0  0  0  0  0  0
    1.5098   -7.3841    5.1497 H   0  0  0  0  0  0  0  0  0  0  0  0
    0.1559   -5.6058    4.2944 H   0  0  0  0  0  0  0  0  0  0  0  0
    2.2249   -4.5106    6.2337 H   0  0  0  0  0  0  0  0  0  0  0  0
    0.8399   -5.5190    6.6263 H   0  0  0  0  0  0  0  0  0  0  0  0
    0.5910   -3.9092    5.9649 H   0  0  0  0  0  0  0  0  0  0  0  0
    0.7087   -3.9759    2.9145 H   0  0  0  0  0  0  0  0  0  0  0  0
    1.8715   -2.5206    4.4864 H   0  0  0  0  0  0  0  0  0  0  0  0
    3.2983   -3.5245    4.4231 H   0  0  0  0  0  0  0  0  0  0  0  0
    3.1661   -3.0330    1.8421 H   0  0  0  0  0  0  0  0  0  0  0  0
    2.2388   -1.6469    2.2559 H   0  0  0  0  0  0  0  0  0  0  0  0
    4.1176   -0.6810    3.5084 H   0  0  0  0  0  0  0  0  0  0  0  0
    4.9817   -2.1788    3.5875 H   0  0  0  0  0  0  0  0  0  0  0  0
    5.8009   -3.1679    1.5581 H   0  0  0  0  0  0  0  0  0  0  0  0
    4.5914   -2.6394    0.3774 H   0  0  0  0  0  0  0  0  0  0  0  0
    6.2250   -1.0286   -0.5741 H   0  0  0  0  0  0  0  0  0  0  0  0
    7.4338   -1.6428    0.5513 H   0  0  0  0  0  0  0  0  0  0  0  0
    8.3735   -2.0652   -2.1167 H   0  0  0  0  0  0  0  0  0  0  0  0
    8.4592   -3.8210   -2.1410 H   0  0  0  0  0  0  0  0  0  0  0  0
    8.9556   -2.9380   -0.6953 H   0  0  0  0  0  0  0  0  0  0  0  0
    5.7739   -2.2503   -2.6684 H   0  0  0  0  0  0  0  0  0  0  0  0
    4.8420   -3.3971   -1.6999 H   0  0  0  0  0  0  0  0  0  0  0  0
    6.1166   -3.9675   -2.7540 H   0  0  0  0  0  0  0  0  0  0  0  0
    2.1050   -6.6929    0.9394 H   0  0  0  0  0  0  0  0  0  0  0  0
    0.5049   -8.1680    1.2974 H   0  0  0  0  0  0  0  0  0  0  0  0
   -0.4794   -8.2698    4.1092 H   0  0  0  0  0  0  0  0  0  0  0  0
   -2.1604   -8.9483    1.6532 H   0  0  0  0  0  0  0  0  0  0  0  0
   -2.4724   -7.6066    2.7795 H   0  0  0  0  0  0  0  0  0  0  0  0
   -2.5262   -9.2728    3.3365 H   0  0  0  0  0  0  0  0  0  0  0  0
    0.0403  -10.4815    3.8898 H   0  0  0  0  0  0  0  0  0  0  0  0
   -0.4260  -10.5883    2.2224 H   0  0  0  0  0  0  0  0  0  0  0  0
    2.1125  -10.9088    2.8317 H   0  0  0  0  0  0  0  0  0  0  0  0
    1.7583   -9.9404    1.4242 H   0  0  0  0  0  0  0  0  0  0  0  0
    2.3079   -9.1013    4.1590 H   0  0  0  0  0  0  0  0  0  0  0  0
    6.8007   -3.8920   -0.4483 H   0  0  0  0  0  0  0  0  0  0  0  0
  1  2  1  0
  1 28  1  0
  1 29  1  0
  1 30  1  0
  2 26  1  0
  2  3  1  0
  2 31  1  6
  3  4  1  0
  3 32  1  0
  3 33  1  0
  4  5  1  0
  4 34  1  0
  4 35  1  0
  5 27  1  0
  5  6  1  0
  5 36  1  1
  6  7  1  0
  6  8  1  0
  6 37  1  6
  7 38  1  0
  7 39  1  0
  7 40  1  0
  8  9  1  0
  8 18  1  0
  8 41  1  6
  9 10  1  0
  9 42  1  0
  9 43  1  0
 10 11  1  0
 10 44  1  0
 10 45  1  0
 11 12  1  0
 11 46  1  0
 11 47  1  0
 12 13  1  0
 13 14  1  0
 13 48  1  0
 13 49  1  0
 14 15  1  0
 14 50  1  0
 14 51  1  0
 15 16  1  0
 15 17  1  0
 15 69  1  0
 16 52  1  0
 16 53  1  0
 16 54  1  0
 17 55  1  0
 17 56  1  0
 17 57  1  0
 18 19  1  0
 27 19  1  6
 19 20  1  0
 19 58  1  6
 20 21  1  0
 21 27  1  0
 21 22  1  0
 21 59  1  6
 22 23  1  0
 22 24  1  0
 22 60  1  1
 23 61  1  0
 23 62  1  0
 23 63  1  0
 24 25  1  0
 24 64  1  0
 24 65  1  0
 25 26  1  0
 25 66  1  0
 25 67  1  0
 26 27  1  0
 26 68  1  1
M  CHG  1  15   1
M  END
>  <i_m_ct_stereo_status>  (320) 
1

>  <s_m_source_file>  (320) 
/var/tmp/pbs.5076255.sched01/tmpyj7ipo08/120az4jmrmy.sdf

>  <i_m_source_file_index>  (320) 
6

>  <i_lp_mmshare_version>  (320) 
48012

>  <i_f3d_flags>  (320) 
0

>  <s_epik_input>  (320) 
W0NAQF0xMjNbQ0BIXTRbQ0gyXVtDSDJdW0NAQEhdKFtDSDNdKVtDQEBIXTNbQ0gyXVtDSDJdW0NASF0oW0NIM10pW0NASF0yT1tDQEhdMU9bQ0BASF0oW0NAQEhdNFtDSDNdKVtDSDJdW0NIMl1bQ0gyXU9bQ0gyXVtDSDJdTihbQ0gzXSlbQ0gzXQ==

>  <s_epik_cmdline>  (320) 
J2VwaWtfcHl0aG9uJywgJy1waHQnLCAnMi4wJywgJy1waCcsICc3LjAnLCAnLXRuJywgJzgnLCAnLW1hJywgJzIwMCcsICctaW1hZScsICc8aW5maWxlLm1hZT4nLCAnLW9tYWUnLCAnPG91dGZpbGUubWFlPic=

>  <r_epik_Ionization_Penalty>  (320) 
0.00770263

>  <r_epik_Ionization_Penalty_Charging>  (320) 
0.00770263

>  <r_epik_Ionization_Penalty_Neutral>  (320) 
2.07152e-12

>  <r_epik_State_Penalty>  (320) 
0.00576797

>  <r_epik_Charging_Adjusted_Penalty>  (320) 
0.0134706

>  <i_epik_Tot_Q>  (320) 
1

>  <i_epik_Tot_abs_Q>  (320) 
1

>  <s_epik_Chemistry_Notes>  (320) 
This compound contains an acetal/aminal-like group ( X-CH(R)-Y where X, Y are N, S, or O) that may be acid/base labile, releasing an aldehyde.

>  <s_lp_Force_Field>  (320) 
OPLS3e

>  <r_lp_Energy>  (320) 
114.944

>  <b_lp_Chiralities_Consistent>  (320) 
1

>  <s_lp_Variant>  (320) 
92:0-1

>  <s_i_glide_gridfile>  (320) 
pfpi4k_grid

>  <i_i_glide_lignum>  (320) 
6

>  <i_i_glide_rotatable_bonds>  (320) 
7

>  <r_i_docking_score>  (320) 
-2.72462

>  <r_i_glide_ligand_efficiency>  (320) 
-0.100912

>  <r_i_glide_ligand_efficiency_sa>  (320) 
-0.302736

>  <r_i_glide_ligand_efficiency_ln>  (320) 
-0.634248

>  <r_i_glide_gscore>  (320) 
-2.72462

>  <r_i_glide_lipo>  (320) 
-0.435015

>  <r_i_glide_hbond>  (320) 
-0.265267

>  <r_i_glide_metal>  (320) 
-0

>  <r_i_glide_rewards>  (320) 
-0.814197

>  <r_i_glide_evdw>  (320) 
-23.3023

>  <r_i_glide_ecoul>  (320) 
-5.40475

>  <r_i_glide_erotb>  (320) 
0.803705

>  <r_i_glide_esite>  (320) 
-0.0380233

>  <r_i_glide_emodel>  (320) 
-32.7638

>  <r_i_glide_energy>  (320) 
-28.707

>  <r_i_glide_einternal>  (320) 
5.01849

>  <r_i_glide_intrahb_reward>  (320) 
-0

>  <i_i_glide_confnum>  (320) 
5

>  <i_i_glide_posenum>  (320) 
7

>  <r_i_glide_eff_state_penalty>  (320) 
0

>  <ligand_id>  (320) 
92

>  <original_smiles>  (320) 
CC1CCC2C(C)C(CCCOCCN(C)C)OC3OC4C(C)CCC1C324

>  <smiles>  (320) 
[H]C([H])([H])C1([H])C([H])([H])C([H])([H])C2([H])C([H])(C([H])([H])[H])C([H])([H])C([H])([H])C3([H])C([H])(C([H])([H])[H])C([H])(C([H])([H])C([H])([H])C([H])([H])OC([H])([H])C([H])([H])[N+]([H])(C([H])([H])[H])C([H])([H])[H])OC4([H])OC1([H])C423

$$$$
93:0:0
     RDKit          3D

 82 88  0  0  1  0  0  0  0  0999 V2000
    0.1963    4.8036    6.9190 C   0  0  0  0  0  0  0  0  0  0  0  0
    0.4961    3.9089    5.9651 C   0  0  0  0  0  0  0  0  0  0  0  0
    1.6545    2.9335    6.0363 C   0  0  0  0  0  0  0  0  0  0  0  0
    1.2518    1.4717    5.6979 C   0  0  1  0  0  0  0  0  0  0  0  0
    0.3904    1.3987    4.3979 C   0  0  1  0  0  0  0  0  0  0  0  0
   -0.0742   -0.0608    4.1962 C   0  0  0  0  0  0  0  0  0  0  0  0
    1.0929   -1.0459    4.1460 C   0  0  0  0  0  0  0  0  0  0  0  0
    1.9676   -0.9951    5.4183 C   0  0  1  0  0  0  0  0  0  0  0  0
    3.1518   -2.0189    5.4080 C   0  0  1  0  0  0  0  0  0  0  0  0
    2.8912   -3.5102    5.0257 C   0  0  1  0  0  0  0  0  0  0  0  0
    1.5881   -4.0086    5.2553 O   0  0  0  0  0  0  0  0  0  0  0  0
    3.5529   -3.8240    3.6332 C   0  0  1  0  0  0  0  0  0  0  0  0
    4.3169   -5.1668    3.7263 C   0  0  0  0  0  0  0  0  0  0  0  0
    2.5246   -3.8804    2.4657 C   0  0  0  0  0  0  0  0  0  0  0  0
    2.8743   -3.0044    1.2497 C   0  0  0  0  0  0  0  0  0  0  0  0
    4.3664   -3.0702    0.8818 C   0  0  2  0  0  0  0  0  0  0  0  0
    5.2588   -2.6143    2.0790 C   0  0  1  0  0  0  0  0  0  0  0  0
    6.0127   -1.3033    1.7796 C   0  0  0  0  0  0  0  0  0  0  0  0
    6.8730   -1.3879    0.5101 C   0  0  0  0  0  0  0  0  0  0  0  0
    6.2003   -2.1278   -0.6391 C   0  0  0  0  0  0  0  0  0  0  0  0
    6.8537   -2.3899   -1.6460 O   0  0  0  0  0  0  0  0  0  0  0  0
    4.6962   -2.4377   -0.5198 C   0  0  0  0  0  0  0  0  0  0  0  0
    4.2970   -3.4389   -1.6330 C   0  0  0  0  0  0  0  0  0  0  0  0
    3.9421   -1.1139   -0.7837 C   0  0  0  0  0  0  0  0  0  0  0  0
    4.5370   -2.6724    3.4435 C   0  0  2  0  0  0  0  0  0  0  0  0
    5.4157   -2.4782    4.5516 O   0  0  0  0  0  0  0  0  0  0  0  0
    4.2845   -1.6041    4.4956 C   0  0  2  0  0  0  0  0  0  0  0  0
    4.7080   -0.1476    4.6036 C   0  0  0  0  0  0  0  0  0  0  0  0
    3.5270    0.8263    4.6171 C   0  0  0  0  0  0  0  0  0  0  0  0
    2.4671    0.4692    5.6981 C   0  0  1  0  0  0  0  0  0  0  0  0
    3.1364    0.5511    7.1009 C   0  0  0  0  0  0  0  0  0  0  0  0
   -0.7985    2.4266    4.3326 C   0  0  0  0  0  0  0  0  0  0  0  0
   -1.3734    2.4779    2.8951 C   0  0  0  0  0  0  0  0  0  0  0  0
   -1.9361    2.0611    5.3104 C   0  0  0  0  0  0  0  0  0  0  0  0
   -0.3245    3.8323    4.7489 C   0  0  0  0  0  0  0  0  0  0  0  0
   -0.6968    4.8374    4.1384 O   0  0  0  0  0  0  0  0  0  0  0  0
   -0.6451    5.4706    6.8124 H   0  0  0  0  0  0  0  0  0  0  0  0
    0.7687    4.8738    7.8307 H   0  0  0  0  0  0  0  0  0  0  0  0
    2.4085    3.3037    5.3414 H   0  0  0  0  0  0  0  0  0  0  0  0
    2.0769    3.0040    7.0382 H   0  0  0  0  0  0  0  0  0  0  0  0
    0.6011    1.1526    6.5169 H   0  0  0  0  0  0  0  0  0  0  0  0
    1.0372    1.6463    3.5559 H   0  0  0  0  0  0  0  0  0  0  0  0
   -0.7427   -0.3660    5.0046 H   0  0  0  0  0  0  0  0  0  0  0  0
   -0.6402   -0.1623    3.2724 H   0  0  0  0  0  0  0  0  0  0  0  0
    0.6446   -2.0260    4.0252 H   0  0  0  0  0  0  0  0  0  0  0  0
    1.6886   -0.8619    3.2534 H   0  0  0  0  0  0  0  0  0  0  0  0
    1.3242   -1.2838    6.2481 H   0  0  0  0  0  0  0  0  0  0  0  0
    3.5504   -2.0590    6.4216 H   0  0  0  0  0  0  0  0  0  0  0  0
    3.4795   -4.0643    5.7554 H   0  0  0  0  0  0  0  0  0  0  0  0
    1.0005   -3.5809    4.6543 H   0  0  0  0  0  0  0  0  0  0  0  0
    4.8110   -5.4323    2.7903 H   0  0  0  0  0  0  0  0  0  0  0  0
    3.6445   -5.9839    3.9845 H   0  0  0  0  0  0  0  0  0  0  0  0
    5.0900   -5.1368    4.4940 H   0  0  0  0  0  0  0  0  0  0  0  0
    2.4336   -4.9144    2.1302 H   0  0  0  0  0  0  0  0  0  0  0  0
    1.5230   -3.6102    2.7932 H   0  0  0  0  0  0  0  0  0  0  0  0
    2.2595   -3.3137    0.4049 H   0  0  0  0  0  0  0  0  0  0  0  0
    2.6045   -1.9715    1.4668 H   0  0  0  0  0  0  0  0  0  0  0  0
    4.5872   -4.1360    0.7740 H   0  0  0  0  0  0  0  0  0  0  0  0
    6.0528   -3.3585    2.1548 H   0  0  0  0  0  0  0  0  0  0  0  0
    5.3220   -0.4647    1.6976 H   0  0  0  0  0  0  0  0  0  0  0  0
    6.6907   -1.0566    2.5959 H   0  0  0  0  0  0  0  0  0  0  0  0
    7.1192   -0.3812    0.1776 H   0  0  0  0  0  0  0  0  0  0  0  0
    7.8154   -1.8915    0.7277 H   0  0  0  0  0  0  0  0  0  0  0  0
    3.2374   -3.6909   -1.5950 H   0  0  0  0  0  0  0  0  0  0  0  0
    4.8541   -4.3731   -1.5398 H   0  0  0  0  0  0  0  0  0  0  0  0
    4.4931   -3.0411   -2.6291 H   0  0  0  0  0  0  0  0  0  0  0  0
    2.8924   -1.3141   -0.9633 H   0  0  0  0  0  0  0  0  0  0  0  0
    4.3144   -0.5952   -1.6694 H   0  0  0  0  0  0  0  0  0  0  0  0
    3.9935   -0.4129    0.0469 H   0  0  0  0  0  0  0  0  0  0  0  0
    5.2975   -0.0320    5.5153 H   0  0  0  0  0  0  0  0  0  0  0  0
    5.3639    0.1252    3.7911 H   0  0  0  0  0  0  0  0  0  0  0  0
    3.9153    1.8323    4.7627 H   0  0  0  0  0  0  0  0  0  0  0  0
    3.0840    0.8311    3.6244 H   0  0  0  0  0  0  0  0  0  0  0  0
    3.9243   -0.1794    7.2565 H   0  0  0  0  0  0  0  0  0  0  0  0
    2.4101    0.4058    7.9018 H   0  0  0  0  0  0  0  0  0  0  0  0
    3.6263    1.5113    7.2571 H   0  0  0  0  0  0  0  0  0  0  0  0
   -1.8345    1.5408    2.5892 H   0  0  0  0  0  0  0  0  0  0  0  0
   -0.5833    2.6924    2.1765 H   0  0  0  0  0  0  0  0  0  0  0  0
   -2.1340    3.2512    2.7804 H   0  0  0  0  0  0  0  0  0  0  0  0
   -2.4442    1.1541    4.9852 H   0  0  0  0  0  0  0  0  0  0  0  0
   -2.6891    2.8536    5.3573 H   0  0  0  0  0  0  0  0  0  0  0  0
   -1.5685    1.9022    6.3254 H   0  0  0  0  0  0  0  0  0  0  0  0
  1  2  2  0
  1 37  1  0
  1 38  1  0
  2 35  1  0
  2  3  1  0
  3  4  1  0
  3 39  1  0
  3 40  1  0
  4 30  1  0
  4  5  1  0
  4 41  1  1
  5  6  1  0
  5 32  1  0
  5 42  1  6
  6  7  1  0
  6 43  1  0
  6 44  1  0
  7  8  1  0
  7 45  1  0
  7 46  1  0
  8 30  1  0
  8  9  1  0
  8 47  1  1
  9 27  1  0
  9 10  1  0
  9 48  1  1
 10 11  1  0
 10 12  1  0
 10 49  1  1
 11 50  1  0
 12 25  1  0
 12 13  1  1
 12 14  1  0
 13 51  1  0
 13 52  1  0
 13 53  1  0
 14 15  1  0
 14 54  1  0
 14 55  1  0
 15 16  1  0
 15 56  1  0
 15 57  1  0
 16 22  1  0
 16 17  1  0
 16 58  1  6
 17 18  1  0
 17 25  1  0
 17 59  1  1
 18 19  1  0
 18 60  1  0
 18 61  1  0
 19 20  1  0
 19 62  1  0
 19 63  1  0
 20 21  2  0
 20 22  1  0
 22 23  1  0
 22 24  1  0
 23 64  1  0
 23 65  1  0
 23 66  1  0
 24 67  1  0
 24 68  1  0
 24 69  1  0
 25 27  1  0
 25 26  1  1
 27 26  1  1
 27 28  1  0
 28 29  1  0
 28 70  1  0
 28 71  1  0
 29 30  1  0
 29 72  1  0
 29 73  1  0
 30 31  1  1
 31 74  1  0
 31 75  1  0
 31 76  1  0
 32 33  1  0
 32 34  1  0
 32 35  1  0
 33 77  1  0
 33 78  1  0
 33 79  1  0
 34 80  1  0
 34 81  1  0
 34 82  1  0
 35 36  2  0
M  END
>  <i_m_ct_stereo_status>  (321) 
1

>  <s_m_source_file>  (321) 
/var/tmp/pbs.5076255.sched01/tmpyj7ipo08/120az4jmrmy.sdf

>  <i_m_source_file_index>  (321) 
7

>  <i_lp_mmshare_version>  (321) 
48012

>  <i_f3d_flags>  (321) 
0

>  <s_epik_input>  (321) 
W0NIMl09QyhbQ0gyXTEpQyg9TylDKFtDSDNdKShbQ0gzXSlbQ0BIXShbQ0gyXVtDSDJdMilbQ0BIXTFbQ0BdKFtDSDNdKShbQ0gyXVtDSDJdMylbQ0BASF0yW0NASF0oW0NAXTMoW0NAQF00NTYpTzYpW0NAQEhdKFtPSF0pW0NAQF00KFtDSDNdKVtDSDJdW0NIMl1bQ0BASF03W0NASF01W0NIMl1bQ0gyXUMoPU8pQzcoW0NIM10pW0NIM10=

>  <s_epik_cmdline>  (321) 
J2VwaWtfcHl0aG9uJywgJy1waHQnLCAnMi4wJywgJy1waCcsICc3LjAnLCAnLXRuJywgJzgnLCAnLW1hJywgJzIwMCcsICctaW1hZScsICc8aW5maWxlLm1hZT4nLCAnLW9tYWUnLCAnPG91dGZpbGUubWFlPic=

>  <r_lp_tautomer_probability>  (321) 
1

>  <r_epik_Ionization_Penalty>  (321) 
5.08575e-07

>  <r_epik_Ionization_Penalty_Charging>  (321) 
0

>  <r_epik_Ionization_Penalty_Neutral>  (321) 
5.08575e-07

>  <r_epik_State_Penalty>  (321) 
-0

>  <r_epik_Charging_Adjusted_Penalty>  (321) 
0

>  <i_epik_Tot_Q>  (321) 
0

>  <i_epik_Tot_abs_Q>  (321) 
0

>  <s_lp_Force_Field>  (321) 
OPLS3e

>  <r_lp_Energy>  (321) 
88.6861

>  <b_lp_Chiralities_Consistent>  (321) 
1

>  <s_lp_Variant>  (321) 
93:0-1

>  <s_i_glide_gridfile>  (321) 
pfpi4k_grid

>  <i_i_glide_lignum>  (321) 
7

>  <i_i_glide_rotatable_bonds>  (321) 
1

>  <r_i_docking_score>  (321) 
-2.69212

>  <r_i_glide_ligand_efficiency>  (321) 
-0.0747812

>  <r_i_glide_ligand_efficiency_sa>  (321) 
-0.246922

>  <r_i_glide_ligand_efficiency_ln>  (321) 
-0.587348

>  <r_i_glide_gscore>  (321) 
-2.69212

>  <r_i_glide_lipo>  (321) 
-0.319227

>  <r_i_glide_hbond>  (321) 
-0.193786

>  <r_i_glide_metal>  (321) 
-0

>  <r_i_glide_rewards>  (321) 
-0.0361006

>  <r_i_glide_evdw>  (321) 
-29.7616

>  <r_i_glide_ecoul>  (321) 
-3.89546

>  <r_i_glide_erotb>  (321) 
0

>  <r_i_glide_esite>  (321) 
-0.0706109

>  <r_i_glide_emodel>  (321) 
-39.1041

>  <r_i_glide_energy>  (321) 
-33.657

>  <r_i_glide_einternal>  (321) 
0.00131834

>  <r_i_glide_intrahb_reward>  (321) 
-0

>  <i_i_glide_confnum>  (321) 
2

>  <i_i_glide_posenum>  (321) 
15

>  <r_i_glide_eff_state_penalty>  (321) 
0

>  <ligand_id>  (321) 
93

>  <original_smiles>  (321) 
C=C1CC2C(CCC3C4C(O)C5(C)CCC6C(CCC(=O)C6(C)C)C56OC46CCC23C)C(C)(C)C1=O

>  <smiles>  (321) 
[H]OC1([H])C2([H])C3([H])C([H])([H])C([H])([H])C4([H])C([H])(C([H])([H])C(=C([H])[H])C(=O)C4(C([H])([H])[H])C([H])([H])[H])C3(C([H])([H])[H])C([H])([H])C([H])([H])C23OC32C3([H])C([H])([H])C([H])([H])C(=O)C(C([H])([H])[H])(C([H])([H])[H])C3([H])C([H])([H])C([H])([H])C12C([H])([H])[H]

$$$$
93:0:1
     RDKit          3D

 82 88  0  0  1  0  0  0  0  0999 V2000
    0.8774   -8.2743    2.7990 C   0  0  0  0  0  0  0  0  0  0  0  0
    1.0407   -6.9429    2.8097 C   0  0  0  0  0  0  0  0  0  0  0  0
    0.7321   -6.0385    3.9861 C   0  0  0  0  0  0  0  0  0  0  0  0
    1.8661   -5.0286    4.3075 C   0  0  1  0  0  0  0  0  0  0  0  0
    2.3704   -4.3024    3.0190 C   0  0  1  0  0  0  0  0  0  0  0  0
    3.5749   -3.4150    3.3994 C   0  0  0  0  0  0  0  0  0  0  0  0
    3.2446   -2.4155    4.5106 C   0  0  0  0  0  0  0  0  0  0  0  0
    2.7338   -3.1016    5.7985 C   0  0  1  0  0  0  0  0  0  0  0  0
    2.4165   -2.1027    6.9655 C   0  0  1  0  0  0  0  0  0  0  0  0
    3.4547   -1.0051    7.3498 C   0  0  1  0  0  0  0  0  0  0  0  0
    4.8173   -1.2805    7.0651 O   0  0  0  0  0  0  0  0  0  0  0  0
    2.9009    0.4099    6.9478 C   0  0  1  0  0  0  0  0  0  0  0  0
    3.1355    1.3919    8.1209 C   0  0  0  0  0  0  0  0  0  0  0  0
    3.5563    0.9773    5.6497 C   0  0  0  0  0  0  0  0  0  0  0  0
    2.5624    1.4464    4.5759 C   0  0  0  0  0  0  0  0  0  0  0  0
    1.3706    2.2251    5.1658 C   0  0  2  0  0  0  0  0  0  0  0  0
    0.5838    1.3595    6.2007 C   0  0  1  0  0  0  0  0  0  0  0  0
   -0.8476    1.0245    5.7338 C   0  0  0  0  0  0  0  0  0  0  0  0
   -1.6780    2.2696    5.3731 C   0  0  0  0  0  0  0  0  0  0  0  0
   -0.8843    3.3451    4.6335 C   0  0  0  0  0  0  0  0  0  0  0  0
   -1.3799    4.4670    4.4824 O   0  0  0  0  0  0  0  0  0  0  0  0
    0.5099    2.9694    4.0796 C   0  0  0  0  0  0  0  0  0  0  0  0
    1.2525    4.2665    3.6700 C   0  0  0  0  0  0  0  0  0  0  0  0
    0.2890    2.1102    2.8059 C   0  0  0  0  0  0  0  0  0  0  0  0
    1.4001    0.1680    6.7546 C   0  0  2  0  0  0  0  0  0  0  0  0
    0.7522   -0.4821    7.8546 O   0  0  0  0  0  0  0  0  0  0  0  0
    1.1248   -1.3310    6.7583 C   0  0  2  0  0  0  0  0  0  0  0  0
   -0.0565   -2.1609    6.2827 C   0  0  0  0  0  0  0  0  0  0  0  0
    0.2995   -3.1250    5.1475 C   0  0  0  0  0  0  0  0  0  0  0  0
    1.5115   -4.0369    5.4839 C   0  0  1  0  0  0  0  0  0  0  0  0
    1.1613   -4.9048    6.7278 C   0  0  0  0  0  0  0  0  0  0  0  0
    2.6753   -5.2507    1.7995 C   0  0  0  0  0  0  0  0  0  0  0  0
    2.8525   -4.4089    0.5066 C   0  0  0  0  0  0  0  0  0  0  0  0
    3.9523   -6.0974    2.0163 C   0  0  0  0  0  0  0  0  0  0  0  0
    1.5058   -6.2405    1.6060 C   0  0  0  0  0  0  0  0  0  0  0  0
    0.9682   -6.3787    0.5049 O   0  0  0  0  0  0  0  0  0  0  0  0
    1.1057   -8.8623    1.9219 H   0  0  0  0  0  0  0  0  0  0  0  0
    0.5216   -8.8080    3.6686 H   0  0  0  0  0  0  0  0  0  0  0  0
   -0.1837   -5.5101    3.7351 H   0  0  0  0  0  0  0  0  0  0  0  0
    0.5089   -6.6789    4.8400 H   0  0  0  0  0  0  0  0  0  0  0  0
    2.6984   -5.6376    4.6635 H   0  0  0  0  0  0  0  0  0  0  0  0
    1.5777   -3.6338    2.6806 H   0  0  0  0  0  0  0  0  0  0  0  0
    4.4102   -4.0342    3.7327 H   0  0  0  0  0  0  0  0  0  0  0  0
    3.9321   -2.8534    2.5365 H   0  0  0  0  0  0  0  0  0  0  0  0
    4.1661   -1.8779    4.7038 H   0  0  0  0  0  0  0  0  0  0  0  0
    2.5268   -1.6849    4.1437 H   0  0  0  0  0  0  0  0  0  0  0  0
    3.5486   -3.7375    6.1487 H   0  0  0  0  0  0  0  0  0  0  0  0
    2.2992   -2.7000    7.8692 H   0  0  0  0  0  0  0  0  0  0  0  0
    3.4496   -1.0228    8.4389 H   0  0  0  0  0  0  0  0  0  0  0  0
    4.9315   -1.3078    6.1291 H   0  0  0  0  0  0  0  0  0  0  0  0
    2.7593    2.3908    7.9053 H   0  0  0  0  0  0  0  0  0  0  0  0
    4.1966    1.4832    8.3508 H   0  0  0  0  0  0  0  0  0  0  0  0
    2.6393    1.0514    9.0296 H   0  0  0  0  0  0  0  0  0  0  0  0
    4.2023    1.8161    5.9161 H   0  0  0  0  0  0  0  0  0  0  0  0
    4.2304    0.2606    5.1845 H   0  0  0  0  0  0  0  0  0  0  0  0
    3.0999    2.0563    3.8510 H   0  0  0  0  0  0  0  0  0  0  0  0
    2.1922    0.5802    4.0317 H   0  0  0  0  0  0  0  0  0  0  0  0
    1.8220    3.0155    5.7684 H   0  0  0  0  0  0  0  0  0  0  0  0
    0.4333    2.0062    7.0658 H   0  0  0  0  0  0  0  0  0  0  0  0
   -0.8215    0.3525    4.8762 H   0  0  0  0  0  0  0  0  0  0  0  0
   -1.3838    0.5060    6.5294 H   0  0  0  0  0  0  0  0  0  0  0  0
   -2.5391    1.9929    4.7644 H   0  0  0  0  0  0  0  0  0  0  0  0
   -2.0676    2.7225    6.2860 H   0  0  0  0  0  0  0  0  0  0  0  0
    2.2364    4.0592    3.2496 H   0  0  0  0  0  0  0  0  0  0  0  0
    1.3912    4.9375    4.5191 H   0  0  0  0  0  0  0  0  0  0  0  0
    0.7039    4.8196    2.9054 H   0  0  0  0  0  0  0  0  0  0  0  0
    1.2010    2.0222    2.2128 H   0  0  0  0  0  0  0  0  0  0  0  0
   -0.4628    2.5469    2.1462 H   0  0  0  0  0  0  0  0  0  0  0  0
   -0.0537    1.1004    3.0229 H   0  0  0  0  0  0  0  0  0  0  0  0
   -0.4366   -2.7176    7.1385 H   0  0  0  0  0  0  0  0  0  0  0  0
   -0.8632   -1.5230    5.9530 H   0  0  0  0  0  0  0  0  0  0  0  0
   -0.5818   -3.7221    4.9282 H   0  0  0  0  0  0  0  0  0  0  0  0
    0.4843   -2.5393    4.2489 H   0  0  0  0  0  0  0  0  0  0  0  0
    1.0096   -4.3305    7.6379 H   0  0  0  0  0  0  0  0  0  0  0  0
    1.9443   -5.6320    6.9423 H   0  0  0  0  0  0  0  0  0  0  0  0
    0.2250   -5.4447    6.5898 H   0  0  0  0  0  0  0  0  0  0  0  0
    3.7284   -3.7631    0.5458 H   0  0  0  0  0  0  0  0  0  0  0  0
    1.9877   -3.7675    0.3285 H   0  0  0  0  0  0  0  0  0  0  0  0
    2.9719   -5.0416   -0.3742 H   0  0  0  0  0  0  0  0  0  0  0  0
    4.8554   -5.4852    2.0018 H   0  0  0  0  0  0  0  0  0  0  0  0
    4.0653   -6.8495    1.2312 H   0  0  0  0  0  0  0  0  0  0  0  0
    3.9250   -6.6290    2.9705 H   0  0  0  0  0  0  0  0  0  0  0  0
  1  2  2  0
  1 37  1  0
  1 38  1  0
  2 35  1  0
  2  3  1  0
  3  4  1  0
  3 39  1  0
  3 40  1  0
  4 30  1  0
  4  5  1  0
  4 41  1  1
  5  6  1  0
  5 32  1  0
  5 42  1  6
  6  7  1  0
  6 43  1  0
  6 44  1  0
  7  8  1  0
  7 45  1  0
  7 46  1  0
  8 30  1  0
  8  9  1  0
  8 47  1  1
  9 27  1  0
  9 10  1  0
  9 48  1  1
 10 11  1  0
 10 12  1  0
 10 49  1  1
 11 50  1  0
 12 25  1  0
 12 13  1  1
 12 14  1  0
 13 51  1  0
 13 52  1  0
 13 53  1  0
 14 15  1  0
 14 54  1  0
 14 55  1  0
 15 16  1  0
 15 56  1  0
 15 57  1  0
 16 22  1  0
 16 17  1  0
 16 58  1  1
 17 18  1  0
 17 25  1  0
 17 59  1  1
 18 19  1  0
 18 60  1  0
 18 61  1  0
 19 20  1  0
 19 62  1  0
 19 63  1  0
 20 21  2  0
 20 22  1  0
 22 23  1  0
 22 24  1  0
 23 64  1  0
 23 65  1  0
 23 66  1  0
 24 67  1  0
 24 68  1  0
 24 69  1  0
 25 27  1  0
 25 26  1  1
 27 26  1  1
 27 28  1  0
 28 29  1  0
 28 70  1  0
 28 71  1  0
 29 30  1  0
 29 72  1  0
 29 73  1  0
 30 31  1  1
 31 74  1  0
 31 75  1  0
 31 76  1  0
 32 33  1  0
 32 34  1  0
 32 35  1  0
 33 77  1  0
 33 78  1  0
 33 79  1  0
 34 80  1  0
 34 81  1  0
 34 82  1  0
 35 36  2  0
M  END
>  <i_m_ct_stereo_status>  (322) 
1

>  <s_m_source_file>  (322) 
/var/tmp/pbs.5076255.sched01/tmpyj7ipo08/120az4jmrmy.sdf

>  <i_m_source_file_index>  (322) 
7

>  <i_lp_mmshare_version>  (322) 
48012

>  <i_f3d_flags>  (322) 
0

>  <s_epik_input>  (322) 
W0NIMl09QyhbQ0gyXTEpQyg9TylDKFtDSDNdKShbQ0gzXSlbQ0BIXShbQ0gyXVtDSDJdMilbQ0BIXTFbQ0BdKFtDSDNdKShbQ0gyXVtDSDJdMylbQ0BASF0yW0NASF0oW0NAXTMoW0NAQF00NTYpTzYpW0NAQEhdKFtPSF0pW0NAQF00KFtDSDNdKVtDSDJdW0NIMl1bQ0BASF03W0NASF01W0NIMl1bQ0gyXUMoPU8pQzcoW0NIM10pW0NIM10=

>  <s_epik_cmdline>  (322) 
J2VwaWtfcHl0aG9uJywgJy1waHQnLCAnMi4wJywgJy1waCcsICc3LjAnLCAnLXRuJywgJzgnLCAnLW1hJywgJzIwMCcsICctaW1hZScsICc8aW5maWxlLm1hZT4nLCAnLW9tYWUnLCAnPG91dGZpbGUubWFlPic=

>  <r_lp_tautomer_probability>  (322) 
1

>  <r_epik_Ionization_Penalty>  (322) 
5.08575e-07

>  <r_epik_Ionization_Penalty_Charging>  (322) 
0

>  <r_epik_Ionization_Penalty_Neutral>  (322) 
5.08575e-07

>  <r_epik_State_Penalty>  (322) 
-0

>  <r_epik_Charging_Adjusted_Penalty>  (322) 
0

>  <i_epik_Tot_Q>  (322) 
0

>  <i_epik_Tot_abs_Q>  (322) 
0

>  <s_lp_Force_Field>  (322) 
OPLS3e

>  <r_lp_Energy>  (322) 
88.6861

>  <b_lp_Chiralities_Consistent>  (322) 
1

>  <s_lp_Variant>  (322) 
93:0-1

>  <s_i_glide_gridfile>  (322) 
pfpi4k_grid

>  <i_i_glide_lignum>  (322) 
7

>  <i_i_glide_rotatable_bonds>  (322) 
1

>  <r_i_docking_score>  (322) 
-2.63237

>  <r_i_glide_ligand_efficiency>  (322) 
-0.0731213

>  <r_i_glide_ligand_efficiency_sa>  (322) 
-0.241441

>  <r_i_glide_ligand_efficiency_ln>  (322) 
-0.574311

>  <r_i_glide_gscore>  (322) 
-2.63237

>  <r_i_glide_lipo>  (322) 
-0.0218699

>  <r_i_glide_hbond>  (322) 
-0.2591

>  <r_i_glide_metal>  (322) 
-0

>  <r_i_glide_rewards>  (322) 
-0.0361006

>  <r_i_glide_evdw>  (322) 
-27.5136

>  <r_i_glide_ecoul>  (322) 
-5.68999

>  <r_i_glide_erotb>  (322) 
0

>  <r_i_glide_esite>  (322) 
-0.0861204

>  <r_i_glide_emodel>  (322) 
-38.5286

>  <r_i_glide_energy>  (322) 
-33.2035

>  <r_i_glide_einternal>  (322) 
4.09638e-05

>  <r_i_glide_intrahb_reward>  (322) 
-0

>  <i_i_glide_confnum>  (322) 
1

>  <i_i_glide_posenum>  (322) 
8

>  <r_i_glide_eff_state_penalty>  (322) 
0

>  <ligand_id>  (322) 
93

>  <original_smiles>  (322) 
C=C1CC2C(CCC3C4C(O)C5(C)CCC6C(CCC(=O)C6(C)C)C56OC46CCC23C)C(C)(C)C1=O

>  <smiles>  (322) 
[H]OC1([H])C2([H])C3([H])C([H])([H])C([H])([H])C4([H])C([H])(C([H])([H])C(=C([H])[H])C(=O)C4(C([H])([H])[H])C([H])([H])[H])C3(C([H])([H])[H])C([H])([H])C([H])([H])C23OC32C3([H])C([H])([H])C([H])([H])C(=O)C(C([H])([H])[H])(C([H])([H])[H])C3([H])C([H])([H])C([H])([H])C12C([H])([H])[H]

$$$$
93:0:2
     RDKit          3D

 82 88  0  0  1  0  0  0  0  0999 V2000
    0.8802   -8.2699    2.8051 C   0  0  0  0  0  0  0  0  0  0  0  0
    1.0423   -6.9382    2.8138 C   0  0  0  0  0  0  0  0  0  0  0  0
    0.7337   -6.0334    3.9905 C   0  0  0  0  0  0  0  0  0  0  0  0
    1.8692   -5.0217    4.3083 C   0  0  1  0  0  0  0  0  0  0  0  0
    2.3717   -4.2971    3.0191 C   0  0  1  0  0  0  0  0  0  0  0  0
    3.5770   -3.4090    3.3965 C   0  0  0  0  0  0  0  0  0  0  0  0
    3.2484   -2.4107    4.5103 C   0  0  0  0  0  0  0  0  0  0  0  0
    2.7406   -3.0966    5.7997 C   0  0  1  0  0  0  0  0  0  0  0  0
    2.4227   -2.0980    6.9698 C   0  0  1  0  0  0  0  0  0  0  0  0
    3.4631   -1.0016    7.3552 C   0  0  1  0  0  0  0  0  0  0  0  0
    4.8117   -1.2814    7.0232 O   0  0  0  0  0  0  0  0  0  0  0  0
    2.9105    0.4134    6.9494 C   0  0  1  0  0  0  0  0  0  0  0  0
    3.1484    1.3970    8.1193 C   0  0  0  0  0  0  0  0  0  0  0  0
    3.5640    0.9792    5.6502 C   0  0  0  0  0  0  0  0  0  0  0  0
    2.5673    1.4511    4.5773 C   0  0  0  0  0  0  0  0  0  0  0  0
    1.3753    2.2282    5.1681 C   0  0  2  0  0  0  0  0  0  0  0  0
    0.5932    1.3624    6.2048 C   0  0  1  0  0  0  0  0  0  0  0  0
   -0.8411    1.0290    5.7397 C   0  0  0  0  0  0  0  0  0  0  0  0
   -1.6734    2.2737    5.3816 C   0  0  0  0  0  0  0  0  0  0  0  0
   -0.8798    3.3495    4.6427 C   0  0  0  0  0  0  0  0  0  0  0  0
   -1.3754    4.4712    4.4942 O   0  0  0  0  0  0  0  0  0  0  0  0
    0.5114    2.9729    4.0839 C   0  0  0  0  0  0  0  0  0  0  0  0
    1.2531    4.2714    3.6732 C   0  0  0  0  0  0  0  0  0  0  0  0
    0.2867    2.1137    2.8109 C   0  0  0  0  0  0  0  0  0  0  0  0
    1.4110    0.1714    6.7574 C   0  0  2  0  0  0  0  0  0  0  0  0
    0.7652   -0.4768    7.8592 O   0  0  0  0  0  0  0  0  0  0  0  0
    1.1356   -1.3250    6.7630 C   0  0  2  0  0  0  0  0  0  0  0  0
   -0.0474   -2.1545    6.2889 C   0  0  0  0  0  0  0  0  0  0  0  0
    0.3040   -3.1192    5.1536 C   0  0  0  0  0  0  0  0  0  0  0  0
    1.5169   -4.0303    5.4857 C   0  0  1  0  0  0  0  0  0  0  0  0
    1.1704   -4.8988    6.7308 C   0  0  0  0  0  0  0  0  0  0  0  0
    2.6739   -5.2452    1.7987 C   0  0  0  0  0  0  0  0  0  0  0  0
    2.8450   -4.4023    0.5068 C   0  0  0  0  0  0  0  0  0  0  0  0
    3.9522   -6.0920    2.0131 C   0  0  0  0  0  0  0  0  0  0  0  0
    1.5069   -6.2382    1.6090 C   0  0  0  0  0  0  0  0  0  0  0  0
    0.9742   -6.3877    0.5082 O   0  0  0  0  0  0  0  0  0  0  0  0
    1.1070   -8.8595    1.9273 H   0  0  0  0  0  0  0  0  0  0  0  0
    0.5251   -8.8027    3.6755 H   0  0  0  0  0  0  0  0  0  0  0  0
   -0.1856   -5.5073    3.7459 H   0  0  0  0  0  0  0  0  0  0  0  0
    0.5174   -6.6742    4.8452 H   0  0  0  0  0  0  0  0  0  0  0  0
    2.7037   -5.6298    4.6635 H   0  0  0  0  0  0  0  0  0  0  0  0
    1.5785   -3.6290    2.6839 H   0  0  0  0  0  0  0  0  0  0  0  0
    4.4147   -4.0264    3.7273 H   0  0  0  0  0  0  0  0  0  0  0  0
    3.9319   -2.8464    2.5331 H   0  0  0  0  0  0  0  0  0  0  0  0
    4.1700   -1.8712    4.7060 H   0  0  0  0  0  0  0  0  0  0  0  0
    2.5312   -1.6783    4.1464 H   0  0  0  0  0  0  0  0  0  0  0  0
    3.5549   -3.7364    6.1435 H   0  0  0  0  0  0  0  0  0  0  0  0
    2.3072   -2.6977    7.8724 H   0  0  0  0  0  0  0  0  0  0  0  0
    3.4714   -1.0205    8.4474 H   0  0  0  0  0  0  0  0  0  0  0  0
    5.0630   -2.0821    7.4597 H   0  0  0  0  0  0  0  0  0  0  0  0
    2.7714    2.3959    7.9005 H   0  0  0  0  0  0  0  0  0  0  0  0
    4.2095    1.4915    8.3494 H   0  0  0  0  0  0  0  0  0  0  0  0
    2.6516    1.0614    9.0294 H   0  0  0  0  0  0  0  0  0  0  0  0
    4.2121    1.8183    5.9108 H   0  0  0  0  0  0  0  0  0  0  0  0
    4.2387    0.2622    5.1846 H   0  0  0  0  0  0  0  0  0  0  0  0
    3.1025    2.0627    3.8511 H   0  0  0  0  0  0  0  0  0  0  0  0
    2.1970    0.5848    4.0329 H   0  0  0  0  0  0  0  0  0  0  0  0
    1.8268    3.0191    5.7703 H   0  0  0  0  0  0  0  0  0  0  0  0
    0.4411    2.0083    7.0699 H   0  0  0  0  0  0  0  0  0  0  0  0
   -0.8172    0.3551    4.8825 H   0  0  0  0  0  0  0  0  0  0  0  0
   -1.3752    0.5099    6.5374 H   0  0  0  0  0  0  0  0  0  0  0  0
   -2.5374    1.9966    4.7770 H   0  0  0  0  0  0  0  0  0  0  0  0
   -2.0592    2.7240    6.2964 H   0  0  0  0  0  0  0  0  0  0  0  0
    2.2367    4.0639    3.2519 H   0  0  0  0  0  0  0  0  0  0  0  0
    1.3935    4.9409    4.5234 H   0  0  0  0  0  0  0  0  0  0  0  0
    0.7032    4.8261    2.9102 H   0  0  0  0  0  0  0  0  0  0  0  0
    1.1972    2.0245    2.2163 H   0  0  0  0  0  0  0  0  0  0  0  0
   -0.4666    2.5487    2.1531 H   0  0  0  0  0  0  0  0  0  0  0  0
   -0.0541    1.1046    3.0289 H   0  0  0  0  0  0  0  0  0  0  0  0
   -0.4258   -2.7108    7.1462 H   0  0  0  0  0  0  0  0  0  0  0  0
   -0.8559   -1.5186    5.9632 H   0  0  0  0  0  0  0  0  0  0  0  0
   -0.5789   -3.7157    4.9382 H   0  0  0  0  0  0  0  0  0  0  0  0
    0.4856   -2.5333    4.2553 H   0  0  0  0  0  0  0  0  0  0  0  0
    1.0216   -4.3259    7.6417 H   0  0  0  0  0  0  0  0  0  0  0  0
    1.9548   -5.6256    6.9435 H   0  0  0  0  0  0  0  0  0  0  0  0
    0.2348   -5.4405    6.5984 H   0  0  0  0  0  0  0  0  0  0  0  0
    3.7201   -3.7572    0.5424 H   0  0  0  0  0  0  0  0  0  0  0  0
    1.9810   -3.7612    0.3331 H   0  0  0  0  0  0  0  0  0  0  0  0
    2.9606   -5.0323   -0.3758 H   0  0  0  0  0  0  0  0  0  0  0  0
    4.8556   -5.4793    1.9948 H   0  0  0  0  0  0  0  0  0  0  0  0
    4.0643   -6.8469    1.2295 H   0  0  0  0  0  0  0  0  0  0  0  0
    3.9273   -6.6230    2.9680 H   0  0  0  0  0  0  0  0  0  0  0  0
  1  2  2  0
  1 37  1  0
  1 38  1  0
  2 35  1  0
  2  3  1  0
  3  4  1  0
  3 39  1  0
  3 40  1  0
  4 30  1  0
  4  5  1  0
  4 41  1  1
  5  6  1  0
  5 32  1  0
  5 42  1  6
  6  7  1  0
  6 43  1  0
  6 44  1  0
  7  8  1  0
  7 45  1  0
  7 46  1  0
  8 30  1  0
  8  9  1  0
  8 47  1  1
  9 27  1  0
  9 10  1  0
  9 48  1  1
 10 11  1  0
 10 12  1  0
 10 49  1  1
 11 50  1  0
 12 25  1  0
 12 13  1  1
 12 14  1  0
 13 51  1  0
 13 52  1  0
 13 53  1  0
 14 15  1  0
 14 54  1  0
 14 55  1  0
 15 16  1  0
 15 56  1  0
 15 57  1  0
 16 22  1  0
 16 17  1  0
 16 58  1  1
 17 18  1  0
 17 25  1  0
 17 59  1  1
 18 19  1  0
 18 60  1  0
 18 61  1  0
 19 20  1  0
 19 62  1  0
 19 63  1  0
 20 21  2  0
 20 22  1  0
 22 23  1  0
 22 24  1  0
 23 64  1  0
 23 65  1  0
 23 66  1  0
 24 67  1  0
 24 68  1  0
 24 69  1  0
 25 27  1  0
 25 26  1  1
 27 26  1  1
 27 28  1  0
 28 29  1  0
 28 70  1  0
 28 71  1  0
 29 30  1  0
 29 72  1  0
 29 73  1  0
 30 31  1  1
 31 74  1  0
 31 75  1  0
 31 76  1  0
 32 33  1  0
 32 34  1  0
 32 35  1  0
 33 77  1  0
 33 78  1  0
 33 79  1  0
 34 80  1  0
 34 81  1  0
 34 82  1  0
 35 36  2  0
M  END
>  <i_m_ct_stereo_status>  (323) 
1

>  <s_m_source_file>  (323) 
/var/tmp/pbs.5076255.sched01/tmpyj7ipo08/120az4jmrmy.sdf

>  <i_m_source_file_index>  (323) 
7

>  <i_lp_mmshare_version>  (323) 
48012

>  <i_f3d_flags>  (323) 
0

>  <s_epik_input>  (323) 
W0NIMl09QyhbQ0gyXTEpQyg9TylDKFtDSDNdKShbQ0gzXSlbQ0BIXShbQ0gyXVtDSDJdMilbQ0BIXTFbQ0BdKFtDSDNdKShbQ0gyXVtDSDJdMylbQ0BASF0yW0NASF0oW0NAXTMoW0NAQF00NTYpTzYpW0NAQEhdKFtPSF0pW0NAQF00KFtDSDNdKVtDSDJdW0NIMl1bQ0BASF03W0NASF01W0NIMl1bQ0gyXUMoPU8pQzcoW0NIM10pW0NIM10=

>  <s_epik_cmdline>  (323) 
J2VwaWtfcHl0aG9uJywgJy1waHQnLCAnMi4wJywgJy1waCcsICc3LjAnLCAnLXRuJywgJzgnLCAnLW1hJywgJzIwMCcsICctaW1hZScsICc8aW5maWxlLm1hZT4nLCAnLW9tYWUnLCAnPG91dGZpbGUubWFlPic=

>  <r_lp_tautomer_probability>  (323) 
1

>  <r_epik_Ionization_Penalty>  (323) 
5.08575e-07

>  <r_epik_Ionization_Penalty_Charging>  (323) 
0

>  <r_epik_Ionization_Penalty_Neutral>  (323) 
5.08575e-07

>  <r_epik_State_Penalty>  (323) 
-0

>  <r_epik_Charging_Adjusted_Penalty>  (323) 
0

>  <i_epik_Tot_Q>  (323) 
0

>  <i_epik_Tot_abs_Q>  (323) 
0

>  <s_lp_Force_Field>  (323) 
OPLS3e

>  <r_lp_Energy>  (323) 
88.6861

>  <b_lp_Chiralities_Consistent>  (323) 
1

>  <s_lp_Variant>  (323) 
93:0-1

>  <s_i_glide_gridfile>  (323) 
pfpi4k_grid

>  <i_i_glide_lignum>  (323) 
7

>  <i_i_glide_rotatable_bonds>  (323) 
1

>  <r_i_docking_score>  (323) 
-2.59896

>  <r_i_glide_ligand_efficiency>  (323) 
-0.0721932

>  <r_i_glide_ligand_efficiency_sa>  (323) 
-0.238377

>  <r_i_glide_ligand_efficiency_ln>  (323) 
-0.567022

>  <r_i_glide_gscore>  (323) 
-2.59896

>  <r_i_glide_lipo>  (323) 
-0.0227692

>  <r_i_glide_hbond>  (323) 
-0.253272

>  <r_i_glide_metal>  (323) 
-0

>  <r_i_glide_rewards>  (323) 
-0.0361006

>  <r_i_glide_evdw>  (323) 
-27.47

>  <r_i_glide_ecoul>  (323) 
-5.5161

>  <r_i_glide_erotb>  (323) 
0

>  <r_i_glide_esite>  (323) 
-0.0858985

>  <r_i_glide_emodel>  (323) 
-38.0701

>  <r_i_glide_energy>  (323) 
-32.9861

>  <r_i_glide_einternal>  (323) 
0.335734

>  <r_i_glide_intrahb_reward>  (323) 
-0

>  <i_i_glide_confnum>  (323) 
2

>  <i_i_glide_posenum>  (323) 
26

>  <r_i_glide_eff_state_penalty>  (323) 
0

>  <ligand_id>  (323) 
93

>  <original_smiles>  (323) 
C=C1CC2C(CCC3C4C(O)C5(C)CCC6C(CCC(=O)C6(C)C)C56OC46CCC23C)C(C)(C)C1=O

>  <smiles>  (323) 
[H]OC1([H])C2([H])C3([H])C([H])([H])C([H])([H])C4([H])C([H])(C([H])([H])C(=C([H])[H])C(=O)C4(C([H])([H])[H])C([H])([H])[H])C3(C([H])([H])[H])C([H])([H])C([H])([H])C23OC32C3([H])C([H])([H])C([H])([H])C(=O)C(C([H])([H])[H])(C([H])([H])[H])C3([H])C([H])([H])C([H])([H])C12C([H])([H])[H]

$$$$
95:0:0
     RDKit          3D

 50 55  0  0  1  0  0  0  0  0999 V2000
    3.9713    3.0880    8.4258 C   0  0  0  0  0  0  0  0  0  0  0  0
    3.0174    3.8683    9.3579 C   0  0  0  0  0  0  0  0  0  0  0  0
    3.8104    4.4026   10.5651 C   0  0  0  0  0  0  0  0  0  0  0  0
    2.5516    4.9929    8.6221 O   0  0  0  0  0  0  0  0  0  0  0  0
    1.2159    4.7893    8.1656 C   0  0  1  0  0  0  0  0  0  0  0  0
    1.1633    4.9879    6.6760 C   0  0  2  0  0  0  0  0  0  0  0  0
    0.9174    6.1948    5.9399 O   0  0  0  0  0  0  0  0  0  0  0  0
   -0.2084    5.3566    6.2355 C   0  0  1  0  0  0  0  0  0  0  0  0
   -0.7147    4.2179    5.4265 C   0  0  0  0  0  0  0  0  0  0  0  0
   -0.6153    4.1112    4.0188 C   0  0  0  0  0  0  0  0  0  0  0  0
   -0.0695    5.1168    3.2821 O   0  0  0  0  0  0  0  0  0  0  0  0
   -1.0997    2.9589    3.3743 C   0  0  0  0  0  0  0  0  0  0  0  0
   -1.6808    1.9235    4.1261 C   0  0  0  0  0  0  0  0  0  0  0  0
   -1.7844    2.0323    5.5268 C   0  0  0  0  0  0  0  0  0  0  0  0
   -1.2899    3.1729    6.1881 C   0  0  0  0  0  0  0  0  0  0  0  0
   -1.5006    3.3650    7.5471 O   0  0  0  0  0  0  0  0  0  0  0  0
   -0.6256    2.8327    8.5743 C   0  0  1  0  0  0  0  0  0  0  0  0
   -0.7146    1.2969    8.4663 C   0  0  0  0  0  0  0  0  0  0  0  0
    0.8736    3.3107    8.4693 C   0  0  2  0  0  0  0  0  0  0  0  0
    1.7345    3.0712    9.7058 C   0  0  2  0  0  0  0  0  0  0  0  0
    1.0093    3.5656   10.9761 C   0  0  0  0  0  0  0  0  0  0  0  0
   -0.3785    2.9236   11.1175 C   0  0  1  0  0  0  0  0  0  0  0  0
   -0.9500    3.3401   12.3494 O   0  0  0  0  0  0  0  0  0  0  0  0
   -1.2687    3.2543    9.9125 C   0  0  2  0  0  0  0  0  0  0  0  0
   -2.7310    3.5886   10.0616 C   0  0  0  0  0  0  0  0  0  0  0  0
   -1.7246    4.6122    9.8953 O   0  0  0  0  0  0  0  0  0  0  0  0
    4.3379    2.1784    8.9030 H   0  0  0  0  0  0  0  0  0  0  0  0
    4.8409    3.6927    8.1624 H   0  0  0  0  0  0  0  0  0  0  0  0
    3.5002    2.8011    7.4861 H   0  0  0  0  0  0  0  0  0  0  0  0
    4.1290    3.5956   11.2260 H   0  0  0  0  0  0  0  0  0  0  0  0
    3.2261    5.1127   11.1502 H   0  0  0  0  0  0  0  0  0  0  0  0
    4.7042    4.9355   10.2370 H   0  0  0  0  0  0  0  0  0  0  0  0
    0.5499    5.4805    8.6815 H   0  0  0  0  0  0  0  0  0  0  0  0
    1.7872    4.3076    6.0923 H   0  0  0  0  0  0  0  0  0  0  0  0
   -0.9305    5.7850    6.9320 H   0  0  0  0  0  0  0  0  0  0  0  0
    0.0241    4.9060    2.3452 H   0  0  0  0  0  0  0  0  0  0  0  0
   -1.0372    2.8774    2.2990 H   0  0  0  0  0  0  0  0  0  0  0  0
   -2.0705    1.0539    3.6249 H   0  0  0  0  0  0  0  0  0  0  0  0
   -2.2704    1.2468    6.0853 H   0  0  0  0  0  0  0  0  0  0  0  0
   -0.1891    0.7803    9.2721 H   0  0  0  0  0  0  0  0  0  0  0  0
   -0.2896    0.9312    7.5318 H   0  0  0  0  0  0  0  0  0  0  0  0
   -1.7598    0.9828    8.4994 H   0  0  0  0  0  0  0  0  0  0  0  0
    1.3032    2.7126    7.6645 H   0  0  0  0  0  0  0  0  0  0  0  0
    1.9658    2.0102    9.8229 H   0  0  0  0  0  0  0  0  0  0  0  0
    1.6031    3.3143   11.8526 H   0  0  0  0  0  0  0  0  0  0  0  0
    0.9200    4.6554   10.9694 H   0  0  0  0  0  0  0  0  0  0  0  0
   -0.2736    1.8401   11.1973 H   0  0  0  0  0  0  0  0  0  0  0  0
   -1.7001    2.7834   12.5723 H   0  0  0  0  0  0  0  0  0  0  0  0
   -3.3963    3.4137    9.2179 H   0  0  0  0  0  0  0  0  0  0  0  0
   -3.1786    3.5082   11.0512 H   0  0  0  0  0  0  0  0  0  0  0  0
  1  2  1  0
  1 27  1  0
  1 28  1  0
  1 29  1  0
  2 20  1  0
  2  3  1  0
  2  4  1  0
  3 30  1  0
  3 31  1  0
  3 32  1  0
  4  5  1  0
  5 19  1  0
  5  6  1  0
  5 33  1  1
  6  8  1  0
  6  7  1  0
  6 34  1  6
  7  8  1  0
  8  9  1  0
  8 35  1  1
  9 15  2  0
  9 10  1  0
 10 11  1  0
 10 12  2  0
 11 36  1  0
 12 13  1  0
 12 37  1  0
 13 14  2  0
 13 38  1  0
 14 15  1  0
 14 39  1  0
 15 16  1  0
 16 17  1  0
 17 24  1  0
 17 18  1  1
 17 19  1  0
 18 40  1  0
 18 41  1  0
 18 42  1  0
 19 20  1  0
 19 43  1  6
 20 21  1  0
 20 44  1  1
 21 22  1  0
 21 45  1  0
 21 46  1  0
 22 23  1  0
 22 24  1  0
 22 47  1  1
 23 48  1  0
 24 26  1  6
 24 25  1  0
 25 26  1  0
 25 49  1  0
 25 50  1  0
M  END
>  <i_m_ct_stereo_status>  (324) 
1

>  <s_m_source_file>  (324) 
/var/tmp/pbs.5076255.sched01/tmpyj7ipo08/120az4jmrmy.sdf

>  <i_m_source_file_index>  (324) 
9

>  <i_lp_mmshare_version>  (324) 
48012

>  <i_f3d_flags>  (324) 
0

>  <s_epik_input>  (324) 
W09IXVtDQEBIXTFbQ0gyXVtDQEBIXTJDKFtDSDNdKShbQ0gzXSlPW0NASF0oW0NAQEhdMltDQEBdMyhbQ0gzXSlbQ0BAXTE0W0NIMl1PNClbQ0BIXTVbQ0BASF0oTzUpYzZjKE8zKVtjSF1bY0hdW2NIXWM2W09IXQ==

>  <s_epik_cmdline>  (324) 
J2VwaWtfcHl0aG9uJywgJy1waHQnLCAnMi4wJywgJy1waCcsICc3LjAnLCAnLXRuJywgJzgnLCAnLW1hJywgJzIwMCcsICctaW1hZScsICc8aW5maWxlLm1hZT4nLCAnLW9tYWUnLCAnPG91dGZpbGUubWFlPic=

>  <r_lp_tautomer_probability>  (324) 
1

>  <r_epik_Ionization_Penalty>  (324) 
0.000805127

>  <r_epik_Ionization_Penalty_Charging>  (324) 
0

>  <r_epik_Ionization_Penalty_Neutral>  (324) 
0.000805127

>  <r_epik_State_Penalty>  (324) 
0.00051717

>  <r_epik_Charging_Adjusted_Penalty>  (324) 
0.00051717

>  <i_epik_Tot_Q>  (324) 
0

>  <i_epik_Tot_abs_Q>  (324) 
0

>  <s_lp_Force_Field>  (324) 
OPLS3e

>  <r_lp_Energy>  (324) 
47.62

>  <b_lp_Chiralities_Consistent>  (324) 
1

>  <s_lp_Variant>  (324) 
95:0-1

>  <s_i_glide_gridfile>  (324) 
pfpi4k_grid

>  <i_i_glide_lignum>  (324) 
9

>  <i_i_glide_rotatable_bonds>  (324) 
2

>  <r_i_docking_score>  (324) 
-3.22024

>  <r_i_glide_ligand_efficiency>  (324) 
-0.123855

>  <r_i_glide_ligand_efficiency_sa>  (324) 
-0.366921

>  <r_i_glide_ligand_efficiency_ln>  (324) 
-0.756262

>  <r_i_glide_gscore>  (324) 
-3.22024

>  <r_i_glide_lipo>  (324) 
-0.0187311

>  <r_i_glide_hbond>  (324) 
0

>  <r_i_glide_metal>  (324) 
-0

>  <r_i_glide_rewards>  (324) 
-0.951812

>  <r_i_glide_evdw>  (324) 
-15.6351

>  <r_i_glide_ecoul>  (324) 
-9.78624

>  <r_i_glide_erotb>  (324) 
0

>  <r_i_glide_esite>  (324) 
0

>  <r_i_glide_emodel>  (324) 
-31.259

>  <r_i_glide_energy>  (324) 
-25.4214

>  <r_i_glide_einternal>  (324) 
0.547773

>  <r_i_glide_intrahb_reward>  (324) 
-0

>  <i_i_glide_confnum>  (324) 
1

>  <i_i_glide_posenum>  (324) 
5

>  <r_i_glide_eff_state_penalty>  (324) 
0

>  <ligand_id>  (324) 
95

>  <original_smiles>  (324) 
CC1(C)OC2C3OC3c3c(O)cccc3OC3(C)C2C1CC(O)C31CO1

>  <smiles>  (324) 
[H]Oc1c([H])c([H])c([H])c2c1C1([H])OC1([H])C1([H])OC(C([H])([H])[H])(C([H])([H])[H])C3([H])C([H])([H])C([H])(O[H])C4(OC4([H])[H])C(C([H])([H])[H])(O2)C13[H]

$$$$
95:0:1
     RDKit          3D

 50 55  0  0  1  0  0  0  0  0999 V2000
    3.5650    1.8007    8.1136 C   0  0  0  0  0  0  0  0  0  0  0  0
    2.9255    2.7719    9.1312 C   0  0  0  0  0  0  0  0  0  0  0  0
    3.8724    2.9419   10.3339 C   0  0  0  0  0  0  0  0  0  0  0  0
    2.8203    4.0348    8.4841 O   0  0  0  0  0  0  0  0  0  0  0  0
    1.4793    4.2933    8.0759 C   0  0  1  0  0  0  0  0  0  0  0  0
    1.4529    4.6076    6.6057 C   0  0  2  0  0  0  0  0  0  0  0  0
    1.5968    5.8774    5.9623 O   0  0  0  0  0  0  0  0  0  0  0  0
    0.2619    5.4280    6.2442 C   0  0  1  0  0  0  0  0  0  0  0  0
   -0.5859    4.5569    5.3955 C   0  0  0  0  0  0  0  0  0  0  0  0
   -0.5517    4.5166    3.9856 C   0  0  0  0  0  0  0  0  0  0  0  0
    0.2755    5.3310    3.2806 O   0  0  0  0  0  0  0  0  0  0  0  0
   -1.3936    3.6290    3.2912 C   0  0  0  0  0  0  0  0  0  0  0  0
   -2.2599    2.7867    4.0020 C   0  0  0  0  0  0  0  0  0  0  0  0
   -2.2852    2.8151    5.4085 C   0  0  0  0  0  0  0  0  0  0  0  0
   -1.4395    3.6895    6.1197 C   0  0  0  0  0  0  0  0  0  0  0  0
   -1.5523    3.8389    7.4892 O   0  0  0  0  0  0  0  0  0  0  0  0
   -0.8694    2.9862    8.4418 C   0  0  1  0  0  0  0  0  0  0  0  0
   -1.4405    1.5686    8.2390 C   0  0  0  0  0  0  0  0  0  0  0  0
    0.6987    2.9768    8.3027 C   0  0  2  0  0  0  0  0  0  0  0  0
    1.4657    2.3927    9.4855 C   0  0  2  0  0  0  0  0  0  0  0  0
    0.9611    2.9976   10.8137 C   0  0  0  0  0  0  0  0  0  0  0  0
   -0.5541    2.8191   10.9753 C   0  0  1  0  0  0  0  0  0  0  0  0
   -0.9514    3.3217   12.2425 O   0  0  0  0  0  0  0  0  0  0  0  0
   -1.3141    3.4902    9.8270 C   0  0  2  0  0  0  0  0  0  0  0  0
   -2.5916    4.2526   10.0584 C   0  0  0  0  0  0  0  0  0  0  0  0
   -1.3200    4.9217    9.9102 O   0  0  0  0  0  0  0  0  0  0  0  0
    3.6373    0.7905    8.5182 H   0  0  0  0  0  0  0  0  0  0  0  0
    4.5753    2.1207    7.8512 H   0  0  0  0  0  0  0  0  0  0  0  0
    3.0081    1.7437    7.1785 H   0  0  0  0  0  0  0  0  0  0  0  0
    3.9344    2.0302   10.9291 H   0  0  0  0  0  0  0  0  0  0  0  0
    3.5542    3.7551   10.9867 H   0  0  0  0  0  0  0  0  0  0  0  0
    4.8815    3.1908   10.0008 H   0  0  0  0  0  0  0  0  0  0  0  0
    1.0768    5.1197    8.6628 H   0  0  0  0  0  0  0  0  0  0  0  0
    1.8208    3.8091    5.9544 H   0  0  0  0  0  0  0  0  0  0  0  0
   -0.2754    6.0055    6.9967 H   0  0  0  0  0  0  0  0  0  0  0  0
    0.2484    5.1283    2.3453 H   0  0  0  0  0  0  0  0  0  0  0  0
   -1.3894    3.5988    2.2117 H   0  0  0  0  0  0  0  0  0  0  0  0
   -2.9227    2.1392    3.4538 H   0  0  0  0  0  0  0  0  0  0  0  0
   -2.9838    2.1924    5.9475 H   0  0  0  0  0  0  0  0  0  0  0  0
   -1.0768    0.8661    8.9895 H   0  0  0  0  0  0  0  0  0  0  0  0
   -1.1730    1.1593    7.2645 H   0  0  0  0  0  0  0  0  0  0  0  0
   -2.5321    1.5919    8.3057 H   0  0  0  0  0  0  0  0  0  0  0  0
    0.9005    2.3342    7.4458 H   0  0  0  0  0  0  0  0  0  0  0  0
    1.3535    1.3085    9.5277 H   0  0  0  0  0  0  0  0  0  0  0  0
    1.4625    2.5096   11.6479 H   0  0  0  0  0  0  0  0  0  0  0  0
    1.2191    4.0570   10.8774 H   0  0  0  0  0  0  0  0  0  0  0  0
   -0.7936    1.7541   10.9931 H   0  0  0  0  0  0  0  0  0  0  0  0
   -1.6924    2.8069   12.5693 H   0  0  0  0  0  0  0  0  0  0  0  0
   -3.2981    4.3566    9.2381 H   0  0  0  0  0  0  0  0  0  0  0  0
   -3.0158    4.2431   11.0599 H   0  0  0  0  0  0  0  0  0  0  0  0
  1  2  1  0
  1 27  1  0
  1 28  1  0
  1 29  1  0
  2 20  1  0
  2  3  1  0
  2  4  1  0
  3 30  1  0
  3 31  1  0
  3 32  1  0
  4  5  1  0
  5 19  1  0
  5  6  1  0
  5 33  1  1
  6  8  1  0
  6  7  1  0
  6 34  1  6
  7  8  1  0
  8  9  1  0
  8 35  1  1
  9 15  2  0
  9 10  1  0
 10 11  1  0
 10 12  2  0
 11 36  1  0
 12 13  1  0
 12 37  1  0
 13 14  2  0
 13 38  1  0
 14 15  1  0
 14 39  1  0
 15 16  1  0
 16 17  1  0
 17 24  1  0
 17 18  1  6
 17 19  1  0
 18 40  1  0
 18 41  1  0
 18 42  1  0
 19 20  1  0
 19 43  1  6
 20 21  1  0
 20 44  1  1
 21 22  1  0
 21 45  1  0
 21 46  1  0
 22 23  1  0
 22 24  1  0
 22 47  1  1
 23 48  1  0
 24 26  1  6
 24 25  1  0
 25 26  1  0
 25 49  1  0
 25 50  1  0
M  END
>  <i_m_ct_stereo_status>  (325) 
1

>  <s_m_source_file>  (325) 
/var/tmp/pbs.5076255.sched01/tmpyj7ipo08/120az4jmrmy.sdf

>  <i_m_source_file_index>  (325) 
9

>  <i_lp_mmshare_version>  (325) 
48012

>  <i_f3d_flags>  (325) 
0

>  <s_epik_input>  (325) 
W09IXVtDQEBIXTFbQ0gyXVtDQEBIXTJDKFtDSDNdKShbQ0gzXSlPW0NASF0oW0NAQEhdMltDQEBdMyhbQ0gzXSlbQ0BAXTE0W0NIMl1PNClbQ0BIXTVbQ0BASF0oTzUpYzZjKE8zKVtjSF1bY0hdW2NIXWM2W09IXQ==

>  <s_epik_cmdline>  (325) 
J2VwaWtfcHl0aG9uJywgJy1waHQnLCAnMi4wJywgJy1waCcsICc3LjAnLCAnLXRuJywgJzgnLCAnLW1hJywgJzIwMCcsICctaW1hZScsICc8aW5maWxlLm1hZT4nLCAnLW9tYWUnLCAnPG91dGZpbGUubWFlPic=

>  <r_lp_tautomer_probability>  (325) 
1

>  <r_epik_Ionization_Penalty>  (325) 
0.000805127

>  <r_epik_Ionization_Penalty_Charging>  (325) 
0

>  <r_epik_Ionization_Penalty_Neutral>  (325) 
0.000805127

>  <r_epik_State_Penalty>  (325) 
0.00051717

>  <r_epik_Charging_Adjusted_Penalty>  (325) 
0.00051717

>  <i_epik_Tot_Q>  (325) 
0

>  <i_epik_Tot_abs_Q>  (325) 
0

>  <s_lp_Force_Field>  (325) 
OPLS3e

>  <r_lp_Energy>  (325) 
47.62

>  <b_lp_Chiralities_Consistent>  (325) 
1

>  <s_lp_Variant>  (325) 
95:0-1

>  <s_i_glide_gridfile>  (325) 
pfpi4k_grid

>  <i_i_glide_lignum>  (325) 
9

>  <i_i_glide_rotatable_bonds>  (325) 
2

>  <r_i_docking_score>  (325) 
-3.11114

>  <r_i_glide_ligand_efficiency>  (325) 
-0.119659

>  <r_i_glide_ligand_efficiency_sa>  (325) 
-0.35449

>  <r_i_glide_ligand_efficiency_ln>  (325) 
-0.730642

>  <r_i_glide_gscore>  (325) 
-3.11114

>  <r_i_glide_lipo>  (325) 
-0.0243267

>  <r_i_glide_hbond>  (325) 
0

>  <r_i_glide_metal>  (325) 
-0

>  <r_i_glide_rewards>  (325) 
-0.951812

>  <r_i_glide_evdw>  (325) 
-15.7277

>  <r_i_glide_ecoul>  (325) 
-8.99081

>  <r_i_glide_erotb>  (325) 
0

>  <r_i_glide_esite>  (325) 
0

>  <r_i_glide_emodel>  (325) 
-29.909

>  <r_i_glide_energy>  (325) 
-24.7185

>  <r_i_glide_einternal>  (325) 
1.06013

>  <r_i_glide_intrahb_reward>  (325) 
-0

>  <i_i_glide_confnum>  (325) 
1

>  <i_i_glide_posenum>  (325) 
1

>  <r_i_glide_eff_state_penalty>  (325) 
0

>  <ligand_id>  (325) 
95

>  <original_smiles>  (325) 
CC1(C)OC2C3OC3c3c(O)cccc3OC3(C)C2C1CC(O)C31CO1

>  <smiles>  (325) 
[H]Oc1c([H])c([H])c([H])c2c1C1([H])OC1([H])C1([H])OC(C([H])([H])[H])(C([H])([H])[H])C3([H])C([H])([H])C([H])(O[H])C4(OC4([H])[H])C(C([H])([H])[H])(O2)C13[H]

$$$$
95:0:2
     RDKit          3D

 50 55  0  0  1  0  0  0  0  0999 V2000
    2.7879   -3.7210   -0.6071 C   0  0  0  0  0  0  0  0  0  0  0  0
    3.9508   -3.6394    0.4026 C   0  0  0  0  0  0  0  0  0  0  0  0
    4.8122   -2.4039    0.0777 C   0  0  0  0  0  0  0  0  0  0  0  0
    3.3680   -3.4427    1.6879 O   0  0  0  0  0  0  0  0  0  0  0  0
    3.3907   -4.6430    2.4581 C   0  0  1  0  0  0  0  0  0  0  0  0
    1.9971   -4.9634    2.9270 C   0  0  2  0  0  0  0  0  0  0  0  0
    1.3244   -4.5598    4.1299 O   0  0  0  0  0  0  0  0  0  0  0  0
    2.0214   -5.8135    4.1529 C   0  0  1  0  0  0  0  0  0  0  0  0
    1.4620   -7.1279    3.7604 C   0  0  0  0  0  0  0  0  0  0  0  0
    0.1074   -7.5018    3.8831 C   0  0  0  0  0  0  0  0  0  0  0  0
   -0.8051   -6.6546    4.4398 O   0  0  0  0  0  0  0  0  0  0  0  0
   -0.3083   -8.7692    3.4297 C   0  0  0  0  0  0  0  0  0  0  0  0
    0.6298   -9.6561    2.8712 C   0  0  0  0  0  0  0  0  0  0  0  0
    1.9820   -9.2810    2.7461 C   0  0  0  0  0  0  0  0  0  0  0  0
    2.4075   -8.0045    3.1726 C   0  0  0  0  0  0  0  0  0  0  0  0
    3.7469   -7.6532    3.1874 O   0  0  0  0  0  0  0  0  0  0  0  0
    4.4523   -7.1076    2.0404 C   0  0  1  0  0  0  0  0  0  0  0  0
    4.4318   -8.2137    0.9573 C   0  0  0  0  0  0  0  0  0  0  0  0
    3.8408   -5.7643    1.4847 C   0  0  2  0  0  0  0  0  0  0  0  0
    4.7277   -4.9718    0.5278 C   0  0  2  0  0  0  0  0  0  0  0  0
    6.1441   -4.8109    1.1128 C   0  0  0  0  0  0  0  0  0  0  0  0
    6.7611   -6.1605    1.4750 C   0  0  1  0  0  0  0  0  0  0  0  0
    8.0858   -5.9391    1.9149 O   0  0  0  0  0  0  0  0  0  0  0  0
    5.9111   -6.9069    2.5073 C   0  0  2  0  0  0  0  0  0  0  0  0
    6.5215   -7.6915    3.6433 C   0  0  0  0  0  0  0  0  0  0  0  0
    6.0170   -6.3525    3.8214 O   0  0  0  0  0  0  0  0  0  0  0  0
    3.1543   -3.9084   -1.6165 H   0  0  0  0  0  0  0  0  0  0  0  0
    2.2290   -2.7829   -0.6370 H   0  0  0  0  0  0  0  0  0  0  0  0
    2.0728   -4.5060   -0.3616 H   0  0  0  0  0  0  0  0  0  0  0  0
    5.3554   -2.5279   -0.8601 H   0  0  0  0  0  0  0  0  0  0  0  0
    5.5342   -2.1924    0.8674 H   0  0  0  0  0  0  0  0  0  0  0  0
    4.1871   -1.5126   -0.0161 H   0  0  0  0  0  0  0  0  0  0  0  0
    4.0794   -4.5173    3.2968 H   0  0  0  0  0  0  0  0  0  0  0  0
    1.2759   -5.1323    2.1253 H   0  0  0  0  0  0  0  0  0  0  0  0
    2.8979   -5.8494    4.7929 H   0  0  0  0  0  0  0  0  0  0  0  0
   -0.3915   -5.9077    4.8519 H   0  0  0  0  0  0  0  0  0  0  0  0
   -1.3397   -9.0755    3.5445 H   0  0  0  0  0  0  0  0  0  0  0  0
    0.3127  -10.6370    2.5530 H   0  0  0  0  0  0  0  0  0  0  0  0
    2.6952   -9.9881    2.3457 H   0  0  0  0  0  0  0  0  0  0  0  0
    5.0104   -7.9441    0.0808 H   0  0  0  0  0  0  0  0  0  0  0  0
    3.4179   -8.4156    0.6156 H   0  0  0  0  0  0  0  0  0  0  0  0
    4.8344   -9.1498    1.3538 H   0  0  0  0  0  0  0  0  0  0  0  0
    2.9640   -6.0694    0.9151 H   0  0  0  0  0  0  0  0  0  0  0  0
    4.8024   -5.4670   -0.4401 H   0  0  0  0  0  0  0  0  0  0  0  0
    6.7885   -4.3232    0.3812 H   0  0  0  0  0  0  0  0  0  0  0  0
    6.1291   -4.1623    1.9924 H   0  0  0  0  0  0  0  0  0  0  0  0
    6.8490   -6.7681    0.5766 H   0  0  0  0  0  0  0  0  0  0  0  0
    8.0526   -5.5101    2.7592 H   0  0  0  0  0  0  0  0  0  0  0  0
    5.9418   -8.4938    4.0931 H   0  0  0  0  0  0  0  0  0  0  0  0
    7.6019   -7.8022    3.6759 H   0  0  0  0  0  0  0  0  0  0  0  0
  1  2  1  0
  1 27  1  0
  1 28  1  0
  1 29  1  0
  2 20  1  0
  2  3  1  0
  2  4  1  0
  3 30  1  0
  3 31  1  0
  3 32  1  0
  4  5  1  0
  5 19  1  0
  5  6  1  0
  5 33  1  1
  6  8  1  0
  6  7  1  0
  6 34  1  6
  7  8  1  0
  8  9  1  0
  8 35  1  1
  9 15  2  0
  9 10  1  0
 10 11  1  0
 10 12  2  0
 11 36  1  0
 12 13  1  0
 12 37  1  0
 13 14  2  0
 13 38  1  0
 14 15  1  0
 14 39  1  0
 15 16  1  0
 16 17  1  0
 17 24  1  0
 17 18  1  6
 17 19  1  0
 18 40  1  0
 18 41  1  0
 18 42  1  0
 19 20  1  0
 19 43  1  6
 20 21  1  0
 20 44  1  6
 21 22  1  0
 21 45  1  0
 21 46  1  0
 22 23  1  0
 22 24  1  0
 22 47  1  6
 23 48  1  0
 24 26  1  1
 24 25  1  0
 25 26  1  0
 25 49  1  0
 25 50  1  0
M  END
>  <i_m_ct_stereo_status>  (326) 
1

>  <s_m_source_file>  (326) 
/var/tmp/pbs.5076255.sched01/tmpyj7ipo08/120az4jmrmy.sdf

>  <i_m_source_file_index>  (326) 
9

>  <i_lp_mmshare_version>  (326) 
48012

>  <i_f3d_flags>  (326) 
0

>  <s_epik_input>  (326) 
W09IXVtDQEBIXTFbQ0gyXVtDQEBIXTJDKFtDSDNdKShbQ0gzXSlPW0NASF0oW0NAQEhdMltDQEBdMyhbQ0gzXSlbQ0BAXTE0W0NIMl1PNClbQ0BIXTVbQ0BASF0oTzUpYzZjKE8zKVtjSF1bY0hdW2NIXWM2W09IXQ==

>  <s_epik_cmdline>  (326) 
J2VwaWtfcHl0aG9uJywgJy1waHQnLCAnMi4wJywgJy1waCcsICc3LjAnLCAnLXRuJywgJzgnLCAnLW1hJywgJzIwMCcsICctaW1hZScsICc8aW5maWxlLm1hZT4nLCAnLW9tYWUnLCAnPG91dGZpbGUubWFlPic=

>  <r_lp_tautomer_probability>  (326) 
1

>  <r_epik_Ionization_Penalty>  (326) 
0.000805127

>  <r_epik_Ionization_Penalty_Charging>  (326) 
0

>  <r_epik_Ionization_Penalty_Neutral>  (326) 
0.000805127

>  <r_epik_State_Penalty>  (326) 
0.00051717

>  <r_epik_Charging_Adjusted_Penalty>  (326) 
0.00051717

>  <i_epik_Tot_Q>  (326) 
0

>  <i_epik_Tot_abs_Q>  (326) 
0

>  <s_lp_Force_Field>  (326) 
OPLS3e

>  <r_lp_Energy>  (326) 
47.62

>  <b_lp_Chiralities_Consistent>  (326) 
1

>  <s_lp_Variant>  (326) 
95:0-1

>  <s_i_glide_gridfile>  (326) 
pfpi4k_grid

>  <i_i_glide_lignum>  (326) 
9

>  <i_i_glide_rotatable_bonds>  (326) 
2

>  <r_i_docking_score>  (326) 
-2.57768

>  <r_i_glide_ligand_efficiency>  (326) 
-0.0991417

>  <r_i_glide_ligand_efficiency_sa>  (326) 
-0.293707

>  <r_i_glide_ligand_efficiency_ln>  (326) 
-0.605361

>  <r_i_glide_gscore>  (326) 
-2.57768

>  <r_i_glide_lipo>  (326) 
-0.366354

>  <r_i_glide_hbond>  (326) 
0

>  <r_i_glide_metal>  (326) 
-0

>  <r_i_glide_rewards>  (326) 
-0.951812

>  <r_i_glide_evdw>  (326) 
-25.0486

>  <r_i_glide_ecoul>  (326) 
-0.0472701

>  <r_i_glide_erotb>  (326) 
0

>  <r_i_glide_esite>  (326) 
0

>  <r_i_glide_emodel>  (326) 
-29.8158

>  <r_i_glide_energy>  (326) 
-25.0958

>  <r_i_glide_einternal>  (326) 
0.204888

>  <r_i_glide_intrahb_reward>  (326) 
-0

>  <i_i_glide_confnum>  (326) 
1

>  <i_i_glide_posenum>  (326) 
10

>  <r_i_glide_eff_state_penalty>  (326) 
0

>  <ligand_id>  (326) 
95

>  <original_smiles>  (326) 
CC1(C)OC2C3OC3c3c(O)cccc3OC3(C)C2C1CC(O)C31CO1

>  <smiles>  (326) 
[H]Oc1c([H])c([H])c([H])c2c1C1([H])OC1([H])C1([H])OC(C([H])([H])[H])(C([H])([H])[H])C3([H])C([H])([H])C([H])(O[H])C4(OC4([H])[H])C(C([H])([H])[H])(O2)C13[H]

$$$$
97:0:0
     RDKit          3D

 30 32  0  0  1  0  0  0  0  0999 V2000
    7.8773   -2.2610   -1.3567 O   0  0  0  0  0  0  0  0  0  0  0  0
    7.1074   -3.4406   -1.2877 C   0  0  0  0  0  0  0  0  0  0  0  0
    5.7441   -3.1855   -0.6196 C   0  0  2  0  0  0  0  0  0  0  0  0
    5.3159   -4.3763    0.0515 O   0  0  0  0  0  0  0  0  0  0  0  0
    3.9394   -4.5703   -0.1244 C   0  0  1  0  0  0  0  0  0  0  0  0
    3.2883   -4.7992    1.2087 N   0  0  0  0  0  0  0  0  0  0  0  0
    3.6334   -4.2721    2.3972 C   0  0  0  0  0  0  0  0  0  0  0  0
    2.8720   -4.5691    3.4546 N   0  0  0  0  0  0  0  0  0  0  0  0
    1.9256   -5.3963    2.8798 C   0  0  0  0  0  0  0  0  0  0  0  0
    0.8030   -6.0726    3.4074 C   0  0  0  0  0  0  0  0  0  0  0  0
    0.4022   -5.9719    5.0852 Cl  0  0  0  0  0  0  0  0  0  0  0  0
    0.0210   -6.7806    2.5573 N   0  0  0  0  0  0  0  0  0  0  0  0
    0.3556   -6.8701    1.2665 C   0  0  0  0  0  0  0  0  0  0  0  0
    1.3479   -6.2485    0.6211 N   0  0  0  0  0  0  0  0  0  0  0  0
    2.1507   -5.5416    1.4787 C   0  0  0  0  0  0  0  0  0  0  0  0
    3.3926   -3.3119   -0.8261 C   0  0  1  0  0  0  0  0  0  0  0  0
    2.9935   -2.2867    0.0816 O   0  0  0  0  0  0  0  0  0  0  0  0
    4.6165   -2.8874   -1.6131 C   0  0  1  0  0  0  0  0  0  0  0  0
    4.5687   -1.5327   -2.0268 O   0  0  0  0  0  0  0  0  0  0  0  0
    8.7310   -2.4976   -1.7115 H   0  0  0  0  0  0  0  0  0  0  0  0
    6.9771   -3.8385   -2.2893 H   0  0  0  0  0  0  0  0  0  0  0  0
    7.6769   -4.1588   -0.7029 H   0  0  0  0  0  0  0  0  0  0  0  0
    5.8100   -2.3989    0.1409 H   0  0  0  0  0  0  0  0  0  0  0  0
    3.8068   -5.4982   -0.6787 H   0  0  0  0  0  0  0  0  0  0  0  0
    4.4715   -3.6001    2.4792 H   0  0  0  0  0  0  0  0  0  0  0  0
   -0.3064   -7.4677    0.6608 H   0  0  0  0  0  0  0  0  0  0  0  0
    2.5607   -3.6052   -1.4633 H   0  0  0  0  0  0  0  0  0  0  0  0
    2.3297   -1.7256   -0.3229 H   0  0  0  0  0  0  0  0  0  0  0  0
    4.7068   -3.5365   -2.4858 H   0  0  0  0  0  0  0  0  0  0  0  0
    3.6894   -1.3510   -2.3231 H   0  0  0  0  0  0  0  0  0  0  0  0
  1  2  1  0
  1 20  1  0
  2  3  1  0
  2 21  1  0
  2 22  1  0
  3 18  1  0
  3  4  1  0
  3 23  1  1
  4  5  1  0
  5  6  1  0
  5 16  1  0
  5 24  1  6
  6 15  1  0
  6  7  1  0
  7  8  2  0
  7 25  1  0
  8  9  1  0
  9 15  2  0
  9 10  1  0
 10 11  1  0
 10 12  2  0
 12 13  1  0
 13 14  2  0
 13 26  1  0
 14 15  1  0
 16 17  1  0
 16 18  1  0
 16 27  1  6
 17 28  1  0
 18 19  1  0
 18 29  1  6
 19 30  1  0
M  END
>  <i_m_ct_stereo_status>  (327) 
1

>  <s_m_source_file>  (327) 
/var/tmp/pbs.5076255.sched01/tmpyj7ipo08/120az4jmrmy.sdf

>  <i_m_source_file_index>  (327) 
12

>  <i_lp_mmshare_version>  (327) 
48012

>  <i_f3d_flags>  (327) 
0

>  <s_epik_input>  (327) 
W09IXVtDSDJdW0NAQEhdMU9bQ0BIXShbQ0BASF0oW09IXSlbQ0BIXTFbT0hdKW4oW2NIXW4yKWMoYzIzKW5bY0hdbmMzQ2w=

>  <s_epik_cmdline>  (327) 
J2VwaWtfcHl0aG9uJywgJy1waHQnLCAnMi4wJywgJy1waCcsICc3LjAnLCAnLXRuJywgJzgnLCAnLW1hJywgJzIwMCcsICctaW1hZScsICc8aW5maWxlLm1hZT4nLCAnLW9tYWUnLCAnPG91dGZpbGUubWFlPic=

>  <r_lp_tautomer_probability>  (327) 
1

>  <r_epik_Ionization_Penalty>  (327) 
3.45505e-06

>  <r_epik_Ionization_Penalty_Charging>  (327) 
0

>  <r_epik_Ionization_Penalty_Neutral>  (327) 
3.45505e-06

>  <r_epik_State_Penalty>  (327) 
-0

>  <r_epik_Charging_Adjusted_Penalty>  (327) 
0

>  <i_epik_Tot_Q>  (327) 
0

>  <i_epik_Tot_abs_Q>  (327) 
0

>  <s_epik_Chemistry_Notes>  (327) 
This compound contains an acetal/aminal-like group ( X-CH(R)-Y where X, Y are N, S, or O) that may be acid/base labile, releasing an aldehyde.

>  <s_lp_Force_Field>  (327) 
OPLS3e

>  <r_lp_Energy>  (327) 
17.5

>  <b_lp_Chiralities_Consistent>  (327) 
1

>  <s_lp_Variant>  (327) 
97:0-1

>  <s_i_glide_gridfile>  (327) 
pfpi4k_grid

>  <i_i_glide_lignum>  (327) 
12

>  <i_i_glide_rotatable_bonds>  (327) 
5

>  <r_i_docking_score>  (327) 
-4.62857

>  <r_i_glide_ligand_efficiency>  (327) 
-0.243609

>  <r_i_glide_ligand_efficiency_sa>  (327) 
-0.650046

>  <r_i_glide_ligand_efficiency_ln>  (327) 
-1.17344

>  <r_i_glide_gscore>  (327) 
-4.62857

>  <r_i_glide_lipo>  (327) 
-0.257159

>  <r_i_glide_hbond>  (327) 
-0.215416

>  <r_i_glide_metal>  (327) 
-0

>  <r_i_glide_rewards>  (327) 
-1.45468

>  <r_i_glide_evdw>  (327) 
-18.0506

>  <r_i_glide_ecoul>  (327) 
-13.0246

>  <r_i_glide_erotb>  (327) 
0.309434

>  <r_i_glide_esite>  (327) 
-0.154529

>  <r_i_glide_emodel>  (327) 
-39.1191

>  <r_i_glide_energy>  (327) 
-31.0752

>  <r_i_glide_einternal>  (327) 
2.77587

>  <r_i_glide_intrahb_reward>  (327) 
-0

>  <i_i_glide_confnum>  (327) 
4

>  <i_i_glide_posenum>  (327) 
39

>  <r_i_glide_eff_state_penalty>  (327) 
0

>  <ligand_id>  (327) 
97

>  <original_smiles>  (327) 
OCC1OC(n2cnc3c(Cl)ncnc32)C(O)C1O

>  <smiles>  (327) 
[H]OC([H])([H])C1([H])OC([H])(n2c([H])nc3c(Cl)nc([H])nc32)C([H])(O[H])C1([H])O[H]

$$$$
97:0:1
     RDKit          3D

 30 32  0  0  1  0  0  0  0  0999 V2000
    6.7867   -1.0561    0.2968 O   0  0  0  0  0  0  0  0  0  0  0  0
    6.5196   -2.3936    0.6577 C   0  0  0  0  0  0  0  0  0  0  0  0
    5.0250   -2.7229    0.5169 C   0  0  2  0  0  0  0  0  0  0  0  0
    4.8502   -4.0954    0.8867 O   0  0  0  0  0  0  0  0  0  0  0  0
    3.9318   -4.7337    0.0401 C   0  0  1  0  0  0  0  0  0  0  0  0
    2.8148   -5.3727    0.8360 N   0  0  0  0  0  0  0  0  0  0  0  0
    1.6673   -5.8799    0.3346 C   0  0  0  0  0  0  0  0  0  0  0  0
    0.7388   -6.3131    1.1806 N   0  0  0  0  0  0  0  0  0  0  0  0
    1.3839   -6.1309    2.3884 C   0  0  0  0  0  0  0  0  0  0  0  0
    0.9990   -6.3902    3.7235 C   0  0  0  0  0  0  0  0  0  0  0  0
   -0.5435   -7.0852    4.0921 Cl  0  0  0  0  0  0  0  0  0  0  0  0
    1.8528   -6.0431    4.7120 N   0  0  0  0  0  0  0  0  0  0  0  0
    3.0305   -5.4903    4.4030 C   0  0  0  0  0  0  0  0  0  0  0  0
    3.5323   -5.2064    3.2036 N   0  0  0  0  0  0  0  0  0  0  0  0
    2.6724   -5.5448    2.2032 C   0  0  0  0  0  0  0  0  0  0  0  0
    3.3680   -3.6428   -0.8810 C   0  0  1  0  0  0  0  0  0  0  0  0
    2.2151   -3.0610   -0.3034 O   0  0  0  0  0  0  0  0  0  0  0  0
    4.5162   -2.6666   -0.9301 C   0  0  1  0  0  0  0  0  0  0  0  0
    4.0787   -1.3931   -1.3809 O   0  0  0  0  0  0  0  0  0  0  0  0
    6.3297   -0.4898    0.9011 H   0  0  0  0  0  0  0  0  0  0  0  0
    7.1087   -3.0667    0.0343 H   0  0  0  0  0  0  0  0  0  0  0  0
    6.8440   -2.5495    1.6843 H   0  0  0  0  0  0  0  0  0  0  0  0
    4.4072   -2.1050    1.1786 H   0  0  0  0  0  0  0  0  0  0  0  0
    4.4133   -5.5582   -0.4733 H   0  0  0  0  0  0  0  0  0  0  0  0
    1.4779   -5.8651   -0.7280 H   0  0  0  0  0  0  0  0  0  0  0  0
    3.6682   -5.2379    5.2302 H   0  0  0  0  0  0  0  0  0  0  0  0
    3.1312   -4.0408   -1.8631 H   0  0  0  0  0  0  0  0  0  0  0  0
    1.8782   -2.3119   -0.8034 H   0  0  0  0  0  0  0  0  0  0  0  0
    5.2843   -3.0583   -1.5910 H   0  0  0  0  0  0  0  0  0  0  0  0
    3.3090   -1.1491   -0.8837 H   0  0  0  0  0  0  0  0  0  0  0  0
  1  2  1  0
  1 20  1  0
  2  3  1  0
  2 21  1  0
  2 22  1  0
  3 18  1  0
  3  4  1  0
  3 23  1  1
  4  5  1  0
  5  6  1  0
  5 16  1  0
  5 24  1  6
  6 15  1  0
  6  7  1  0
  7  8  2  0
  7 25  1  0
  8  9  1  0
  9 15  2  0
  9 10  1  0
 10 11  1  0
 10 12  2  0
 12 13  1  0
 13 14  2  0
 13 26  1  0
 14 15  1  0
 16 17  1  0
 16 18  1  0
 16 27  1  6
 17 28  1  0
 18 19  1  0
 18 29  1  6
 19 30  1  0
M  END
>  <i_m_ct_stereo_status>  (328) 
1

>  <s_m_source_file>  (328) 
/var/tmp/pbs.5076255.sched01/tmpyj7ipo08/120az4jmrmy.sdf

>  <i_m_source_file_index>  (328) 
12

>  <i_lp_mmshare_version>  (328) 
48012

>  <i_f3d_flags>  (328) 
0

>  <s_epik_input>  (328) 
W09IXVtDSDJdW0NAQEhdMU9bQ0BIXShbQ0BASF0oW09IXSlbQ0BIXTFbT0hdKW4oW2NIXW4yKWMoYzIzKW5bY0hdbmMzQ2w=

>  <s_epik_cmdline>  (328) 
J2VwaWtfcHl0aG9uJywgJy1waHQnLCAnMi4wJywgJy1waCcsICc3LjAnLCAnLXRuJywgJzgnLCAnLW1hJywgJzIwMCcsICctaW1hZScsICc8aW5maWxlLm1hZT4nLCAnLW9tYWUnLCAnPG91dGZpbGUubWFlPic=

>  <r_lp_tautomer_probability>  (328) 
1

>  <r_epik_Ionization_Penalty>  (328) 
3.45505e-06

>  <r_epik_Ionization_Penalty_Charging>  (328) 
0

>  <r_epik_Ionization_Penalty_Neutral>  (328) 
3.45505e-06

>  <r_epik_State_Penalty>  (328) 
-0

>  <r_epik_Charging_Adjusted_Penalty>  (328) 
0

>  <i_epik_Tot_Q>  (328) 
0

>  <i_epik_Tot_abs_Q>  (328) 
0

>  <s_epik_Chemistry_Notes>  (328) 
This compound contains an acetal/aminal-like group ( X-CH(R)-Y where X, Y are N, S, or O) that may be acid/base labile, releasing an aldehyde.

>  <s_lp_Force_Field>  (328) 
OPLS3e

>  <r_lp_Energy>  (328) 
17.5

>  <b_lp_Chiralities_Consistent>  (328) 
1

>  <s_lp_Variant>  (328) 
97:0-1

>  <s_i_glide_gridfile>  (328) 
pfpi4k_grid

>  <i_i_glide_lignum>  (328) 
12

>  <i_i_glide_rotatable_bonds>  (328) 
5

>  <r_i_docking_score>  (328) 
-3.61683

>  <r_i_glide_ligand_efficiency>  (328) 
-0.190359

>  <r_i_glide_ligand_efficiency_sa>  (328) 
-0.507955

>  <r_i_glide_ligand_efficiency_ln>  (328) 
-0.916943

>  <r_i_glide_gscore>  (328) 
-3.61683

>  <r_i_glide_lipo>  (328) 
-0.123348

>  <r_i_glide_hbond>  (328) 
-0.16

>  <r_i_glide_metal>  (328) 
-0

>  <r_i_glide_rewards>  (328) 
-1.45451

>  <r_i_glide_evdw>  (328) 
-14.4746

>  <r_i_glide_ecoul>  (328) 
-9.74094

>  <r_i_glide_erotb>  (328) 
0.442048

>  <r_i_glide_esite>  (328) 
-0.136144

>  <r_i_glide_emodel>  (328) 
-30.5779

>  <r_i_glide_energy>  (328) 
-24.2155

>  <r_i_glide_einternal>  (328) 
2.29651

>  <r_i_glide_intrahb_reward>  (328) 
-0

>  <i_i_glide_confnum>  (328) 
4

>  <i_i_glide_posenum>  (328) 
3

>  <r_i_glide_eff_state_penalty>  (328) 
0

>  <ligand_id>  (328) 
97

>  <original_smiles>  (328) 
OCC1OC(n2cnc3c(Cl)ncnc32)C(O)C1O

>  <smiles>  (328) 
[H]OC([H])([H])C1([H])OC([H])(n2c([H])nc3c(Cl)nc([H])nc32)C([H])(O[H])C1([H])O[H]

$$$$
97:0:2
     RDKit          3D

 30 32  0  0  1  0  0  0  0  0999 V2000
   -1.4157    4.9358    3.2796 O   0  0  0  0  0  0  0  0  0  0  0  0
   -0.1597    4.4623    3.7099 C   0  0  0  0  0  0  0  0  0  0  0  0
   -0.0605    2.9330    3.5384 C   0  0  2  0  0  0  0  0  0  0  0  0
   -0.2319    2.2955    4.8077 O   0  0  0  0  0  0  0  0  0  0  0  0
    0.6786    1.2352    4.9525 C   0  0  1  0  0  0  0  0  0  0  0  0
   -0.0631    0.0030    5.3627 N   0  0  0  0  0  0  0  0  0  0  0  0
   -1.3816   -0.2531    5.2662 C   0  0  0  0  0  0  0  0  0  0  0  0
   -1.8058   -1.4467    5.6810 N   0  0  0  0  0  0  0  0  0  0  0  0
   -0.6170   -2.0394    6.0718 C   0  0  0  0  0  0  0  0  0  0  0  0
   -0.3134   -3.3084    6.6233 C   0  0  0  0  0  0  0  0  0  0  0  0
   -1.5619   -4.4450    6.9851 Cl  0  0  0  0  0  0  0  0  0  0  0  0
    0.9699   -3.5903    6.9261 N   0  0  0  0  0  0  0  0  0  0  0  0
    1.9176   -2.6787    6.6811 C   0  0  0  0  0  0  0  0  0  0  0  0
    1.7862   -1.4452    6.1747 N   0  0  0  0  0  0  0  0  0  0  0  0
    0.4866   -1.1612    5.8778 C   0  0  0  0  0  0  0  0  0  0  0  0
    1.3772    1.0468    3.6006 C   0  0  1  0  0  0  0  0  0  0  0  0
    0.7178    0.1252    2.7350 O   0  0  0  0  0  0  0  0  0  0  0  0
    1.3195    2.4667    3.0797 C   0  0  1  0  0  0  0  0  0  0  0  0
    1.4815    2.4942    1.6811 O   0  0  0  0  0  0  0  0  0  0  0  0
   -1.4410    4.7887    2.3427 H   0  0  0  0  0  0  0  0  0  0  0  0
    0.5840    4.9739    3.0975 H   0  0  0  0  0  0  0  0  0  0  0  0
    0.0278    4.7558    4.7438 H   0  0  0  0  0  0  0  0  0  0  0  0
   -0.8065    2.5486    2.8371 H   0  0  0  0  0  0  0  0  0  0  0  0
    1.3641    1.4564    5.7714 H   0  0  0  0  0  0  0  0  0  0  0  0
   -2.0583    0.4812    4.8519 H   0  0  0  0  0  0  0  0  0  0  0  0
    2.9151   -2.9829    6.9511 H   0  0  0  0  0  0  0  0  0  0  0  0
    2.3952    0.7015    3.7561 H   0  0  0  0  0  0  0  0  0  0  0  0
    1.0109    0.2943    1.8455 H   0  0  0  0  0  0  0  0  0  0  0  0
    2.0898    3.0661    3.5669 H   0  0  0  0  0  0  0  0  0  0  0  0
    0.9580    3.2207    1.3130 H   0  0  0  0  0  0  0  0  0  0  0  0
  1  2  1  0
  1 20  1  0
  2  3  1  0
  2 21  1  0
  2 22  1  0
  3 18  1  0
  3  4  1  0
  3 23  1  6
  4  5  1  0
  5  6  1  0
  5 16  1  0
  5 24  1  1
  6 15  1  0
  6  7  1  0
  7  8  2  0
  7 25  1  0
  8  9  1  0
  9 15  2  0
  9 10  1  0
 10 11  1  0
 10 12  2  0
 12 13  1  0
 13 14  2  0
 13 26  1  0
 14 15  1  0
 16 17  1  0
 16 18  1  0
 16 27  1  1
 17 28  1  0
 18 19  1  0
 18 29  1  1
 19 30  1  0
M  END
>  <i_m_ct_stereo_status>  (329) 
1

>  <s_m_source_file>  (329) 
/var/tmp/pbs.5076255.sched01/tmpyj7ipo08/120az4jmrmy.sdf

>  <i_m_source_file_index>  (329) 
12

>  <i_lp_mmshare_version>  (329) 
48012

>  <i_f3d_flags>  (329) 
0

>  <s_epik_input>  (329) 
W09IXVtDSDJdW0NAQEhdMU9bQ0BIXShbQ0BASF0oW09IXSlbQ0BIXTFbT0hdKW4oW2NIXW4yKWMoYzIzKW5bY0hdbmMzQ2w=

>  <s_epik_cmdline>  (329) 
J2VwaWtfcHl0aG9uJywgJy1waHQnLCAnMi4wJywgJy1waCcsICc3LjAnLCAnLXRuJywgJzgnLCAnLW1hJywgJzIwMCcsICctaW1hZScsICc8aW5maWxlLm1hZT4nLCAnLW9tYWUnLCAnPG91dGZpbGUubWFlPic=

>  <r_lp_tautomer_probability>  (329) 
1

>  <r_epik_Ionization_Penalty>  (329) 
3.45505e-06

>  <r_epik_Ionization_Penalty_Charging>  (329) 
0

>  <r_epik_Ionization_Penalty_Neutral>  (329) 
3.45505e-06

>  <r_epik_State_Penalty>  (329) 
-0

>  <r_epik_Charging_Adjusted_Penalty>  (329) 
0

>  <i_epik_Tot_Q>  (329) 
0

>  <i_epik_Tot_abs_Q>  (329) 
0

>  <s_epik_Chemistry_Notes>  (329) 
This compound contains an acetal/aminal-like group ( X-CH(R)-Y where X, Y are N, S, or O) that may be acid/base labile, releasing an aldehyde.

>  <s_lp_Force_Field>  (329) 
OPLS3e

>  <r_lp_Energy>  (329) 
17.5

>  <b_lp_Chiralities_Consistent>  (329) 
1

>  <s_lp_Variant>  (329) 
97:0-1

>  <s_i_glide_gridfile>  (329) 
pfpi4k_grid

>  <i_i_glide_lignum>  (329) 
12

>  <i_i_glide_rotatable_bonds>  (329) 
5

>  <r_i_docking_score>  (329) 
-3.61328

>  <r_i_glide_ligand_efficiency>  (329) 
-0.190173

>  <r_i_glide_ligand_efficiency_sa>  (329) 
-0.507457

>  <r_i_glide_ligand_efficiency_ln>  (329) 
-0.916044

>  <r_i_glide_gscore>  (329) 
-3.61328

>  <r_i_glide_lipo>  (329) 
-0.0463571

>  <r_i_glide_hbond>  (329) 
-0.00494306

>  <r_i_glide_metal>  (329) 
-0

>  <r_i_glide_rewards>  (329) 
-1.45451

>  <r_i_glide_evdw>  (329) 
-11.0631

>  <r_i_glide_ecoul>  (329) 
-12.7964

>  <r_i_glide_erotb>  (329) 
0.442048

>  <r_i_glide_esite>  (329) 
-0.0768927

>  <r_i_glide_emodel>  (329) 
-30.1853

>  <r_i_glide_energy>  (329) 
-23.8596

>  <r_i_glide_einternal>  (329) 
2.39927

>  <r_i_glide_intrahb_reward>  (329) 
-0

>  <i_i_glide_confnum>  (329) 
1

>  <i_i_glide_posenum>  (329) 
20

>  <r_i_glide_eff_state_penalty>  (329) 
0

>  <ligand_id>  (329) 
97

>  <original_smiles>  (329) 
OCC1OC(n2cnc3c(Cl)ncnc32)C(O)C1O

>  <smiles>  (329) 
[H]OC([H])([H])C1([H])OC([H])(n2c([H])nc3c(Cl)nc([H])nc32)C([H])(O[H])C1([H])O[H]

$$$$
98:0:0
     RDKit          3D

 54 59  0  0  1  0  0  0  0  0999 V2000
    3.2553    1.2280    7.8421 C   0  0  0  0  0  0  0  0  0  0  0  0
    3.0107    2.4767    6.9337 C   0  0  0  0  0  0  0  0  0  0  0  0
    1.7817    2.4366    5.9419 C   0  0  1  0  0  0  0  0  0  0  0  0
    1.8004    3.7233    5.0384 C   0  0  0  0  0  0  0  0  0  0  0  0
    1.7258    3.4260    3.5890 N   0  0  2  0  0  0  0  0  0  0  0  0
    0.4229    2.9349    3.0530 C   0  0  0  0  0  0  0  0  0  0  0  0
   -0.3563    1.8863    3.9013 C   0  0  1  0  0  0  0  0  0  0  0  0
   -1.3188    1.1458    2.9413 C   0  0  0  0  0  0  0  0  0  0  0  0
    0.5386    0.7840    4.5534 C   0  0  0  0  0  0  0  0  0  0  0  0
    1.8627    1.2151    5.0685 N   0  0  0  0  0  0  0  0  0  0  0  0
    2.9025    1.2275    3.9876 C   0  0  2  0  0  0  0  0  0  0  0  0
    2.7705    0.0728    2.9882 C   0  0  0  0  0  0  0  0  0  0  0  0
    3.7901   -0.7766    3.0008 C   0  0  0  0  0  0  0  0  0  0  0  0
    4.8523   -0.3877    3.9759 C   0  0  0  0  0  0  0  0  0  0  0  0
    4.3255    0.9131    4.5763 C   0  0  0  0  0  0  0  0  0  0  0  0
    2.8736    2.5804    3.2073 C   0  0  0  0  0  0  0  0  0  0  0  0
   -1.2557    2.5959    4.9474 C   0  0  0  0  0  0  0  0  0  0  0  0
   -2.3114    3.1154    4.5784 O   0  0  0  0  0  0  0  0  0  0  0  0
   -0.8146    2.5938    6.3300 C   0  0  0  0  0  0  0  0  0  0  0  0
    0.4979    2.4905    6.7528 C   0  0  0  0  0  0  0  0  0  0  0  0
    0.5805    2.5469    8.1214 O   0  0  0  0  0  0  0  0  0  0  0  0
   -0.7011    2.6914    8.6088 C   0  0  0  0  0  0  0  0  0  0  0  0
   -1.0966    2.7865    9.9466 C   0  0  0  0  0  0  0  0  0  0  0  0
   -2.4673    2.9547   10.2297 C   0  0  0  0  0  0  0  0  0  0  0  0
   -3.3963    3.0238    9.1689 C   0  0  0  0  0  0  0  0  0  0  0  0
   -2.9656    2.9091    7.8318 C   0  0  0  0  0  0  0  0  0  0  0  0
   -1.5970    2.7437    7.5197 C   0  0  0  0  0  0  0  0  0  0  0  0
    4.2440    1.2920    8.2982 H   0  0  0  0  0  0  0  0  0  0  0  0
    3.2174    0.2728    7.3171 H   0  0  0  0  0  0  0  0  0  0  0  0
    2.5417    1.1424    8.6559 H   0  0  0  0  0  0  0  0  0  0  0  0
    2.9148    3.3386    7.5936 H   0  0  0  0  0  0  0  0  0  0  0  0
    3.9244    2.7157    6.3897 H   0  0  0  0  0  0  0  0  0  0  0  0
    1.0150    4.4356    5.3051 H   0  0  0  0  0  0  0  0  0  0  0  0
    2.7264    4.2762    5.2074 H   0  0  0  0  0  0  0  0  0  0  0  0
   -0.2062    3.8091    2.8872 H   0  0  0  0  0  0  0  0  0  0  0  0
    0.5995    2.5282    2.0592 H   0  0  0  0  0  0  0  0  0  0  0  0
   -0.7851    0.5805    2.1730 H   0  0  0  0  0  0  0  0  0  0  0  0
   -2.0013    1.8241    2.4141 H   0  0  0  0  0  0  0  0  0  0  0  0
   -1.9190    0.4334    3.5114 H   0  0  0  0  0  0  0  0  0  0  0  0
    0.0000    0.3640    5.4036 H   0  0  0  0  0  0  0  0  0  0  0  0
    0.5901   -0.0933    3.9176 H   0  0  0  0  0  0  0  0  0  0  0  0
    1.9325   -0.0151    2.2981 H   0  0  0  0  0  0  0  0  0  0  0  0
    3.8827   -1.6580    2.3810 H   0  0  0  0  0  0  0  0  0  0  0  0
    4.9263   -1.1358    4.7600 H   0  0  0  0  0  0  0  0  0  0  0  0
    5.8236   -0.2484    3.5128 H   0  0  0  0  0  0  0  0  0  0  0  0
    5.0294    1.7325    4.4314 H   0  0  0  0  0  0  0  0  0  0  0  0
    4.3171    0.6886    5.6228 H   0  0  0  0  0  0  0  0  0  0  0  0
    2.8961    2.4309    2.1270 H   0  0  0  0  0  0  0  0  0  0  0  0
    3.7583    3.1704    3.4275 H   0  0  0  0  0  0  0  0  0  0  0  0
   -0.3735    2.7329   10.7474 H   0  0  0  0  0  0  0  0  0  0  0  0
   -2.8061    3.0173   11.2542 H   0  0  0  0  0  0  0  0  0  0  0  0
   -4.4501    3.1458    9.3782 H   0  0  0  0  0  0  0  0  0  0  0  0
   -3.6734    2.9429    7.0206 H   0  0  0  0  0  0  0  0  0  0  0  0
    1.8761    4.2974    3.0984 H   0  0  0  0  0  0  0  0  0  0  0  0
  1  2  1  0
  1 28  1  0
  1 29  1  0
  1 30  1  0
  3  2  1  1
  2 31  1  0
  2 32  1  0
  3 10  1  0
  3 20  1  0
  3  4  1  0
  4  5  1  0
  4 33  1  0
  4 34  1  0
  5 16  1  0
  5  6  1  0
  5 54  1  6
  6  7  1  0
  6 35  1  0
  6 36  1  0
  7  8  1  6
  7  9  1  0
  7 17  1  0
  8 37  1  0
  8 38  1  0
  8 39  1  0
  9 10  1  0
  9 40  1  0
  9 41  1  0
 10 11  1  0
 11 15  1  1
 11 12  1  0
 11 16  1  0
 12 13  2  0
 12 42  1  0
 13 14  1  0
 13 43  1  0
 14 15  1  0
 14 44  1  0
 14 45  1  0
 15 46  1  0
 15 47  1  0
 16 48  1  0
 16 49  1  0
 17 18  2  0
 17 19  1  0
 19 27  1  0
 19 20  2  0
 20 21  1  0
 21 22  1  0
 22 27  2  0
 22 23  1  0
 23 24  2  0
 23 50  1  0
 24 25  1  0
 24 51  1  0
 25 26  2  0
 25 52  1  0
 26 27  1  0
 26 53  1  0
M  CHG  1   5   1
M  END
>  <i_m_ct_stereo_status>  (330) 
1

>  <s_m_source_file>  (330) 
/var/tmp/pbs.5076255.sched01/tmpyj7ipo08/120az4jmrmy.sdf

>  <i_m_source_file_index>  (330) 
13

>  <i_lp_mmshare_version>  (330) 
48012

>  <i_f3d_flags>  (330) 
0

>  <s_epik_input>  (330) 
W0NIMl0xW0NIMl1bQ0hdPVtDSF1bQ0BAXTEyTjNbQ0BdNChbQ0gyXVtDSDNdKWM1YyhDKD1PKVtDQF0oW0NIM10pKFtDSDJdMylbQ0gyXU4oW0NIMl00KVtDSDJdMiljNmMobzUpW2NIXVtjSF1bY0hdW2NIXTY=

>  <s_epik_cmdline>  (330) 
J2VwaWtfcHl0aG9uJywgJy1waHQnLCAnMi4wJywgJy1waCcsICc3LjAnLCAnLXRuJywgJzgnLCAnLW1hJywgJzIwMCcsICctaW1hZScsICc8aW5maWxlLm1hZT4nLCAnLW9tYWUnLCAnPG91dGZpbGUubWFlPic=

>  <r_epik_Ionization_Penalty>  (330) 
0.0326651

>  <r_epik_Ionization_Penalty_Charging>  (330) 
0.0309965

>  <r_epik_Ionization_Penalty_Neutral>  (330) 
0.00166861

>  <r_epik_State_Penalty>  (330) 
0.21004

>  <r_epik_Charging_Adjusted_Penalty>  (330) 
0.241036

>  <i_epik_Tot_Q>  (330) 
1

>  <i_epik_Tot_abs_Q>  (330) 
1

>  <s_lp_Force_Field>  (330) 
OPLS3e

>  <r_lp_Energy>  (330) 
64.7354

>  <b_lp_Chiralities_Consistent>  (330) 
1

>  <s_lp_Variant>  (330) 
98:0-1

>  <s_i_glide_gridfile>  (330) 
pfpi4k_grid

>  <i_i_glide_lignum>  (330) 
13

>  <i_i_glide_rotatable_bonds>  (330) 
1

>  <r_i_docking_score>  (330) 
-3.16345

>  <r_i_glide_ligand_efficiency>  (330) 
-0.117165

>  <r_i_glide_ligand_efficiency_sa>  (330) 
-0.351495

>  <r_i_glide_ligand_efficiency_ln>  (330) 
-0.7364

>  <r_i_glide_gscore>  (330) 
-3.16345

>  <r_i_glide_lipo>  (330) 
-0.26807

>  <r_i_glide_hbond>  (330) 
0

>  <r_i_glide_metal>  (330) 
-0

>  <r_i_glide_rewards>  (330) 
-0.930868

>  <r_i_glide_evdw>  (330) 
-20.4178

>  <r_i_glide_ecoul>  (330) 
-5.92928

>  <r_i_glide_erotb>  (330) 
0

>  <r_i_glide_esite>  (330) 
-0.0542302

>  <r_i_glide_emodel>  (330) 
-32.5584

>  <r_i_glide_energy>  (330) 
-26.3471

>  <r_i_glide_einternal>  (330) 
0.00770147

>  <r_i_glide_intrahb_reward>  (330) 
-0

>  <i_i_glide_confnum>  (330) 
1

>  <i_i_glide_posenum>  (330) 
9

>  <r_i_glide_eff_state_penalty>  (330) 
0

>  <ligand_id>  (330) 
98

>  <original_smiles>  (330) 
CCC12CN3CC(C)(CN1C1(C=CCC1)C3)C(=O)c1c2oc2ccccc12

>  <smiles>  (330) 
[H]C1=C([H])C2(N3C([H])([H])C4(C([H])([H])[H])C(=O)c5c(oc6c([H])c([H])c([H])c([H])c56)C3(C([H])([H])C([H])([H])[H])C([H])([H])[N+]([H])(C2([H])[H])C4([H])[H])C([H])([H])C1([H])[H]

$$$$
98:0:1
     RDKit          3D

 54 59  0  0  1  0  0  0  0  0999 V2000
    3.2668    1.8411    8.0631 C   0  0  0  0  0  0  0  0  0  0  0  0
    2.7725    0.9316    6.9185 C   0  0  0  0  0  0  0  0  0  0  0  0
    1.7278    1.5034    5.8771 C   0  0  1  0  0  0  0  0  0  0  0  0
    2.3042    2.8101    5.2551 C   0  0  0  0  0  0  0  0  0  0  0  0
    2.3133    2.7965    3.7750 N   0  0  2  0  0  0  0  0  0  0  0  0
    0.9979    2.9374    3.0845 C   0  0  0  0  0  0  0  0  0  0  0  0
   -0.2052    2.1288    3.6501 C   0  0  1  0  0  0  0  0  0  0  0  0
   -1.2391    1.9830    2.5080 C   0  0  0  0  0  0  0  0  0  0  0  0
    0.1549    0.6758    4.1106 C   0  0  0  0  0  0  0  0  0  0  0  0
    1.4584    0.4869    4.7906 N   0  0  0  0  0  0  0  0  0  0  0  0
    2.5560    0.2777    3.7823 C   0  0  2  0  0  0  0  0  0  0  0  0
    2.1549   -0.5410    2.5543 C   0  0  0  0  0  0  0  0  0  0  0  0
    2.8024   -1.6967    2.4268 C   0  0  0  0  0  0  0  0  0  0  0  0
    3.7917   -1.9225    3.5157 C   0  0  0  0  0  0  0  0  0  0  0  0
    3.6420   -0.6770    4.3853 C   0  0  0  0  0  0  0  0  0  0  0  0
    3.1185    1.6486    3.3066 C   0  0  0  0  0  0  0  0  0  0  0  0
   -0.9181    2.9303    4.7732 C   0  0  0  0  0  0  0  0  0  0  0  0
   -1.6667    3.8606    4.4620 O   0  0  0  0  0  0  0  0  0  0  0  0
   -0.6837    2.5103    6.1495 C   0  0  0  0  0  0  0  0  0  0  0  0
    0.4389    1.8526    6.6052 C   0  0  0  0  0  0  0  0  0  0  0  0
    0.3074    1.5143    7.9344 O   0  0  0  0  0  0  0  0  0  0  0  0
   -0.8446    2.1098    8.3900 C   0  0  0  0  0  0  0  0  0  0  0  0
   -1.3360    2.1387    9.7112 C   0  0  0  0  0  0  0  0  0  0  0  0
   -2.5748    2.7676    9.9526 C   0  0  0  0  0  0  0  0  0  0  0  0
   -3.2856    3.3500    8.8848 C   0  0  0  0  0  0  0  0  0  0  0  0
   -2.7521    3.3202    7.5757 C   0  0  0  0  0  0  0  0  0  0  0  0
   -1.5106    2.7148    7.3058 C   0  0  0  0  0  0  0  0  0  0  0  0
    3.8226    1.2400    8.7867 H   0  0  0  0  0  0  0  0  0  0  0  0
    2.4886    2.3762    8.6017 H   0  0  0  0  0  0  0  0  0  0  0  0
    3.9679    2.5705    7.6640 H   0  0  0  0  0  0  0  0  0  0  0  0
    3.7275    0.6759    6.4621 H   0  0  0  0  0  0  0  0  0  0  0  0
    2.3695    0.0019    7.3385 H   0  0  0  0  0  0  0  0  0  0  0  0
    1.8043    3.7041    5.6287 H   0  0  0  0  0  0  0  0  0  0  0  0
    3.3464    2.9293    5.5422 H   0  0  0  0  0  0  0  0  0  0  0  0
    0.7540    4.0011    3.0796 H   0  0  0  0  0  0  0  0  0  0  0  0
    1.1510    2.6798    2.0379 H   0  0  0  0  0  0  0  0  0  0  0  0
   -0.8472    1.3974    1.6704 H   0  0  0  0  0  0  0  0  0  0  0  0
   -1.5378    2.9560    2.0995 H   0  0  0  0  0  0  0  0  0  0  0  0
   -2.1539    1.4912    2.8539 H   0  0  0  0  0  0  0  0  0  0  0  0
   -0.6054    0.3404    4.8161 H   0  0  0  0  0  0  0  0  0  0  0  0
   -0.0225   -0.0312    3.3066 H   0  0  0  0  0  0  0  0  0  0  0  0
    1.4476   -0.1829    1.8117 H   0  0  0  0  0  0  0  0  0  0  0  0
    2.6584   -2.4077    1.6309 H   0  0  0  0  0  0  0  0  0  0  0  0
    3.5134   -2.7938    4.1020 H   0  0  0  0  0  0  0  0  0  0  0  0
    4.8084   -2.0453    3.1496 H   0  0  0  0  0  0  0  0  0  0  0  0
    4.6118   -0.1886    4.5243 H   0  0  0  0  0  0  0  0  0  0  0  0
    3.3300   -1.1005    5.3440 H   0  0  0  0  0  0  0  0  0  0  0  0
    3.2318    1.6981    2.2220 H   0  0  0  0  0  0  0  0  0  0  0  0
    4.1235    1.8018    3.6928 H   0  0  0  0  0  0  0  0  0  0  0  0
   -0.7842    1.6882   10.5197 H   0  0  0  0  0  0  0  0  0  0  0  0
   -2.9908    2.7749   10.9545 H   0  0  0  0  0  0  0  0  0  0  0  0
   -4.2489    3.8169    9.0537 H   0  0  0  0  0  0  0  0  0  0  0  0
   -3.2815    3.7468    6.7467 H   0  0  0  0  0  0  0  0  0  0  0  0
    2.8376    3.6126    3.4938 H   0  0  0  0  0  0  0  0  0  0  0  0
  1  2  1  0
  1 28  1  0
  1 29  1  0
  1 30  1  0
  3  2  1  1
  2 31  1  0
  2 32  1  0
  3 10  1  0
  3 20  1  0
  3  4  1  0
  4  5  1  0
  4 33  1  0
  4 34  1  0
  5 16  1  0
  5  6  1  0
  5 54  1  6
  6  7  1  0
  6 35  1  0
  6 36  1  0
  7  8  1  6
  7  9  1  0
  7 17  1  0
  8 37  1  0
  8 38  1  0
  8 39  1  0
  9 10  1  0
  9 40  1  0
  9 41  1  0
 10 11  1  0
 11 15  1  1
 11 12  1  0
 11 16  1  0
 12 13  2  0
 12 42  1  0
 13 14  1  0
 13 43  1  0
 14 15  1  0
 14 44  1  0
 14 45  1  0
 15 46  1  0
 15 47  1  0
 16 48  1  0
 16 49  1  0
 17 18  2  0
 17 19  1  0
 19 27  1  0
 19 20  2  0
 20 21  1  0
 21 22  1  0
 22 27  2  0
 22 23  1  0
 23 24  2  0
 23 50  1  0
 24 25  1  0
 24 51  1  0
 25 26  2  0
 25 52  1  0
 26 27  1  0
 26 53  1  0
M  CHG  1   5   1
M  END
>  <i_m_ct_stereo_status>  (331) 
1

>  <s_m_source_file>  (331) 
/var/tmp/pbs.5076255.sched01/tmpyj7ipo08/120az4jmrmy.sdf

>  <i_m_source_file_index>  (331) 
13

>  <i_lp_mmshare_version>  (331) 
48012

>  <i_f3d_flags>  (331) 
0

>  <s_epik_input>  (331) 
W0NIMl0xW0NIMl1bQ0hdPVtDSF1bQ0BAXTEyTjNbQ0BdNChbQ0gyXVtDSDNdKWM1YyhDKD1PKVtDQF0oW0NIM10pKFtDSDJdMylbQ0gyXU4oW0NIMl00KVtDSDJdMiljNmMobzUpW2NIXVtjSF1bY0hdW2NIXTY=

>  <s_epik_cmdline>  (331) 
J2VwaWtfcHl0aG9uJywgJy1waHQnLCAnMi4wJywgJy1waCcsICc3LjAnLCAnLXRuJywgJzgnLCAnLW1hJywgJzIwMCcsICctaW1hZScsICc8aW5maWxlLm1hZT4nLCAnLW9tYWUnLCAnPG91dGZpbGUubWFlPic=

>  <r_epik_Ionization_Penalty>  (331) 
0.0326651

>  <r_epik_Ionization_Penalty_Charging>  (331) 
0.0309965

>  <r_epik_Ionization_Penalty_Neutral>  (331) 
0.00166861

>  <r_epik_State_Penalty>  (331) 
0.21004

>  <r_epik_Charging_Adjusted_Penalty>  (331) 
0.241036

>  <i_epik_Tot_Q>  (331) 
1

>  <i_epik_Tot_abs_Q>  (331) 
1

>  <s_lp_Force_Field>  (331) 
OPLS3e

>  <r_lp_Energy>  (331) 
64.7354

>  <b_lp_Chiralities_Consistent>  (331) 
1

>  <s_lp_Variant>  (331) 
98:0-1

>  <s_i_glide_gridfile>  (331) 
pfpi4k_grid

>  <i_i_glide_lignum>  (331) 
13

>  <i_i_glide_rotatable_bonds>  (331) 
1

>  <r_i_docking_score>  (331) 
-3.14913

>  <r_i_glide_ligand_efficiency>  (331) 
-0.116635

>  <r_i_glide_ligand_efficiency_sa>  (331) 
-0.349904

>  <r_i_glide_ligand_efficiency_ln>  (331) 
-0.733066

>  <r_i_glide_gscore>  (331) 
-3.14913

>  <r_i_glide_lipo>  (331) 
-0.181541

>  <r_i_glide_hbond>  (331) 
0

>  <r_i_glide_metal>  (331) 
-0

>  <r_i_glide_rewards>  (331) 
-0.930868

>  <r_i_glide_evdw>  (331) 
-20.3085

>  <r_i_glide_ecoul>  (331) 
-6.55224

>  <r_i_glide_erotb>  (331) 
0

>  <r_i_glide_esite>  (331) 
-0.0384601

>  <r_i_glide_emodel>  (331) 
-31.9971

>  <r_i_glide_energy>  (331) 
-26.8608

>  <r_i_glide_einternal>  (331) 
1.56965

>  <r_i_glide_intrahb_reward>  (331) 
-0

>  <i_i_glide_confnum>  (331) 
1

>  <i_i_glide_posenum>  (331) 
27

>  <r_i_glide_eff_state_penalty>  (331) 
0

>  <ligand_id>  (331) 
98

>  <original_smiles>  (331) 
CCC12CN3CC(C)(CN1C1(C=CCC1)C3)C(=O)c1c2oc2ccccc12

>  <smiles>  (331) 
[H]C1=C([H])C2(N3C([H])([H])C4(C([H])([H])[H])C(=O)c5c(oc6c([H])c([H])c([H])c([H])c56)C3(C([H])([H])C([H])([H])[H])C([H])([H])[N+]([H])(C2([H])[H])C4([H])[H])C([H])([H])C1([H])[H]

$$$$
98:0:2
     RDKit          3D

 54 59  0  0  1  0  0  0  0  0999 V2000
    2.2574   -0.8748    7.2484 C   0  0  0  0  0  0  0  0  0  0  0  0
    2.7082    0.4798    6.6180 C   0  0  0  0  0  0  0  0  0  0  0  0
    1.6951    1.2147    5.6554 C   0  0  1  0  0  0  0  0  0  0  0  0
    2.3928    2.4856    5.0410 C   0  0  0  0  0  0  0  0  0  0  0  0
    2.3201    2.5421    3.5631 N   0  0  2  0  0  0  0  0  0  0  0  0
    0.9888    2.8382    2.9489 C   0  0  0  0  0  0  0  0  0  0  0  0
   -0.2641    2.1479    3.5746 C   0  0  1  0  0  0  0  0  0  0  0  0
   -1.3733    2.1580    2.4916 C   0  0  0  0  0  0  0  0  0  0  0  0
   -0.0465    0.6557    3.9662 C   0  0  0  0  0  0  0  0  0  0  0  0
    1.2768    0.2918    4.5462 N   0  0  0  0  0  0  0  0  0  0  0  0
    2.2914    0.0136    3.4791 C   0  0  2  0  0  0  0  0  0  0  0  0
    1.7221   -0.7243    2.2619 C   0  0  0  0  0  0  0  0  0  0  0  0
    2.2197   -1.9300    2.0773 C   0  0  0  0  0  0  0  0  0  0  0  0
    3.2575   -2.2915    3.0913 C   0  0  0  0  0  0  0  0  0  0  0  0
    3.3592   -1.0418    3.9575 C   0  0  0  0  0  0  0  0  0  0  0  0
    2.9603    1.3322    2.9903 C   0  0  0  0  0  0  0  0  0  0  0  0
   -0.8168    2.9901    4.7529 C   0  0  0  0  0  0  0  0  0  0  0  0
   -1.4746    4.0049    4.5042 O   0  0  0  0  0  0  0  0  0  0  0  0
   -0.5505    2.5149    6.1028 C   0  0  0  0  0  0  0  0  0  0  0  0
    0.5205    1.7237    6.4783 C   0  0  0  0  0  0  0  0  0  0  0  0
    0.4982    1.4674    7.8247 O   0  0  0  0  0  0  0  0  0  0  0  0
   -0.6031    2.1053    8.3567 C   0  0  0  0  0  0  0  0  0  0  0  0
   -1.0206    2.1219    9.6880 C   0  0  0  0  0  0  0  0  0  0  0  0
   -2.1757    2.8552   10.0278 C   0  0  0  0  0  0  0  0  0  0  0  0
   -2.8755    3.5525    9.0143 C   0  0  0  0  0  0  0  0  0  0  0  0
   -2.4258    3.5054    7.6815 C   0  0  0  0  0  0  0  0  0  0  0  0
   -1.2759    2.7817    7.3127 C   0  0  0  0  0  0  0  0  0  0  0  0
    3.1159   -1.3771    7.6919 H   0  0  0  0  0  0  0  0  0  0  0  0
    1.8151   -1.5784    6.5435 H   0  0  0  0  0  0  0  0  0  0  0  0
    1.5262   -0.7583    8.0457 H   0  0  0  0  0  0  0  0  0  0  0  0
    2.9747    1.1479    7.4404 H   0  0  0  0  0  0  0  0  0  0  0  0
    3.6691    0.3539    6.1202 H   0  0  0  0  0  0  0  0  0  0  0  0
    2.0148    3.4250    5.4618 H   0  0  0  0  0  0  0  0  0  0  0  0
    3.4534    2.4838    5.3077 H   0  0  0  0  0  0  0  0  0  0  0  0
    0.8625    3.9230    2.9720 H   0  0  0  0  0  0  0  0  0  0  0  0
    1.0471    2.5708    1.8950 H   0  0  0  0  0  0  0  0  0  0  0  0
   -1.0901    1.5495    1.6318 H   0  0  0  0  0  0  0  0  0  0  0  0
   -1.5863    3.1669    2.1278 H   0  0  0  0  0  0  0  0  0  0  0  0
   -2.3045    1.7547    2.8898 H   0  0  0  0  0  0  0  0  0  0  0  0
   -0.7927    0.3895    4.7129 H   0  0  0  0  0  0  0  0  0  0  0  0
   -0.3502    0.0016    3.1576 H   0  0  0  0  0  0  0  0  0  0  0  0
    1.0124   -0.2627    1.5729 H   0  0  0  0  0  0  0  0  0  0  0  0
    1.9499   -2.6052    1.2763 H   0  0  0  0  0  0  0  0  0  0  0  0
    2.8997   -3.1164    3.6996 H   0  0  0  0  0  0  0  0  0  0  0  0
    4.2145   -2.5519    2.6497 H   0  0  0  0  0  0  0  0  0  0  0  0
    4.3799   -0.6455    3.9754 H   0  0  0  0  0  0  0  0  0  0  0  0
    3.1484   -1.4542    4.9342 H   0  0  0  0  0  0  0  0  0  0  0  0
    3.0035    1.4033    1.9038 H   0  0  0  0  0  0  0  0  0  0  0  0
    3.9995    1.3584    3.3044 H   0  0  0  0  0  0  0  0  0  0  0  0
   -0.4730    1.5840   10.4536 H   0  0  0  0  0  0  0  0  0  0  0  0
   -2.5287    2.8855   11.0473 H   0  0  0  0  0  0  0  0  0  0  0  0
   -3.7615    4.1241    9.2519 H   0  0  0  0  0  0  0  0  0  0  0  0
   -2.9491    4.0329    6.9011 H   0  0  0  0  0  0  0  0  0  0  0  0
    2.9107    3.3026    3.2679 H   0  0  0  0  0  0  0  0  0  0  0  0
  1  2  1  0
  1 28  1  0
  1 29  1  0
  1 30  1  0
  3  2  1  1
  2 31  1  0
  2 32  1  0
  3 10  1  0
  3 20  1  0
  3  4  1  0
  4  5  1  0
  4 33  1  0
  4 34  1  0
  5 16  1  0
  5  6  1  0
  5 54  1  6
  6  7  1  0
  6 35  1  0
  6 36  1  0
  7  8  1  6
  7  9  1  0
  7 17  1  0
  8 37  1  0
  8 38  1  0
  8 39  1  0
  9 10  1  0
  9 40  1  0
  9 41  1  0
 10 11  1  0
 11 15  1  1
 11 12  1  0
 11 16  1  0
 12 13  2  0
 12 42  1  0
 13 14  1  0
 13 43  1  0
 14 15  1  0
 14 44  1  0
 14 45  1  0
 15 46  1  0
 15 47  1  0
 16 48  1  0
 16 49  1  0
 17 18  2  0
 17 19  1  0
 19 27  1  0
 19 20  2  0
 20 21  1  0
 21 22  1  0
 22 27  2  0
 22 23  1  0
 23 24  2  0
 23 50  1  0
 24 25  1  0
 24 51  1  0
 25 26  2  0
 25 52  1  0
 26 27  1  0
 26 53  1  0
M  CHG  1   5   1
M  END
>  <i_m_ct_stereo_status>  (332) 
1

>  <s_m_source_file>  (332) 
/var/tmp/pbs.5076255.sched01/tmpyj7ipo08/120az4jmrmy.sdf

>  <i_m_source_file_index>  (332) 
13

>  <i_lp_mmshare_version>  (332) 
48012

>  <i_f3d_flags>  (332) 
0

>  <s_epik_input>  (332) 
W0NIMl0xW0NIMl1bQ0hdPVtDSF1bQ0BAXTEyTjNbQ0BdNChbQ0gyXVtDSDNdKWM1YyhDKD1PKVtDQF0oW0NIM10pKFtDSDJdMylbQ0gyXU4oW0NIMl00KVtDSDJdMiljNmMobzUpW2NIXVtjSF1bY0hdW2NIXTY=

>  <s_epik_cmdline>  (332) 
J2VwaWtfcHl0aG9uJywgJy1waHQnLCAnMi4wJywgJy1waCcsICc3LjAnLCAnLXRuJywgJzgnLCAnLW1hJywgJzIwMCcsICctaW1hZScsICc8aW5maWxlLm1hZT4nLCAnLW9tYWUnLCAnPG91dGZpbGUubWFlPic=

>  <r_epik_Ionization_Penalty>  (332) 
0.0326651

>  <r_epik_Ionization_Penalty_Charging>  (332) 
0.0309965

>  <r_epik_Ionization_Penalty_Neutral>  (332) 
0.00166861

>  <r_epik_State_Penalty>  (332) 
0.21004

>  <r_epik_Charging_Adjusted_Penalty>  (332) 
0.241036

>  <i_epik_Tot_Q>  (332) 
1

>  <i_epik_Tot_abs_Q>  (332) 
1

>  <s_lp_Force_Field>  (332) 
OPLS3e

>  <r_lp_Energy>  (332) 
64.7354

>  <b_lp_Chiralities_Consistent>  (332) 
1

>  <s_lp_Variant>  (332) 
98:0-1

>  <s_i_glide_gridfile>  (332) 
pfpi4k_grid

>  <i_i_glide_lignum>  (332) 
13

>  <i_i_glide_rotatable_bonds>  (332) 
1

>  <r_i_docking_score>  (332) 
-3.06448

>  <r_i_glide_ligand_efficiency>  (332) 
-0.113499

>  <r_i_glide_ligand_efficiency_sa>  (332) 
-0.340497

>  <r_i_glide_ligand_efficiency_ln>  (332) 
-0.71336

>  <r_i_glide_gscore>  (332) 
-3.06448

>  <r_i_glide_lipo>  (332) 
-0.106199

>  <r_i_glide_hbond>  (332) 
0

>  <r_i_glide_metal>  (332) 
-0

>  <r_i_glide_rewards>  (332) 
-0.930868

>  <r_i_glide_evdw>  (332) 
-20.4417

>  <r_i_glide_ecoul>  (332) 
-6.42952

>  <r_i_glide_erotb>  (332) 
0

>  <r_i_glide_esite>  (332) 
-0.0408935

>  <r_i_glide_emodel>  (332) 
-32.8653

>  <r_i_glide_energy>  (332) 
-26.8713

>  <r_i_glide_einternal>  (332) 
0.000409078

>  <r_i_glide_intrahb_reward>  (332) 
-0

>  <i_i_glide_confnum>  (332) 
1

>  <i_i_glide_posenum>  (332) 
22

>  <r_i_glide_eff_state_penalty>  (332) 
0

>  <ligand_id>  (332) 
98

>  <original_smiles>  (332) 
CCC12CN3CC(C)(CN1C1(C=CCC1)C3)C(=O)c1c2oc2ccccc12

>  <smiles>  (332) 
[H]C1=C([H])C2(N3C([H])([H])C4(C([H])([H])[H])C(=O)c5c(oc6c([H])c([H])c([H])c([H])c56)C3(C([H])([H])C([H])([H])[H])C([H])([H])[N+]([H])(C2([H])[H])C4([H])[H])C([H])([H])C1([H])[H]

$$$$
98:1:0
     RDKit          3D

 54 59  0  0  1  0  0  0  0  0999 V2000
    4.3187   -6.6886    0.8143 C   0  0  0  0  0  0  0  0  0  0  0  0
    3.8922   -5.3823    0.1160 C   0  0  0  0  0  0  0  0  0  0  0  0
    3.9197   -4.0310    0.9239 C   0  0  1  0  0  0  0  0  0  0  0  0
    5.3747   -3.7859    1.4533 C   0  0  0  0  0  0  0  0  0  0  0  0
    5.9347   -2.4819    1.0907 N   0  0  0  0  0  0  0  0  0  0  0  0
    5.3547   -1.2880    1.7259 C   0  0  0  0  0  0  0  0  0  0  0  0
    3.8137   -1.2032    1.9777 C   0  0  1  0  0  0  0  0  0  0  0  0
    3.4801    0.2972    2.1904 C   0  0  0  0  0  0  0  0  0  0  0  0
    2.9360   -1.7106    0.7798 C   0  0  0  0  0  0  0  0  0  0  0  0
    3.5098   -2.8724    0.0182 N   0  0  1  0  0  0  0  0  0  0  0  0
    4.5535   -2.4525   -1.0040 C   0  0  2  0  0  0  0  0  0  0  0  0
    4.2694   -1.1072   -1.6652 C   0  0  0  0  0  0  0  0  0  0  0  0
    4.0713   -1.1623   -2.9773 C   0  0  0  0  0  0  0  0  0  0  0  0
    4.2113   -2.5472   -3.5150 C   0  0  0  0  0  0  0  0  0  0  0  0
    4.5303   -3.3793   -2.2694 C   0  0  0  0  0  0  0  0  0  0  0  0
    5.9687   -2.3968   -0.3648 C   0  0  0  0  0  0  0  0  0  0  0  0
    3.4395   -1.9302    3.2986 C   0  0  0  0  0  0  0  0  0  0  0  0
    3.6158   -1.3582    4.3768 O   0  0  0  0  0  0  0  0  0  0  0  0
    2.8150   -3.2345    3.1866 C   0  0  0  0  0  0  0  0  0  0  0  0
    2.9977   -4.1207    2.1443 C   0  0  0  0  0  0  0  0  0  0  0  0
    2.1601   -5.2056    2.2858 O   0  0  0  0  0  0  0  0  0  0  0  0
    1.5313   -5.0845    3.5084 C   0  0  0  0  0  0  0  0  0  0  0  0
    0.6301   -5.9863    4.1013 C   0  0  0  0  0  0  0  0  0  0  0  0
    0.0712   -5.6520    5.3506 C   0  0  0  0  0  0  0  0  0  0  0  0
    0.4227   -4.4406    5.9799 C   0  0  0  0  0  0  0  0  0  0  0  0
    1.3375   -3.5598    5.3648 C   0  0  0  0  0  0  0  0  0  0  0  0
    1.9133   -3.8654    4.1086 C   0  0  0  0  0  0  0  0  0  0  0  0
    4.2783   -7.5075    0.0924 H   0  0  0  0  0  0  0  0  0  0  0  0
    3.6872   -6.9809    1.6520 H   0  0  0  0  0  0  0  0  0  0  0  0
    5.3500   -6.6329    1.1637 H   0  0  0  0  0  0  0  0  0  0  0  0
    4.5819   -5.3365   -0.7204 H   0  0  0  0  0  0  0  0  0  0  0  0
    2.8956   -5.5245   -0.3089 H   0  0  0  0  0  0  0  0  0  0  0  0
    5.4363   -3.9174    2.5354 H   0  0  0  0  0  0  0  0  0  0  0  0
    6.0506   -4.5347    1.0359 H   0  0  0  0  0  0  0  0  0  0  0  0
    5.8458   -1.2191    2.6974 H   0  0  0  0  0  0  0  0  0  0  0  0
    5.6929   -0.4072    1.1822 H   0  0  0  0  0  0  0  0  0  0  0  0
    3.7007    0.8851    1.2971 H   0  0  0  0  0  0  0  0  0  0  0  0
    4.0698    0.7302    3.0036 H   0  0  0  0  0  0  0  0  0  0  0  0
    2.4253    0.4538    2.4375 H   0  0  0  0  0  0  0  0  0  0  0  0
    1.9416   -2.0026    1.1301 H   0  0  0  0  0  0  0  0  0  0  0  0
    2.6494   -0.8807    0.1401 H   0  0  0  0  0  0  0  0  0  0  0  0
    4.2549   -0.1863   -1.0995 H   0  0  0  0  0  0  0  0  0  0  0  0
    3.8682   -0.3157   -3.6167 H   0  0  0  0  0  0  0  0  0  0  0  0
    3.2811   -2.8742   -3.9778 H   0  0  0  0  0  0  0  0  0  0  0  0
    5.0138   -2.6085   -4.2444 H   0  0  0  0  0  0  0  0  0  0  0  0
    5.4742   -3.9092   -2.4097 H   0  0  0  0  0  0  0  0  0  0  0  0
    3.7439   -4.1239   -2.2097 H   0  0  0  0  0  0  0  0  0  0  0  0
    6.5004   -1.4906   -0.6616 H   0  0  0  0  0  0  0  0  0  0  0  0
    6.5899   -3.2214   -0.7181 H   0  0  0  0  0  0  0  0  0  0  0  0
    0.3750   -6.9111    3.6125 H   0  0  0  0  0  0  0  0  0  0  0  0
   -0.6253   -6.3185    5.8304 H   0  0  0  0  0  0  0  0  0  0  0  0
   -0.0014   -4.1764    6.9367 H   0  0  0  0  0  0  0  0  0  0  0  0
    1.6040   -2.6318    5.8443 H   0  0  0  0  0  0  0  0  0  0  0  0
    2.7321   -3.1989   -0.5359 H   0  0  0  0  0  0  0  0  0  0  0  0
  1  2  1  0
  1 28  1  0
  1 29  1  0
  1 30  1  0
  3  2  1  6
  2 31  1  0
  2 32  1  0
  3 10  1  0
  3 20  1  0
  3  4  1  0
  4  5  1  0
  4 33  1  0
  4 34  1  0
  5 16  1  0
  5  6  1  0
  6  7  1  0
  6 35  1  0
  6 36  1  0
  7  8  1  1
  7  9  1  0
  7 17  1  0
  8 37  1  0
  8 38  1  0
  8 39  1  0
  9 10  1  0
  9 40  1  0
  9 41  1  0
 10 11  1  0
 10 54  1  6
 11 15  1  6
 11 12  1  0
 11 16  1  0
 12 13  2  0
 12 42  1  0
 13 14  1  0
 13 43  1  0
 14 15  1  0
 14 44  1  0
 14 45  1  0
 15 46  1  0
 15 47  1  0
 16 48  1  0
 16 49  1  0
 17 18  2  0
 17 19  1  0
 19 27  1  0
 19 20  2  0
 20 21  1  0
 21 22  1  0
 22 27  2  0
 22 23  1  0
 23 24  2  0
 23 50  1  0
 24 25  1  0
 24 51  1  0
 25 26  2  0
 25 52  1  0
 26 27  1  0
 26 53  1  0
M  CHG  1  10   1
M  END
>  <i_m_ct_stereo_status>  (333) 
1

>  <s_m_source_file>  (333) 
/var/tmp/pbs.5076255.sched01/tmpyj7ipo08/120az4jmrmy.sdf

>  <i_m_source_file_index>  (333) 
14

>  <i_lp_mmshare_version>  (333) 
48012

>  <i_f3d_flags>  (333) 
0

>  <s_epik_input>  (333) 
W0NIMl0xW0NIMl1bQ0hdPVtDSF1bQ0BAXTEyTjNbQ0BdNChbQ0gyXVtDSDNdKWM1YyhDKD1PKVtDQF0oW0NIM10pKFtDSDJdMylbQ0gyXU4oW0NIMl00KVtDSDJdMiljNmMobzUpW2NIXVtjSF1bY0hdW2NIXTY=

>  <s_epik_cmdline>  (333) 
J2VwaWtfcHl0aG9uJywgJy1waHQnLCAnMi4wJywgJy1waCcsICc3LjAnLCAnLXRuJywgJzgnLCAnLW1hJywgJzIwMCcsICctaW1hZScsICc8aW5maWxlLm1hZT4nLCAnLW9tYWUnLCAnPG91dGZpbGUubWFlPic=

>  <r_epik_Ionization_Penalty>  (333) 
0.0778638

>  <r_epik_Ionization_Penalty_Charging>  (333) 
0.0737539

>  <r_epik_Ionization_Penalty_Neutral>  (333) 
0.00410991

>  <r_epik_State_Penalty>  (333) 
0.781243

>  <r_epik_Charging_Adjusted_Penalty>  (333) 
0.854997

>  <i_epik_Tot_Q>  (333) 
1

>  <i_epik_Tot_abs_Q>  (333) 
1

>  <s_lp_Force_Field>  (333) 
OPLS3e

>  <r_lp_Energy>  (333) 
55.4133

>  <b_lp_Chiralities_Consistent>  (333) 
1

>  <s_lp_Variant>  (333) 
98:0-2

>  <s_i_glide_gridfile>  (333) 
pfpi4k_grid

>  <i_i_glide_lignum>  (333) 
14

>  <i_i_glide_rotatable_bonds>  (333) 
1

>  <r_i_docking_score>  (333) 
-3.25854

>  <r_i_glide_ligand_efficiency>  (333) 
-0.120687

>  <r_i_glide_ligand_efficiency_sa>  (333) 
-0.36206

>  <r_i_glide_ligand_efficiency_ln>  (333) 
-0.758534

>  <r_i_glide_gscore>  (333) 
-3.25854

>  <r_i_glide_lipo>  (333) 
-0.55796

>  <r_i_glide_hbond>  (333) 
0

>  <r_i_glide_metal>  (333) 
-0

>  <r_i_glide_rewards>  (333) 
-0.930868

>  <r_i_glide_evdw>  (333) 
-23.892

>  <r_i_glide_ecoul>  (333) 
-3.71288

>  <r_i_glide_erotb>  (333) 
0

>  <r_i_glide_esite>  (333) 
-0.0181785

>  <r_i_glide_emodel>  (333) 
-33.1936

>  <r_i_glide_energy>  (333) 
-27.6048

>  <r_i_glide_einternal>  (333) 
0.000170467

>  <r_i_glide_intrahb_reward>  (333) 
-0

>  <i_i_glide_confnum>  (333) 
2

>  <i_i_glide_posenum>  (333) 
1

>  <r_i_glide_eff_state_penalty>  (333) 
0

>  <ligand_id>  (333) 
98

>  <original_smiles>  (333) 
CCC12CN3CC(C)(CN1C1(C=CCC1)C3)C(=O)c1c2oc2ccccc12

>  <smiles>  (333) 
[H]C1=C([H])C2(C([H])([H])N3C([H])([H])C4(C([H])([H])[H])C(=O)c5c(oc6c([H])c([H])c([H])c([H])c56)C(C([H])([H])C([H])([H])[H])(C3([H])[H])[N+]2([H])C4([H])[H])C([H])([H])C1([H])[H]

$$$$
98:1:1
     RDKit          3D

 54 59  0  0  1  0  0  0  0  0999 V2000
    3.9077   -6.1227    0.2707 C   0  0  0  0  0  0  0  0  0  0  0  0
    4.8904   -5.3070    1.1594 C   0  0  0  0  0  0  0  0  0  0  0  0
    4.4078   -3.8875    1.6293 C   0  0  1  0  0  0  0  0  0  0  0  0
    5.5974   -3.1619    2.3515 C   0  0  0  0  0  0  0  0  0  0  0  0
    5.8891   -1.8224    1.8281 N   0  0  0  0  0  0  0  0  0  0  0  0
    4.9053   -0.7540    2.0617 C   0  0  0  0  0  0  0  0  0  0  0  0
    3.3800   -1.0819    2.0045 C   0  0  1  0  0  0  0  0  0  0  0  0
    2.6443    0.2698    1.8179 C   0  0  0  0  0  0  0  0  0  0  0  0
    2.9625   -2.0092    0.8104 C   0  0  0  0  0  0  0  0  0  0  0  0
    3.9679   -3.0602    0.4346 N   0  0  1  0  0  0  0  0  0  0  0  0
    5.0950   -2.5283   -0.4389 C   0  0  2  0  0  0  0  0  0  0  0  0
    4.6328   -1.4558   -1.4231 C   0  0  0  0  0  0  0  0  0  0  0  0
    4.7629   -1.7919   -2.7028 C   0  0  0  0  0  0  0  0  0  0  0  0
    5.3928   -3.1354   -2.8827 C   0  0  0  0  0  0  0  0  0  0  0  0
    5.6452   -3.6100   -1.4456 C   0  0  0  0  0  0  0  0  0  0  0  0
    6.2494   -1.9541    0.4238 C   0  0  0  0  0  0  0  0  0  0  0  0
    2.8974   -1.6541    3.3634 C   0  0  0  0  0  0  0  0  0  0  0  0
    2.6774   -0.8833    4.3026 O   0  0  0  0  0  0  0  0  0  0  0  0
    2.6619   -3.0818    3.4383 C   0  0  0  0  0  0  0  0  0  0  0  0
    3.2949   -4.0375    2.6699 C   0  0  0  0  0  0  0  0  0  0  0  0
    2.8091   -5.2928    2.9643 O   0  0  0  0  0  0  0  0  0  0  0  0
    1.8616   -5.1499    3.9558 C   0  0  0  0  0  0  0  0  0  0  0  0
    1.0843   -6.1600    4.5524 C   0  0  0  0  0  0  0  0  0  0  0  0
    0.1775   -5.7978    5.5667 C   0  0  0  0  0  0  0  0  0  0  0  0
    0.0656   -4.4508    5.9641 C   0  0  0  0  0  0  0  0  0  0  0  0
    0.8490   -3.4575    5.3369 C   0  0  0  0  0  0  0  0  0  0  0  0
    1.7605   -3.7888    4.3083 C   0  0  0  0  0  0  0  0  0  0  0  0
    4.3615   -7.0750   -0.0173 H   0  0  0  0  0  0  0  0  0  0  0  0
    3.6252   -5.6175   -0.6497 H   0  0  0  0  0  0  0  0  0  0  0  0
    2.9680   -6.3558    0.7680 H   0  0  0  0  0  0  0  0  0  0  0  0
    5.1366   -5.9074    2.0364 H   0  0  0  0  0  0  0  0  0  0  0  0
    5.8491   -5.2288    0.6454 H   0  0  0  0  0  0  0  0  0  0  0  0
    5.4359   -3.0891    3.4299 H   0  0  0  0  0  0  0  0  0  0  0  0
    6.5094   -3.7555    2.2411 H   0  0  0  0  0  0  0  0  0  0  0  0
    5.1252   -0.3807    3.0635 H   0  0  0  0  0  0  0  0  0  0  0  0
    5.1318    0.0797    1.3978 H   0  0  0  0  0  0  0  0  0  0  0  0
    2.9158    0.7382    0.8775 H   0  0  0  0  0  0  0  0  0  0  0  0
    2.9011    0.9878    2.6029 H   0  0  0  0  0  0  0  0  0  0  0  0
    1.5557    0.1503    1.8248 H   0  0  0  0  0  0  0  0  0  0  0  0
    2.0200   -2.5126    1.0338 H   0  0  0  0  0  0  0  0  0  0  0  0
    2.6338   -1.4163   -0.0329 H   0  0  0  0  0  0  0  0  0  0  0  0
    4.2570   -0.4881   -1.1034 H   0  0  0  0  0  0  0  0  0  0  0  0
    4.5051   -1.1617   -3.5440 H   0  0  0  0  0  0  0  0  0  0  0  0
    4.7053   -3.8060   -3.3968 H   0  0  0  0  0  0  0  0  0  0  0  0
    6.3181   -3.0759   -3.4505 H   0  0  0  0  0  0  0  0  0  0  0  0
    6.7122   -3.8026   -1.2965 H   0  0  0  0  0  0  0  0  0  0  0  0
    5.1598   -4.5676   -1.3818 H   0  0  0  0  0  0  0  0  0  0  0  0
    6.5964   -0.9927    0.0388 H   0  0  0  0  0  0  0  0  0  0  0  0
    7.1232   -2.6084    0.3911 H   0  0  0  0  0  0  0  0  0  0  0  0
    1.1856   -7.1857    4.2388 H   0  0  0  0  0  0  0  0  0  0  0  0
   -0.4252   -6.5504    6.0486 H   0  0  0  0  0  0  0  0  0  0  0  0
   -0.6246   -4.1664    6.7438 H   0  0  0  0  0  0  0  0  0  0  0  0
    0.7581   -2.4252    5.6317 H   0  0  0  0  0  0  0  0  0  0  0  0
    3.4542   -3.6925   -0.1545 H   0  0  0  0  0  0  0  0  0  0  0  0
  1  2  1  0
  1 28  1  0
  1 29  1  0
  1 30  1  0
  3  2  1  6
  2 31  1  0
  2 32  1  0
  3 10  1  0
  3 20  1  0
  3  4  1  0
  4  5  1  0
  4 33  1  0
  4 34  1  0
  5 16  1  0
  5  6  1  0
  6  7  1  0
  6 35  1  0
  6 36  1  0
  7  8  1  6
  7  9  1  0
  7 17  1  0
  8 37  1  0
  8 38  1  0
  8 39  1  0
  9 10  1  0
  9 40  1  0
  9 41  1  0
 10 11  1  0
 10 54  1  6
 11 15  1  6
 11 12  1  0
 11 16  1  0
 12 13  2  0
 12 42  1  0
 13 14  1  0
 13 43  1  0
 14 15  1  0
 14 44  1  0
 14 45  1  0
 15 46  1  0
 15 47  1  0
 16 48  1  0
 16 49  1  0
 17 18  2  0
 17 19  1  0
 19 27  1  0
 19 20  2  0
 20 21  1  0
 21 22  1  0
 22 27  2  0
 22 23  1  0
 23 24  2  0
 23 50  1  0
 24 25  1  0
 24 51  1  0
 25 26  2  0
 25 52  1  0
 26 27  1  0
 26 53  1  0
M  CHG  1  10   1
M  END
>  <i_m_ct_stereo_status>  (334) 
1

>  <s_m_source_file>  (334) 
/var/tmp/pbs.5076255.sched01/tmpyj7ipo08/120az4jmrmy.sdf

>  <i_m_source_file_index>  (334) 
14

>  <i_lp_mmshare_version>  (334) 
48012

>  <i_f3d_flags>  (334) 
0

>  <s_epik_input>  (334) 
W0NIMl0xW0NIMl1bQ0hdPVtDSF1bQ0BAXTEyTjNbQ0BdNChbQ0gyXVtDSDNdKWM1YyhDKD1PKVtDQF0oW0NIM10pKFtDSDJdMylbQ0gyXU4oW0NIMl00KVtDSDJdMiljNmMobzUpW2NIXVtjSF1bY0hdW2NIXTY=

>  <s_epik_cmdline>  (334) 
J2VwaWtfcHl0aG9uJywgJy1waHQnLCAnMi4wJywgJy1waCcsICc3LjAnLCAnLXRuJywgJzgnLCAnLW1hJywgJzIwMCcsICctaW1hZScsICc8aW5maWxlLm1hZT4nLCAnLW9tYWUnLCAnPG91dGZpbGUubWFlPic=

>  <r_epik_Ionization_Penalty>  (334) 
0.0778638

>  <r_epik_Ionization_Penalty_Charging>  (334) 
0.0737539

>  <r_epik_Ionization_Penalty_Neutral>  (334) 
0.00410991

>  <r_epik_State_Penalty>  (334) 
0.781243

>  <r_epik_Charging_Adjusted_Penalty>  (334) 
0.854997

>  <i_epik_Tot_Q>  (334) 
1

>  <i_epik_Tot_abs_Q>  (334) 
1

>  <s_lp_Force_Field>  (334) 
OPLS3e

>  <r_lp_Energy>  (334) 
55.4133

>  <b_lp_Chiralities_Consistent>  (334) 
1

>  <s_lp_Variant>  (334) 
98:0-2

>  <s_i_glide_gridfile>  (334) 
pfpi4k_grid

>  <i_i_glide_lignum>  (334) 
14

>  <i_i_glide_rotatable_bonds>  (334) 
1

>  <r_i_docking_score>  (334) 
-3.14077

>  <r_i_glide_ligand_efficiency>  (334) 
-0.116325

>  <r_i_glide_ligand_efficiency_sa>  (334) 
-0.348975

>  <r_i_glide_ligand_efficiency_ln>  (334) 
-0.73112

>  <r_i_glide_gscore>  (334) 
-3.14077

>  <r_i_glide_lipo>  (334) 
-0.630699

>  <r_i_glide_hbond>  (334) 
0

>  <r_i_glide_metal>  (334) 
-0

>  <r_i_glide_rewards>  (334) 
-0.930868

>  <r_i_glide_evdw>  (334) 
-22.5743

>  <r_i_glide_ecoul>  (334) 
-2.9913

>  <r_i_glide_erotb>  (334) 
0

>  <r_i_glide_esite>  (334) 
-0.00179527

>  <r_i_glide_emodel>  (334) 
-30.483

>  <r_i_glide_energy>  (334) 
-25.5656

>  <r_i_glide_einternal>  (334) 
1.16801

>  <r_i_glide_intrahb_reward>  (334) 
-0

>  <i_i_glide_confnum>  (334) 
1

>  <i_i_glide_posenum>  (334) 
23

>  <r_i_glide_eff_state_penalty>  (334) 
0

>  <ligand_id>  (334) 
98

>  <original_smiles>  (334) 
CCC12CN3CC(C)(CN1C1(C=CCC1)C3)C(=O)c1c2oc2ccccc12

>  <smiles>  (334) 
[H]C1=C([H])C2(C([H])([H])N3C([H])([H])C4(C([H])([H])[H])C(=O)c5c(oc6c([H])c([H])c([H])c([H])c56)C(C([H])([H])C([H])([H])[H])(C3([H])[H])[N+]2([H])C4([H])[H])C([H])([H])C1([H])[H]

$$$$
98:1:2
     RDKit          3D

 54 59  0  0  1  0  0  0  0  0999 V2000
    2.6658   -5.5557    0.4762 C   0  0  0  0  0  0  0  0  0  0  0  0
    3.9295   -5.0322    1.2258 C   0  0  0  0  0  0  0  0  0  0  0  0
    3.8615   -3.5764    1.7982 C   0  0  1  0  0  0  0  0  0  0  0  0
    5.2671   -3.2105    2.3862 C   0  0  0  0  0  0  0  0  0  0  0  0
    5.8126   -1.9464    1.8867 N   0  0  0  0  0  0  0  0  0  0  0  0
    5.1519   -0.6921    2.2744 C   0  0  0  0  0  0  0  0  0  0  0  0
    3.5980   -0.6563    2.4007 C   0  0  1  0  0  0  0  0  0  0  0  0
    3.1873    0.8378    2.3633 C   0  0  0  0  0  0  0  0  0  0  0  0
    2.8363   -1.3676    1.2431 C   0  0  0  0  0  0  0  0  0  0  0  0
    3.5119   -2.5910    0.7133 N   0  0  1  0  0  0  0  0  0  0  0  0
    4.6100   -2.2952   -0.2803 C   0  0  2  0  0  0  0  0  0  0  0  0
    4.3179   -1.0902   -1.1651 C   0  0  0  0  0  0  0  0  0  0  0  0
    4.2304   -1.3456   -2.4645 C   0  0  0  0  0  0  0  0  0  0  0  0
    4.4793   -2.7807   -2.7815 C   0  0  0  0  0  0  0  0  0  0  0  0
    4.7644   -3.3869   -1.4028 C   0  0  0  0  0  0  0  0  0  0  0  0
    5.9630   -2.0668    0.4441 C   0  0  0  0  0  0  0  0  0  0  0  0
    3.1450   -1.1736    3.7854 C   0  0  0  0  0  0  0  0  0  0  0  0
    3.2516   -0.4303    4.7679 O   0  0  0  0  0  0  0  0  0  0  0  0
    2.5826   -2.5060    3.8383 C   0  0  0  0  0  0  0  0  0  0  0  0
    2.8765   -3.5247    2.9603 C   0  0  0  0  0  0  0  0  0  0  0  0
    2.1606   -4.6566    3.2733 O   0  0  0  0  0  0  0  0  0  0  0  0
    1.3812   -4.3694    4.3820 C   0  0  0  0  0  0  0  0  0  0  0  0
    0.4548   -5.2020    5.0385 C   0  0  0  0  0  0  0  0  0  0  0  0
   -0.2200   -4.7102    6.1767 C   0  0  0  0  0  0  0  0  0  0  0  0
    0.0400   -3.3960    6.6271 C   0  0  0  0  0  0  0  0  0  0  0  0
    0.9643   -2.5808    5.9354 C   0  0  0  0  0  0  0  0  0  0  0  0
    1.6476   -3.0472    4.7881 C   0  0  0  0  0  0  0  0  0  0  0  0
    2.8670   -6.5612    0.1068 H   0  0  0  0  0  0  0  0  0  0  0  0
    2.3416   -4.9641   -0.3794 H   0  0  0  0  0  0  0  0  0  0  0  0
    1.7815   -5.6219    1.1013 H   0  0  0  0  0  0  0  0  0  0  0  0
    4.1689   -5.7240    2.0389 H   0  0  0  0  0  0  0  0  0  0  0  0
    4.7985   -5.1574    0.5798 H   0  0  0  0  0  0  0  0  0  0  0  0
    5.2524   -3.1725    3.4750 H   0  0  0  0  0  0  0  0  0  0  0  0
    5.9920   -3.9947    2.1449 H   0  0  0  0  0  0  0  0  0  0  0  0
    5.5671   -0.4491    3.2539 H   0  0  0  0  0  0  0  0  0  0  0  0
    5.4973    0.1095    1.6158 H   0  0  0  0  0  0  0  0  0  0  0  0
    3.4448    1.3005    1.4087 H   0  0  0  0  0  0  0  0  0  0  0  0
    3.6957    1.4211    3.1412 H   0  0  0  0  0  0  0  0  0  0  0  0
    2.1111    0.9850    2.5117 H   0  0  0  0  0  0  0  0  0  0  0  0
    1.8328   -1.6383    1.5546 H   0  0  0  0  0  0  0  0  0  0  0  0
    2.6018   -0.6455    0.4809 H   0  0  0  0  0  0  0  0  0  0  0  0
    4.2364   -0.0867   -0.7668 H   0  0  0  0  0  0  0  0  0  0  0  0
    4.0378   -0.6147   -3.2429 H   0  0  0  0  0  0  0  0  0  0  0  0
    3.5908   -3.2310   -3.2287 H   0  0  0  0  0  0  0  0  0  0  0  0
    5.3259   -2.9138   -3.4529 H   0  0  0  0  0  0  0  0  0  0  0  0
    5.7394   -3.8736   -1.3997 H   0  0  0  0  0  0  0  0  0  0  0  0
    4.0584   -4.1993   -1.3476 H   0  0  0  0  0  0  0  0  0  0  0  0
    6.4818   -1.1908    0.0457 H   0  0  0  0  0  0  0  0  0  0  0  0
    6.6481   -2.9013    0.2714 H   0  0  0  0  0  0  0  0  0  0  0  0
    0.2709   -6.1998    4.6734 H   0  0  0  0  0  0  0  0  0  0  0  0
   -0.9304   -5.3318    6.7021 H   0  0  0  0  0  0  0  0  0  0  0  0
   -0.4620   -3.0090    7.5032 H   0  0  0  0  0  0  0  0  0  0  0  0
    1.1626   -1.5769    6.2779 H   0  0  0  0  0  0  0  0  0  0  0  0
    2.7942   -3.0282    0.1634 H   0  0  0  0  0  0  0  0  0  0  0  0
  1  2  1  0
  1 28  1  0
  1 29  1  0
  1 30  1  0
  3  2  1  6
  2 31  1  0
  2 32  1  0
  3 10  1  0
  3 20  1  0
  3  4  1  0
  4  5  1  0
  4 33  1  0
  4 34  1  0
  5 16  1  0
  5  6  1  0
  6  7  1  0
  6 35  1  0
  6 36  1  0
  7  8  1  1
  7  9  1  0
  7 17  1  0
  8 37  1  0
  8 38  1  0
  8 39  1  0
  9 10  1  0
  9 40  1  0
  9 41  1  0
 10 11  1  0
 10 54  1  6
 11 15  1  6
 11 12  1  0
 11 16  1  0
 12 13  2  0
 12 42  1  0
 13 14  1  0
 13 43  1  0
 14 15  1  0
 14 44  1  0
 14 45  1  0
 15 46  1  0
 15 47  1  0
 16 48  1  0
 16 49  1  0
 17 18  2  0
 17 19  1  0
 19 27  1  0
 19 20  2  0
 20 21  1  0
 21 22  1  0
 22 27  2  0
 22 23  1  0
 23 24  2  0
 23 50  1  0
 24 25  1  0
 24 51  1  0
 25 26  2  0
 25 52  1  0
 26 27  1  0
 26 53  1  0
M  CHG  1  10   1
M  END
>  <i_m_ct_stereo_status>  (335) 
1

>  <s_m_source_file>  (335) 
/var/tmp/pbs.5076255.sched01/tmpyj7ipo08/120az4jmrmy.sdf

>  <i_m_source_file_index>  (335) 
14

>  <i_lp_mmshare_version>  (335) 
48012

>  <i_f3d_flags>  (335) 
0

>  <s_epik_input>  (335) 
W0NIMl0xW0NIMl1bQ0hdPVtDSF1bQ0BAXTEyTjNbQ0BdNChbQ0gyXVtDSDNdKWM1YyhDKD1PKVtDQF0oW0NIM10pKFtDSDJdMylbQ0gyXU4oW0NIMl00KVtDSDJdMiljNmMobzUpW2NIXVtjSF1bY0hdW2NIXTY=

>  <s_epik_cmdline>  (335) 
J2VwaWtfcHl0aG9uJywgJy1waHQnLCAnMi4wJywgJy1waCcsICc3LjAnLCAnLXRuJywgJzgnLCAnLW1hJywgJzIwMCcsICctaW1hZScsICc8aW5maWxlLm1hZT4nLCAnLW9tYWUnLCAnPG91dGZpbGUubWFlPic=

>  <r_epik_Ionization_Penalty>  (335) 
0.0778638

>  <r_epik_Ionization_Penalty_Charging>  (335) 
0.0737539

>  <r_epik_Ionization_Penalty_Neutral>  (335) 
0.00410991

>  <r_epik_State_Penalty>  (335) 
0.781243

>  <r_epik_Charging_Adjusted_Penalty>  (335) 
0.854997

>  <i_epik_Tot_Q>  (335) 
1

>  <i_epik_Tot_abs_Q>  (335) 
1

>  <s_lp_Force_Field>  (335) 
OPLS3e

>  <r_lp_Energy>  (335) 
55.4133

>  <b_lp_Chiralities_Consistent>  (335) 
1

>  <s_lp_Variant>  (335) 
98:0-2

>  <s_i_glide_gridfile>  (335) 
pfpi4k_grid

>  <i_i_glide_lignum>  (335) 
14

>  <i_i_glide_rotatable_bonds>  (335) 
1

>  <r_i_docking_score>  (335) 
-2.96562

>  <r_i_glide_ligand_efficiency>  (335) 
-0.109838

>  <r_i_glide_ligand_efficiency_sa>  (335) 
-0.329513

>  <r_i_glide_ligand_efficiency_ln>  (335) 
-0.690346

>  <r_i_glide_gscore>  (335) 
-2.96562

>  <r_i_glide_lipo>  (335) 
-0.473236

>  <r_i_glide_hbond>  (335) 
0

>  <r_i_glide_metal>  (335) 
-0

>  <r_i_glide_rewards>  (335) 
-0.931016

>  <r_i_glide_evdw>  (335) 
-22.8961

>  <r_i_glide_ecoul>  (335) 
-2.64304

>  <r_i_glide_erotb>  (335) 
0

>  <r_i_glide_esite>  (335) 
-0.0201049

>  <r_i_glide_emodel>  (335) 
-30.0666

>  <r_i_glide_energy>  (335) 
-25.5391

>  <r_i_glide_einternal>  (335) 
1.13486

>  <r_i_glide_intrahb_reward>  (335) 
-0

>  <i_i_glide_confnum>  (335) 
1

>  <i_i_glide_posenum>  (335) 
27

>  <r_i_glide_eff_state_penalty>  (335) 
0

>  <ligand_id>  (335) 
98

>  <original_smiles>  (335) 
CCC12CN3CC(C)(CN1C1(C=CCC1)C3)C(=O)c1c2oc2ccccc12

>  <smiles>  (335) 
[H]C1=C([H])C2(C([H])([H])N3C([H])([H])C4(C([H])([H])[H])C(=O)c5c(oc6c([H])c([H])c([H])c([H])c56)C(C([H])([H])C([H])([H])[H])(C3([H])[H])[N+]2([H])C4([H])[H])C([H])([H])C1([H])[H]

$$$$
98:2:0
     RDKit          3D

 53 58  0  0  1  0  0  0  0  0999 V2000
    1.5243   -5.5922   -0.1241 C   0  0  0  0  0  0  0  0  0  0  0  0
    1.9978   -4.2198   -0.6587 C   0  0  0  0  0  0  0  0  0  0  0  0
    3.2693   -3.5401   -0.0177 C   0  0  1  0  0  0  0  0  0  0  0  0
    4.4930   -4.5062   -0.2134 C   0  0  0  0  0  0  0  0  0  0  0  0
    5.7340   -3.8677   -0.6812 N   0  0  0  0  0  0  0  0  0  0  0  0
    6.3898   -2.9821    0.2846 C   0  0  0  0  0  0  0  0  0  0  0  0
    5.5741   -1.8503    0.9750 C   0  0  1  0  0  0  0  0  0  0  0  0
    6.5228   -0.6777    1.2068 C   0  0  0  0  0  0  0  0  0  0  0  0
    4.3457   -1.2892    0.2149 C   0  0  0  0  0  0  0  0  0  0  0  0
    3.5888   -2.2124   -0.6655 N   0  0  0  0  0  0  0  0  0  0  0  0
    4.2202   -2.3180   -2.0163 C   0  0  2  0  0  0  0  0  0  0  0  0
    4.5934   -0.9609   -2.6039 C   0  0  0  0  0  0  0  0  0  0  0  0
    3.9824   -0.6610   -3.7475 C   0  0  0  0  0  0  0  0  0  0  0  0
    3.0980   -1.7756   -4.1818 C   0  0  0  0  0  0  0  0  0  0  0  0
    3.2319   -2.8061   -3.0930 C   0  0  0  0  0  0  0  0  0  0  0  0
    5.5063   -3.2151   -1.9658 C   0  0  0  0  0  0  0  0  0  0  0  0
    5.1078   -2.3484    2.3482 C   0  0  0  0  0  0  0  0  0  0  0  0
    5.7909   -2.1631    3.3299 O   0  0  0  0  0  0  0  0  0  0  0  0
    3.8145   -2.9197    2.5232 C   0  0  0  0  0  0  0  0  0  0  0  0
    3.0345   -3.3751    1.5089 C   0  0  0  0  0  0  0  0  0  0  0  0
    1.8417   -3.7525    1.9854 O   0  0  0  0  0  0  0  0  0  0  0  0
    1.8542   -3.6942    3.3482 C   0  0  0  0  0  0  0  0  0  0  0  0
    0.8699   -4.1074    4.2551 C   0  0  0  0  0  0  0  0  0  0  0  0
    1.0819   -3.9098    5.6338 C   0  0  0  0  0  0  0  0  0  0  0  0
    2.2901   -3.3328    6.0673 C   0  0  0  0  0  0  0  0  0  0  0  0
    3.2871   -2.9770    5.1416 C   0  0  0  0  0  0  0  0  0  0  0  0
    3.0938   -3.1526    3.7498 C   0  0  0  0  0  0  0  0  0  0  0  0
    0.6301   -5.9141   -0.6947 H   0  0  0  0  0  0  0  0  0  0  0  0
    1.3218   -5.7548    0.9509 H   0  0  0  0  0  0  0  0  0  0  0  0
    2.3902   -6.2498   -0.3235 H   0  0  0  0  0  0  0  0  0  0  0  0
    2.1441   -4.4903   -1.6854 H   0  0  0  0  0  0  0  0  0  0  0  0
    1.2033   -3.4948   -0.7216 H   0  0  0  0  0  0  0  0  0  0  0  0
    4.6712   -5.0871    0.6996 H   0  0  0  0  0  0  0  0  0  0  0  0
    4.2258   -5.2366   -0.9731 H   0  0  0  0  0  0  0  0  0  0  0  0
    6.8216   -3.6218    1.0556 H   0  0  0  0  0  0  0  0  0  0  0  0
    7.2613   -2.5448   -0.2005 H   0  0  0  0  0  0  0  0  0  0  0  0
    6.8609   -0.2665    0.2587 H   0  0  0  0  0  0  0  0  0  0  0  0
    7.4080   -1.0017    1.7403 H   0  0  0  0  0  0  0  0  0  0  0  0
    6.0476    0.1083    1.7868 H   0  0  0  0  0  0  0  0  0  0  0  0
    3.6405   -0.8946    0.9512 H   0  0  0  0  0  0  0  0  0  0  0  0
    4.6099   -0.3607   -0.2822 H   0  0  0  0  0  0  0  0  0  0  0  0
    5.3475   -0.3300   -2.1968 H   0  0  0  0  0  0  0  0  0  0  0  0
    4.1297    0.2204   -4.3596 H   0  0  0  0  0  0  0  0  0  0  0  0
    2.0619   -1.4481   -4.2516 H   0  0  0  0  0  0  0  0  0  0  0  0
    3.3872   -2.2001   -5.1386 H   0  0  0  0  0  0  0  0  0  0  0  0
    3.4407   -3.7948   -3.4847 H   0  0  0  0  0  0  0  0  0  0  0  0
    2.2119   -2.7617   -2.7244 H   0  0  0  0  0  0  0  0  0  0  0  0
    6.4067   -2.6594   -2.2457 H   0  0  0  0  0  0  0  0  0  0  0  0
    5.4597   -3.9936   -2.7222 H   0  0  0  0  0  0  0  0  0  0  0  0
   -0.0383   -4.5444    3.9037 H   0  0  0  0  0  0  0  0  0  0  0  0
    0.3025   -4.1903    6.3490 H   0  0  0  0  0  0  0  0  0  0  0  0
    2.4700   -3.1643    7.1102 H   0  0  0  0  0  0  0  0  0  0  0  0
    4.2195   -2.5319    5.4480 H   0  0  0  0  0  0  0  0  0  0  0  0
  1  2  1  0
  1 28  1  0
  1 29  1  0
  1 30  1  0
  3  2  1  6
  2 31  1  0
  2 32  1  0
  3 10  1  0
  3 20  1  0
  3  4  1  0
  4  5  1  0
  4 33  1  0
  4 34  1  0
  5 16  1  0
  5  6  1  0
  6  7  1  0
  6 35  1  0
  6 36  1  0
  7  8  1  1
  7  9  1  0
  7 17  1  0
  8 37  1  0
  8 38  1  0
  8 39  1  0
  9 10  1  0
  9 40  1  0
  9 41  1  0
 10 11  1  0
 11 15  1  6
 11 12  1  0
 11 16  1  0
 12 13  2  0
 12 42  1  0
 13 14  1  0
 13 43  1  0
 14 15  1  0
 14 44  1  0
 14 45  1  0
 15 46  1  0
 15 47  1  0
 16 48  1  0
 16 49  1  0
 17 18  2  0
 17 19  1  0
 19 27  1  0
 19 20  2  0
 20 21  1  0
 21 22  1  0
 22 27  2  0
 22 23  1  0
 23 24  2  0
 23 50  1  0
 24 25  1  0
 24 51  1  0
 25 26  2  0
 25 52  1  0
 26 27  1  0
 26 53  1  0
M  END
>  <i_m_ct_stereo_status>  (336) 
1

>  <s_m_source_file>  (336) 
/var/tmp/pbs.5076255.sched01/tmpyj7ipo08/120az4jmrmy.sdf

>  <i_m_source_file_index>  (336) 
15

>  <i_lp_mmshare_version>  (336) 
48012

>  <i_f3d_flags>  (336) 
0

>  <s_epik_input>  (336) 
W0NIMl0xW0NIMl1bQ0hdPVtDSF1bQ0BAXTEyTjNbQ0BdNChbQ0gyXVtDSDNdKWM1YyhDKD1PKVtDQF0oW0NIM10pKFtDSDJdMylbQ0gyXU4oW0NIMl00KVtDSDJdMiljNmMobzUpW2NIXVtjSF1bY0hdW2NIXTY=

>  <s_epik_cmdline>  (336) 
J2VwaWtfcHl0aG9uJywgJy1waHQnLCAnMi4wJywgJy1waCcsICc3LjAnLCAnLXRuJywgJzgnLCAnLW1hJywgJzIwMCcsICctaW1hZScsICc8aW5maWxlLm1hZT4nLCAnLW9tYWUnLCAnPG91dGZpbGUubWFlPic=

>  <r_epik_Ionization_Penalty>  (336) 
3.03453

>  <r_epik_Ionization_Penalty_Charging>  (336) 
0

>  <r_epik_Ionization_Penalty_Neutral>  (336) 
3.03453

>  <r_epik_State_Penalty>  (336) 
2.05879

>  <r_epik_Charging_Adjusted_Penalty>  (336) 
2.05879

>  <i_epik_Tot_Q>  (336) 
0

>  <i_epik_Tot_abs_Q>  (336) 
0

>  <s_lp_Force_Field>  (336) 
OPLS3e

>  <r_lp_Energy>  (336) 
65.2148

>  <b_lp_Chiralities_Consistent>  (336) 
1

>  <s_lp_Variant>  (336) 
98:0-3

>  <s_i_glide_gridfile>  (336) 
pfpi4k_grid

>  <i_i_glide_lignum>  (336) 
15

>  <i_i_glide_rotatable_bonds>  (336) 
1

>  <r_i_docking_score>  (336) 
-2.12648

>  <r_i_glide_ligand_efficiency>  (336) 
-0.0787586

>  <r_i_glide_ligand_efficiency_sa>  (336) 
-0.236276

>  <r_i_glide_ligand_efficiency_ln>  (336) 
-0.49501

>  <r_i_glide_gscore>  (336) 
-2.12648

>  <r_i_glide_lipo>  (336) 
-0.635708

>  <r_i_glide_hbond>  (336) 
0

>  <r_i_glide_metal>  (336) 
-0

>  <r_i_glide_rewards>  (336) 
-1.02517

>  <r_i_glide_evdw>  (336) 
-12.8019

>  <r_i_glide_ecoul>  (336) 
1.16328

>  <r_i_glide_erotb>  (336) 
0

>  <r_i_glide_esite>  (336) 
0

>  <r_i_glide_emodel>  (336) 
-6.7238

>  <r_i_glide_energy>  (336) 
-11.6386

>  <r_i_glide_einternal>  (336) 
6.19561

>  <r_i_glide_intrahb_reward>  (336) 
-0

>  <i_i_glide_confnum>  (336) 
1

>  <i_i_glide_posenum>  (336) 
12

>  <r_i_glide_eff_state_penalty>  (336) 
0

>  <ligand_id>  (336) 
98

>  <original_smiles>  (336) 
CCC12CN3CC(C)(CN1C1(C=CCC1)C3)C(=O)c1c2oc2ccccc12

>  <smiles>  (336) 
[H]C1=C([H])C2(N3C([H])([H])C4(C([H])([H])[H])C(=O)c5c(oc6c([H])c([H])c([H])c([H])c56)C3(C([H])([H])C([H])([H])[H])C([H])([H])N(C2([H])[H])C4([H])[H])C([H])([H])C1([H])[H]

$$$$
98:2:1
     RDKit          3D

 53 58  0  0  1  0  0  0  0  0999 V2000
   -1.9601   -0.0805    5.6880 C   0  0  0  0  0  0  0  0  0  0  0  0
   -0.7235   -0.1205    4.7822 C   0  0  0  0  0  0  0  0  0  0  0  0
    0.1579    1.1973    4.6636 C   0  0  1  0  0  0  0  0  0  0  0  0
    0.4566    1.7248    6.0991 C   0  0  0  0  0  0  0  0  0  0  0  0
    1.8391    2.1410    6.3384 N   0  0  0  0  0  0  0  0  0  0  0  0
    2.2781    3.3541    5.6486 C   0  0  0  0  0  0  0  0  0  0  0  0
    2.0707    3.5035    4.1050 C   0  0  1  0  0  0  0  0  0  0  0  0
    3.2574    4.3293    3.5643 C   0  0  0  0  0  0  0  0  0  0  0  0
    2.0287    2.1742    3.2873 C   0  0  0  0  0  0  0  0  0  0  0  0
    1.4627    0.9676    3.9377 N   0  0  0  0  0  0  0  0  0  0  0  0
    2.5067    0.2668    4.7782 C   0  0  2  0  0  0  0  0  0  0  0  0
    3.8454    0.0878    4.0729 C   0  0  0  0  0  0  0  0  0  0  0  0
    4.2178   -1.1817    3.9016 C   0  0  0  0  0  0  0  0  0  0  0  0
    3.2296   -2.1480    4.4600 C   0  0  0  0  0  0  0  0  0  0  0  0
    2.1633   -1.2266    5.0228 C   0  0  0  0  0  0  0  0  0  0  0  0
    2.7440    1.0185    6.1225 C   0  0  0  0  0  0  0  0  0  0  0  0
    0.7813    4.3085    3.8646 C   0  0  0  0  0  0  0  0  0  0  0  0
    0.8350    5.5371    3.8432 O   0  0  0  0  0  0  0  0  0  0  0  0
   -0.4554    3.5892    3.6548 C   0  0  0  0  0  0  0  0  0  0  0  0
   -0.6822    2.2542    3.9541 C   0  0  0  0  0  0  0  0  0  0  0  0
   -1.9243    1.8923    3.5185 O   0  0  0  0  0  0  0  0  0  0  0  0
   -2.5542    3.0142    3.0322 C   0  0  0  0  0  0  0  0  0  0  0  0
   -3.8614    3.1380    2.5433 C   0  0  0  0  0  0  0  0  0  0  0  0
   -4.3385    4.3758    2.0579 C   0  0  0  0  0  0  0  0  0  0  0  0
   -3.4530    5.4629    2.0706 C   0  0  0  0  0  0  0  0  0  0  0  0
   -2.1240    5.3177    2.5086 C   0  0  0  0  0  0  0  0  0  0  0  0
   -1.6645    4.0998    3.0685 C   0  0  0  0  0  0  0  0  0  0  0  0
   -2.5014   -1.0340    5.6112 H   0  0  0  0  0  0  0  0  0  0  0  0
   -2.5932    0.7308    5.4482 H   0  0  0  0  0  0  0  0  0  0  0  0
   -1.6538    0.0503    6.7319 H   0  0  0  0  0  0  0  0  0  0  0  0
   -0.2741   -0.9496    5.3378 H   0  0  0  0  0  0  0  0  0  0  0  0
   -0.9798   -0.4863    3.7832 H   0  0  0  0  0  0  0  0  0  0  0  0
   -0.2376    2.5245    6.3577 H   0  0  0  0  0  0  0  0  0  0  0  0
    0.2612    0.9267    6.8121 H   0  0  0  0  0  0  0  0  0  0  0  0
    1.7795    4.1884    6.1456 H   0  0  0  0  0  0  0  0  0  0  0  0
    3.3296    3.5077    5.8877 H   0  0  0  0  0  0  0  0  0  0  0  0
    4.1782    3.7765    3.7176 H   0  0  0  0  0  0  0  0  0  0  0  0
    3.3747    5.2852    4.0747 H   0  0  0  0  0  0  0  0  0  0  0  0
    3.1668    4.5324    2.4968 H   0  0  0  0  0  0  0  0  0  0  0  0
    1.4283    2.3440    2.3903 H   0  0  0  0  0  0  0  0  0  0  0  0
    2.9930    1.9789    2.8233 H   0  0  0  0  0  0  0  0  0  0  0  0
    4.4880    0.9150    3.8046 H   0  0  0  0  0  0  0  0  0  0  0  0
    5.1210   -1.5380    3.4280 H   0  0  0  0  0  0  0  0  0  0  0  0
    2.7777   -2.7403    3.6544 H   0  0  0  0  0  0  0  0  0  0  0  0
    3.6182   -2.8145    5.2284 H   0  0  0  0  0  0  0  0  0  0  0  0
    1.8921   -1.4504    6.0560 H   0  0  0  0  0  0  0  0  0  0  0  0
    1.3745   -1.5251    4.3427 H   0  0  0  0  0  0  0  0  0  0  0  0
    3.7782    1.3707    6.2164 H   0  0  0  0  0  0  0  0  0  0  0  0
    2.6449    0.3377    6.9718 H   0  0  0  0  0  0  0  0  0  0  0  0
   -4.5127    2.2857    2.5197 H   0  0  0  0  0  0  0  0  0  0  0  0
   -5.3389    4.4523    1.6769 H   0  0  0  0  0  0  0  0  0  0  0  0
   -3.7931    6.4337    1.6852 H   0  0  0  0  0  0  0  0  0  0  0  0
   -1.4307    6.1434    2.4693 H   0  0  0  0  0  0  0  0  0  0  0  0
  1  2  1  0
  1 28  1  0
  1 29  1  0
  1 30  1  0
  3  2  1  1
  2 31  1  0
  2 32  1  0
  3 10  1  0
  3 20  1  0
  3  4  1  0
  4  5  1  0
  4 33  1  0
  4 34  1  0
  5 16  1  0
  5  6  1  0
  6  7  1  0
  6 35  1  0
  6 36  1  0
  7  8  1  6
  7  9  1  0
  7 17  1  0
  8 37  1  0
  8 38  1  0
  8 39  1  0
  9 10  1  0
  9 40  1  0
  9 41  1  0
 10 11  1  0
 11 15  1  1
 11 12  1  0
 11 16  1  0
 12 13  2  0
 12 42  1  0
 13 14  1  0
 13 43  1  0
 14 15  1  0
 14 44  1  0
 14 45  1  0
 15 46  1  0
 15 47  1  0
 16 48  1  0
 16 49  1  0
 17 18  2  0
 17 19  1  0
 19 27  1  0
 19 20  2  0
 20 21  1  0
 21 22  1  0
 22 27  2  0
 22 23  1  0
 23 24  2  0
 23 50  1  0
 24 25  1  0
 24 51  1  0
 25 26  2  0
 25 52  1  0
 26 27  1  0
 26 53  1  0
M  END
>  <i_m_ct_stereo_status>  (337) 
1

>  <s_m_source_file>  (337) 
/var/tmp/pbs.5076255.sched01/tmpyj7ipo08/120az4jmrmy.sdf

>  <i_m_source_file_index>  (337) 
15

>  <i_lp_mmshare_version>  (337) 
48012

>  <i_f3d_flags>  (337) 
0

>  <s_epik_input>  (337) 
W0NIMl0xW0NIMl1bQ0hdPVtDSF1bQ0BAXTEyTjNbQ0BdNChbQ0gyXVtDSDNdKWM1YyhDKD1PKVtDQF0oW0NIM10pKFtDSDJdMylbQ0gyXU4oW0NIMl00KVtDSDJdMiljNmMobzUpW2NIXVtjSF1bY0hdW2NIXTY=

>  <s_epik_cmdline>  (337) 
J2VwaWtfcHl0aG9uJywgJy1waHQnLCAnMi4wJywgJy1waCcsICc3LjAnLCAnLXRuJywgJzgnLCAnLW1hJywgJzIwMCcsICctaW1hZScsICc8aW5maWxlLm1hZT4nLCAnLW9tYWUnLCAnPG91dGZpbGUubWFlPic=

>  <r_epik_Ionization_Penalty>  (337) 
3.03453

>  <r_epik_Ionization_Penalty_Charging>  (337) 
0

>  <r_epik_Ionization_Penalty_Neutral>  (337) 
3.03453

>  <r_epik_State_Penalty>  (337) 
2.05879

>  <r_epik_Charging_Adjusted_Penalty>  (337) 
2.05879

>  <i_epik_Tot_Q>  (337) 
0

>  <i_epik_Tot_abs_Q>  (337) 
0

>  <s_lp_Force_Field>  (337) 
OPLS3e

>  <r_lp_Energy>  (337) 
65.2148

>  <b_lp_Chiralities_Consistent>  (337) 
1

>  <s_lp_Variant>  (337) 
98:0-3

>  <s_i_glide_gridfile>  (337) 
pfpi4k_grid

>  <i_i_glide_lignum>  (337) 
15

>  <i_i_glide_rotatable_bonds>  (337) 
1

>  <r_i_docking_score>  (337) 
-1.81407

>  <r_i_glide_ligand_efficiency>  (337) 
-0.0671877

>  <r_i_glide_ligand_efficiency_sa>  (337) 
-0.201563

>  <r_i_glide_ligand_efficiency_ln>  (337) 
-0.422285

>  <r_i_glide_gscore>  (337) 
-1.81407

>  <r_i_glide_lipo>  (337) 
-0.123175

>  <r_i_glide_hbond>  (337) 
0

>  <r_i_glide_metal>  (337) 
-0

>  <r_i_glide_rewards>  (337) 
-0.93774

>  <r_i_glide_evdw>  (337) 
-8.57253

>  <r_i_glide_ecoul>  (337) 
-1.66159

>  <r_i_glide_erotb>  (337) 
0

>  <r_i_glide_esite>  (337) 
-0.0752883

>  <r_i_glide_emodel>  (337) 
-6.66452

>  <r_i_glide_energy>  (337) 
-10.2341

>  <r_i_glide_einternal>  (337) 
3.58247

>  <r_i_glide_intrahb_reward>  (337) 
-0

>  <i_i_glide_confnum>  (337) 
1

>  <i_i_glide_posenum>  (337) 
14

>  <r_i_glide_eff_state_penalty>  (337) 
0

>  <ligand_id>  (337) 
98

>  <original_smiles>  (337) 
CCC12CN3CC(C)(CN1C1(C=CCC1)C3)C(=O)c1c2oc2ccccc12

>  <smiles>  (337) 
[H]C1=C([H])C2(N3C([H])([H])C4(C([H])([H])[H])C(=O)c5c(oc6c([H])c([H])c([H])c([H])c56)C3(C([H])([H])C([H])([H])[H])C([H])([H])N(C2([H])[H])C4([H])[H])C([H])([H])C1([H])[H]

$$$$
99:0:0
     RDKit          3D

 94 99  0  0  1  0  0  0  0  0999 V2000
    0.6543  -10.1372    5.6773 C   0  0  0  0  0  0  0  0  0  0  0  0
    1.1005   -9.2582    4.4935 C   0  0  2  0  0  0  0  0  0  0  0  0
    2.3368   -9.8726    3.8226 C   0  0  0  0  0  0  0  0  0  0  0  0
    2.6875   -9.1177    2.5373 C   0  0  0  0  0  0  0  0  0  0  0  0
    2.9466   -7.6012    2.7389 C   0  0  2  0  0  0  0  0  0  0  0  0
    2.8966   -6.9701    1.3249 C   0  0  0  0  0  0  0  0  0  0  0  0
    4.3443   -7.3364    3.3461 C   0  0  0  0  0  0  0  0  0  0  0  0
    4.6278   -5.8378    3.6531 C   0  0  0  0  0  0  0  0  0  0  0  0
    3.5568   -5.1307    4.5576 C   0  0  2  0  0  0  0  0  0  0  0  0
    3.6551   -5.7596    5.9797 C   0  0  0  0  0  0  0  0  0  0  0  0
    2.2077   -5.4783    3.8962 C   0  0  0  0  0  0  0  0  0  0  0  0
    1.4639   -4.5477    3.2877 C   0  0  0  0  0  0  0  0  0  0  0  0
    1.8311   -3.1072    3.0843 C   0  0  0  0  0  0  0  0  0  0  0  0
    3.2634   -2.7008    3.4688 C   0  0  1  0  0  0  0  0  0  0  0  0
    3.3493   -1.1046    3.5524 C   0  0  1  0  0  0  0  0  0  0  0  0
    4.8492   -0.6799    3.4181 C   0  0  0  0  0  0  0  0  0  0  0  0
    2.6872   -0.4277    2.2985 C   0  0  0  0  0  0  0  0  0  0  0  0
    1.2714    0.1481    2.4760 C   0  0  0  0  0  0  0  0  0  0  0  0
    1.1638    1.1027    3.6859 C   0  0  1  0  0  0  0  0  0  0  0  0
    2.2335    2.2249    3.5480 C   0  0  0  0  0  0  0  0  0  0  0  0
   -0.1752    1.9016    3.6406 C   0  0  0  0  0  0  0  0  0  0  0  0
   -1.3703    1.2842    4.3453 C   0  0  0  0  0  0  0  0  0  0  0  0
   -0.9805    0.8726    5.7618 C   0  0  1  0  0  0  0  0  0  0  0  0
   -2.1749    0.5546    6.4687 O   0  0  0  0  0  0  0  0  0  0  0  0
    0.0886   -0.2661    5.7686 C   0  0  0  0  0  0  0  0  0  0  0  0
    0.3729   -0.5603    7.2664 C   0  0  0  0  0  0  0  0  0  0  0  0
   -0.5703   -1.5345    5.1747 C   0  0  0  0  0  0  0  0  0  0  0  0
    1.4017    0.2787    5.0138 C   0  0  1  0  0  0  0  0  0  0  0  0
    2.7825   -0.5360    4.9266 C   0  0  1  0  0  0  0  0  0  0  0  0
    3.2335   -1.4048    6.1216 C   0  0  0  0  0  0  0  0  0  0  0  0
    3.0457   -2.9275    5.9430 C   0  0  0  0  0  0  0  0  0  0  0  0
    3.7886   -3.5349    4.7080 C   0  0  1  0  0  0  0  0  0  0  0  0
    5.3263   -3.3518    4.8986 C   0  0  0  0  0  0  0  0  0  0  0  0
    1.8476   -6.9589    3.6383 C   0  0  2  0  0  0  0  0  0  0  0  0
    1.4060   -7.7900    4.8868 C   0  0  1  0  0  0  0  0  0  0  0  0
    0.2149   -7.1242    5.6062 C   0  0  0  0  0  0  0  0  0  0  0  0
    1.3849  -10.1327    6.4883 H   0  0  0  0  0  0  0  0  0  0  0  0
    0.5238  -11.1757    5.3607 H   0  0  0  0  0  0  0  0  0  0  0  0
   -0.3081   -9.8189    6.0809 H   0  0  0  0  0  0  0  0  0  0  0  0
    0.2850   -9.2692    3.7691 H   0  0  0  0  0  0  0  0  0  0  0  0
    3.1845   -9.8742    4.5070 H   0  0  0  0  0  0  0  0  0  0  0  0
    2.1514  -10.9196    3.5773 H   0  0  0  0  0  0  0  0  0  0  0  0
    3.5493   -9.5888    2.0628 H   0  0  0  0  0  0  0  0  0  0  0  0
    1.8576   -9.2593    1.8442 H   0  0  0  0  0  0  0  0  0  0  0  0
    3.0593   -5.8933    1.3263 H   0  0  0  0  0  0  0  0  0  0  0  0
    1.9217   -7.1390    0.8694 H   0  0  0  0  0  0  0  0  0  0  0  0
    3.6523   -7.4078    0.6707 H   0  0  0  0  0  0  0  0  0  0  0  0
    4.4651   -7.9326    4.2497 H   0  0  0  0  0  0  0  0  0  0  0  0
    5.1125   -7.7078    2.6669 H   0  0  0  0  0  0  0  0  0  0  0  0
    5.6187   -5.8015    4.1036 H   0  0  0  0  0  0  0  0  0  0  0  0
    4.7188   -5.2944    2.7119 H   0  0  0  0  0  0  0  0  0  0  0  0
    4.4239   -5.3044    6.5990 H   0  0  0  0  0  0  0  0  0  0  0  0
    3.9360   -6.8071    5.9746 H   0  0  0  0  0  0  0  0  0  0  0  0
    2.7158   -5.6640    6.5240 H   0  0  0  0  0  0  0  0  0  0  0  0
    0.5669   -4.8489    2.7820 H   0  0  0  0  0  0  0  0  0  0  0  0
    1.6791   -2.9148    2.0249 H   0  0  0  0  0  0  0  0  0  0  0  0
    1.1168   -2.5038    3.6098 H   0  0  0  0  0  0  0  0  0  0  0  0
    3.8744   -3.0113    2.6206 H   0  0  0  0  0  0  0  0  0  0  0  0
    4.9735    0.3669    3.1410 H   0  0  0  0  0  0  0  0  0  0  0  0
    5.3717   -1.2650    2.6595 H   0  0  0  0  0  0  0  0  0  0  0  0
    5.4089   -0.7450    4.3427 H   0  0  0  0  0  0  0  0  0  0  0  0
    3.2858    0.4040    1.9278 H   0  0  0  0  0  0  0  0  0  0  0  0
    2.7065   -1.1008    1.4434 H   0  0  0  0  0  0  0  0  0  0  0  0
    1.0129    0.6785    1.5585 H   0  0  0  0  0  0  0  0  0  0  0  0
    0.5408   -0.6490    2.5354 H   0  0  0  0  0  0  0  0  0  0  0  0
    2.1522    2.9559    4.3556 H   0  0  0  0  0  0  0  0  0  0  0  0
    2.1163    2.7681    2.6064 H   0  0  0  0  0  0  0  0  0  0  0  0
    3.2601    1.8700    3.5795 H   0  0  0  0  0  0  0  0  0  0  0  0
   -0.0391    2.8827    4.0983 H   0  0  0  0  0  0  0  0  0  0  0  0
   -0.4474    2.1207    2.6066 H   0  0  0  0  0  0  0  0  0  0  0  0
   -2.1696    2.0249    4.3742 H   0  0  0  0  0  0  0  0  0  0  0  0
   -1.7690    0.4530    3.7701 H   0  0  0  0  0  0  0  0  0  0  0  0
   -0.5605    1.7490    6.2598 H   0  0  0  0  0  0  0  0  0  0  0  0
   -2.7392    1.3140    6.4178 H   0  0  0  0  0  0  0  0  0  0  0  0
    0.8276   -1.5407    7.4065 H   0  0  0  0  0  0  0  0  0  0  0  0
   -0.5302   -0.5955    7.8719 H   0  0  0  0  0  0  0  0  0  0  0  0
    1.0135    0.2034    7.7129 H   0  0  0  0  0  0  0  0  0  0  0  0
    0.0083   -2.4298    5.3794 H   0  0  0  0  0  0  0  0  0  0  0  0
   -0.7396   -1.4638    4.1031 H   0  0  0  0  0  0  0  0  0  0  0  0
   -1.5448   -1.7298    5.6216 H   0  0  0  0  0  0  0  0  0  0  0  0
    1.6646    1.0738    5.7127 H   0  0  0  0  0  0  0  0  0  0  0  0
    3.4447    0.3145    5.0885 H   0  0  0  0  0  0  0  0  0  0  0  0
    4.2832   -1.1976    6.3066 H   0  0  0  0  0  0  0  0  0  0  0  0
    2.8142   -1.0621    7.0562 H   0  0  0  0  0  0  0  0  0  0  0  0
    3.3746   -3.3846    6.8725 H   0  0  0  0  0  0  0  0  0  0  0  0
    1.9863   -3.1587    5.8739 H   0  0  0  0  0  0  0  0  0  0  0  0
    5.6324   -2.4574    5.4236 H   0  0  0  0  0  0  0  0  0  0  0  0
    5.8142   -3.3469    3.9263 H   0  0  0  0  0  0  0  0  0  0  0  0
    5.7924   -4.1374    5.4891 H   0  0  0  0  0  0  0  0  0  0  0  0
    0.9477   -6.9593    3.0230 H   0  0  0  0  0  0  0  0  0  0  0  0
    2.2115   -7.8609    5.6041 H   0  0  0  0  0  0  0  0  0  0  0  0
   -0.6847   -7.1486    4.9932 H   0  0  0  0  0  0  0  0  0  0  0  0
    0.4230   -6.0832    5.8539 H   0  0  0  0  0  0  0  0  0  0  0  0
   -0.0065   -7.6241    6.5486 H   0  0  0  0  0  0  0  0  0  0  0  0
  1  2  1  0
  1 37  1  0
  1 38  1  0
  1 39  1  0
  2 35  1  0
  2  3  1  0
  2 40  1  6
  3  4  1  0
  3 41  1  0
  3 42  1  0
  4  5  1  0
  4 43  1  0
  4 44  1  0
  5 34  1  0
  5  6  1  6
  5  7  1  0
  6 45  1  0
  6 46  1  0
  6 47  1  0
  7  8  1  0
  7 48  1  0
  7 49  1  0
  8  9  1  0
  8 50  1  0
  8 51  1  0
  9 32  1  0
  9 10  1  1
  9 11  1  0
 10 52  1  0
 10 53  1  0
 10 54  1  0
 11 12  2  0
 11 34  1  0
 12 13  1  0
 12 55  1  0
 13 14  1  0
 13 56  1  0
 13 57  1  0
 14 32  1  0
 14 15  1  0
 14 58  1  6
 15 29  1  0
 15 16  1  1
 15 17  1  0
 16 59  1  0
 16 60  1  0
 16 61  1  0
 17 18  1  0
 17 62  1  0
 17 63  1  0
 18 19  1  0
 18 64  1  0
 18 65  1  0
 19 28  1  0
 19 20  1  6
 19 21  1  0
 20 66  1  0
 20 67  1  0
 20 68  1  0
 21 22  1  0
 21 69  1  0
 21 70  1  0
 22 23  1  0
 22 71  1  0
 22 72  1  0
 23 24  1  0
 23 25  1  0
 23 73  1  1
 24 74  1  0
 25 26  1  0
 25 27  1  0
 25 28  1  0
 26 75  1  0
 26 76  1  0
 26 77  1  0
 27 78  1  0
 27 79  1  0
 27 80  1  0
 28 29  1  0
 28 81  1  1
 29 30  1  0
 29 82  1  1
 30 31  1  0
 30 83  1  0
 30 84  1  0
 31 32  1  0
 31 85  1  0
 31 86  1  0
 32 33  1  1
 33 87  1  0
 33 88  1  0
 33 89  1  0
 34 35  1  0
 34 90  1  6
 35 36  1  0
 35 91  1  1
 36 92  1  0
 36 93  1  0
 36 94  1  0
M  END
>  <i_m_ct_stereo_status>  (338) 
1

>  <s_m_source_file>  (338) 
/var/tmp/pbs.5076255.sched01/tmpyj7ipo08/120az4jmrmy.sdf

>  <i_m_source_file_index>  (338) 
16

>  <i_lp_mmshare_version>  (338) 
48012

>  <i_f3d_flags>  (338) 
0

>  <s_epik_input>  (338) 
W0NIMl0xW0NIMl1bQ0BASF0oW0NIM10pW0NASF0oW0NIM10pW0NASF0oW0NAXTEyW0NIM10pQz0zW0NAQF0oW0NIM10pKFtDSDJdW0NIMl0yKVtDQEBdNChbQ0gzXSlbQ0BASF0oW0NIMl1bQ0hdMylbQ0BdNShbQ0gzXSlbQ0BIXShbQ0gyXVtDSDJdNClbQ0BIXTZbQ0BAXShbQ0gzXSkoW0NIMl1bQ0gyXTUpW0NIMl1bQ0gyXVtDQEBIXShbT0hdKUM2KFtDSDNdKVtDSDNd

>  <s_epik_cmdline>  (338) 
J2VwaWtfcHl0aG9uJywgJy1waHQnLCAnMi4wJywgJy1waCcsICc3LjAnLCAnLXRuJywgJzgnLCAnLW1hJywgJzIwMCcsICctaW1hZScsICc8aW5maWxlLm1hZT4nLCAnLW9tYWUnLCAnPG91dGZpbGUubWFlPic=

>  <r_lp_tautomer_probability>  (338) 
1

>  <r_epik_Ionization_Penalty>  (338) 
2.98408e-06

>  <r_epik_Ionization_Penalty_Charging>  (338) 
0

>  <r_epik_Ionization_Penalty_Neutral>  (338) 
2.98408e-06

>  <r_epik_State_Penalty>  (338) 
-0

>  <r_epik_Charging_Adjusted_Penalty>  (338) 
0

>  <i_epik_Tot_Q>  (338) 
0

>  <i_epik_Tot_abs_Q>  (338) 
0

>  <s_lp_Force_Field>  (338) 
OPLS3e

>  <r_lp_Energy>  (338) 
141.885

>  <b_lp_Chiralities_Consistent>  (338) 
1

>  <s_lp_Variant>  (338) 
99:0-1

>  <s_i_glide_gridfile>  (338) 
pfpi4k_grid

>  <i_i_glide_lignum>  (338) 
16

>  <i_i_glide_rotatable_bonds>  (338) 
1

>  <r_i_docking_score>  (338) 
-2.46011

>  <r_i_glide_ligand_efficiency>  (338) 
-0.0683364

>  <r_i_glide_ligand_efficiency_sa>  (338) 
-0.225642

>  <r_i_glide_ligand_efficiency_ln>  (338) 
-0.53673

>  <r_i_glide_gscore>  (338) 
-2.46011

>  <r_i_glide_lipo>  (338) 
-0.164588

>  <r_i_glide_hbond>  (338) 
-0.16

>  <r_i_glide_metal>  (338) 
-0

>  <r_i_glide_rewards>  (338) 
-0.0352199

>  <r_i_glide_evdw>  (338) 
-29.7079

>  <r_i_glide_ecoul>  (338) 
-4.09938

>  <r_i_glide_erotb>  (338) 
0

>  <r_i_glide_esite>  (338) 
0

>  <r_i_glide_emodel>  (338) 
-38.735

>  <r_i_glide_energy>  (338) 
-33.8073

>  <r_i_glide_einternal>  (338) 
0.339634

>  <r_i_glide_intrahb_reward>  (338) 
-0

>  <i_i_glide_confnum>  (338) 
2

>  <i_i_glide_posenum>  (338) 
8

>  <r_i_glide_eff_state_penalty>  (338) 
0

>  <ligand_id>  (338) 
99

>  <original_smiles>  (338) 
CC1CCC2(C)CCC3(C)C(=CCC4C5(C)CCC6(C)CCC(O)C(C)(C)C6C5CCC43C)C2C1C

>  <smiles>  (338) 
[H]OC1([H])C([H])([H])C([H])([H])C2(C([H])([H])[H])C([H])([H])C([H])([H])C3(C([H])([H])[H])C([H])(C([H])([H])C([H])([H])C4(C([H])([H])[H])C3([H])C([H])([H])C([H])=C3C5([H])C([H])(C([H])([H])[H])C([H])(C([H])([H])[H])C([H])([H])C([H])([H])C5(C([H])([H])[H])C([H])([H])C([H])([H])C34C([H])([H])[H])C2([H])C1(C([H])([H])[H])C([H])([H])[H]

$$$$
99:0:1
     RDKit          3D

 94 99  0  0  1  0  0  0  0  0999 V2000
    0.9167  -10.1592    5.1550 C   0  0  0  0  0  0  0  0  0  0  0  0
    1.4541   -9.2181    4.0576 C   0  0  2  0  0  0  0  0  0  0  0  0
    2.7588   -9.7823    3.4769 C   0  0  0  0  0  0  0  0  0  0  0  0
    3.2117   -8.9656    2.2653 C   0  0  0  0  0  0  0  0  0  0  0  0
    3.4224   -7.4549    2.5532 C   0  0  2  0  0  0  0  0  0  0  0  0
    3.4973   -6.7617    1.1689 C   0  0  0  0  0  0  0  0  0  0  0  0
    4.7527   -7.1984    3.3017 C   0  0  0  0  0  0  0  0  0  0  0  0
    4.9775   -5.7100    3.6981 C   0  0  0  0  0  0  0  0  0  0  0  0
    3.8102   -5.0607    4.5247 C   0  0  2  0  0  0  0  0  0  0  0  0
    3.7898   -5.7508    5.9227 C   0  0  0  0  0  0  0  0  0  0  0  0
    2.5364   -5.3972    3.7239 C   0  0  0  0  0  0  0  0  0  0  0  0
    1.8352   -4.4531    3.0842 C   0  0  0  0  0  0  0  0  0  0  0  0
    2.1984   -2.9982    2.9764 C   0  0  0  0  0  0  0  0  0  0  0  0
    3.5793   -2.5899    3.5172 C   0  0  1  0  0  0  0  0  0  0  0  0
    3.6279   -0.9982    3.6796 C   0  0  1  0  0  0  0  0  0  0  0  0
    5.1264   -0.5446    3.7040 C   0  0  0  0  0  0  0  0  0  0  0  0
    3.0745   -0.2734    2.3986 C   0  0  0  0  0  0  0  0  0  0  0  0
    1.6376    0.2725    2.4639 C   0  0  0  0  0  0  0  0  0  0  0  0
    1.3986    1.1692    3.6999 C   0  0  1  0  0  0  0  0  0  0  0  0
    2.4580    2.3134    3.7126 C   0  0  0  0  0  0  0  0  0  0  0  0
    0.0536    1.9510    3.5647 C   0  0  0  0  0  0  0  0  0  0  0  0
   -1.1916    1.2861    4.1301 C   0  0  0  0  0  0  0  0  0  0  0  0
   -0.9233    0.8129    5.5575 C   0  0  1  0  0  0  0  0  0  0  0  0
   -2.1710    0.4249    6.1217 O   0  0  0  0  0  0  0  0  0  0  0  0
    0.1647   -0.3052    5.6116 C   0  0  0  0  0  0  0  0  0  0  0  0
    0.3283   -0.6614    7.1128 C   0  0  0  0  0  0  0  0  0  0  0  0
   -0.4116   -1.5556    4.9043 C   0  0  0  0  0  0  0  0  0  0  0  0
    1.5296    0.2934    5.0068 C   0  0  1  0  0  0  0  0  0  0  0  0
    2.9256   -0.4976    5.0162 C   0  0  1  0  0  0  0  0  0  0  0  0
    3.2781   -1.4126    6.2105 C   0  0  0  0  0  0  0  0  0  0  0  0
    3.1304   -2.9298    5.9502 C   0  0  0  0  0  0  0  0  0  0  0  0
    3.9969   -3.4695    4.7684 C   0  0  1  0  0  0  0  0  0  0  0  0
    5.4949   -3.2759    5.1312 C   0  0  0  0  0  0  0  0  0  0  0  0
    2.2306   -6.8715    3.3725 C   0  0  2  0  0  0  0  0  0  0  0  0
    1.6899   -7.7627    4.5369 C   0  0  1  0  0  0  0  0  0  0  0  0
    0.4220   -7.1485    5.1694 C   0  0  0  0  0  0  0  0  0  0  0  0
    1.5631  -10.1776    6.0348 H   0  0  0  0  0  0  0  0  0  0  0  0
    0.8340  -11.1856    4.7860 H   0  0  0  0  0  0  0  0  0  0  0  0
   -0.0865   -9.8696    5.4749 H   0  0  0  0  0  0  0  0  0  0  0  0
    0.7104   -9.2094    3.2584 H   0  0  0  0  0  0  0  0  0  0  0  0
    3.5389   -9.8022    4.2387 H   0  0  0  0  0  0  0  0  0  0  0  0
    2.6166  -10.8198    3.1700 H   0  0  0  0  0  0  0  0  0  0  0  0
    4.1228   -9.4022    1.8541 H   0  0  0  0  0  0  0  0  0  0  0  0
    2.4530   -9.0882    1.4915 H   0  0  0  0  0  0  0  0  0  0  0  0
    3.6440   -5.6834    1.2338 H   0  0  0  0  0  0  0  0  0  0  0  0
    2.5748   -6.9101    0.6090 H   0  0  0  0  0  0  0  0  0  0  0  0
    4.3145   -7.1625    0.5667 H   0  0  0  0  0  0  0  0  0  0  0  0
    4.7998   -7.8312    4.1863 H   0  0  0  0  0  0  0  0  0  0  0  0
    5.5884   -7.5283    2.6837 H   0  0  0  0  0  0  0  0  0  0  0  0
    5.9211   -5.6781    4.2414 H   0  0  0  0  0  0  0  0  0  0  0  0
    5.1480   -5.1249    2.7939 H   0  0  0  0  0  0  0  0  0  0  0  0
    4.4878   -5.3140    6.6310 H   0  0  0  0  0  0  0  0  0  0  0  0
    4.0906   -6.7928    5.8990 H   0  0  0  0  0  0  0  0  0  0  0  0
    2.8024   -5.6935    6.3807 H   0  0  0  0  0  0  0  0  0  0  0  0
    0.9931   -4.7388    2.4824 H   0  0  0  0  0  0  0  0  0  0  0  0
    2.1344   -2.7636    1.9149 H   0  0  0  0  0  0  0  0  0  0  0  0
    1.4267   -2.4307    3.4603 H   0  0  0  0  0  0  0  0  0  0  0  0
    4.2761   -2.8538    2.7216 H   0  0  0  0  0  0  0  0  0  0  0  0
    5.2578    0.5142    3.4851 H   0  0  0  0  0  0  0  0  0  0  0  0
    5.7293   -1.0890    2.9753 H   0  0  0  0  0  0  0  0  0  0  0  0
    5.5985   -0.6440    4.6754 H   0  0  0  0  0  0  0  0  0  0  0  0
    3.6900    0.5810    2.1241 H   0  0  0  0  0  0  0  0  0  0  0  0
    3.1883   -0.9094    1.5231 H   0  0  0  0  0  0  0  0  0  0  0  0
    1.4568    0.8400    1.5512 H   0  0  0  0  0  0  0  0  0  0  0  0
    0.9179   -0.5361    2.4189 H   0  0  0  0  0  0  0  0  0  0  0  0
    2.2870    3.0054    4.5411 H   0  0  0  0  0  0  0  0  0  0  0  0
    2.4217    2.8963    2.7888 H   0  0  0  0  0  0  0  0  0  0  0  0
    3.4835    1.9708    3.8274 H   0  0  0  0  0  0  0  0  0  0  0  0
    0.1319    2.9124    4.0722 H   0  0  0  0  0  0  0  0  0  0  0  0
   -0.1227    2.2129    2.5190 H   0  0  0  0  0  0  0  0  0  0  0  0
   -1.9972    2.0187    4.1218 H   0  0  0  0  0  0  0  0  0  0  0  0
   -1.5298    0.4853    3.4807 H   0  0  0  0  0  0  0  0  0  0  0  0
   -0.5732    1.6711    6.1348 H   0  0  0  0  0  0  0  0  0  0  0  0
   -2.7656    0.2680    5.4027 H   0  0  0  0  0  0  0  0  0  0  0  0
    0.7810   -1.6419    7.2527 H   0  0  0  0  0  0  0  0  0  0  0  0
   -0.6160   -0.7343    7.6395 H   0  0  0  0  0  0  0  0  0  0  0  0
    0.9094    0.0945    7.6484 H   0  0  0  0  0  0  0  0  0  0  0  0
    0.1607   -2.4514    5.1217 H   0  0  0  0  0  0  0  0  0  0  0  0
   -0.4839   -1.4371    3.8260 H   0  0  0  0  0  0  0  0  0  0  0  0
   -1.4185   -1.7901    5.2492 H   0  0  0  0  0  0  0  0  0  0  0  0
    1.7114    1.0598    5.7599 H   0  0  0  0  0  0  0  0  0  0  0  0
    3.5559    0.3537    5.2782 H   0  0  0  0  0  0  0  0  0  0  0  0
    4.3010   -1.1986    6.5044 H   0  0  0  0  0  0  0  0  0  0  0  0
    2.7724   -1.1171    7.1165 H   0  0  0  0  0  0  0  0  0  0  0  0
    3.3813   -3.4216    6.8858 H   0  0  0  0  0  0  0  0  0  0  0  0
    2.0864   -3.1716    5.7730 H   0  0  0  0  0  0  0  0  0  0  0  0
    5.7386   -2.3982    5.7154 H   0  0  0  0  0  0  0  0  0  0  0  0
    6.0764   -3.2190    4.2178 H   0  0  0  0  0  0  0  0  0  0  0  0
    5.9205   -4.0804    5.7263 H   0  0  0  0  0  0  0  0  0  0  0  0
    1.3942   -6.8573    2.6739 H   0  0  0  0  0  0  0  0  0  0  0  0
    2.4248   -7.8514    5.3256 H   0  0  0  0  0  0  0  0  0  0  0  0
   -0.4172   -7.1571    4.4736 H   0  0  0  0  0  0  0  0  0  0  0  0
    0.5869   -6.1165    5.4802 H   0  0  0  0  0  0  0  0  0  0  0  0
    0.1199   -7.6916    6.0646 H   0  0  0  0  0  0  0  0  0  0  0  0
  1  2  1  0
  1 37  1  0
  1 38  1  0
  1 39  1  0
  2 35  1  0
  2  3  1  0
  2 40  1  6
  3  4  1  0
  3 41  1  0
  3 42  1  0
  4  5  1  0
  4 43  1  0
  4 44  1  0
  5 34  1  0
  5  6  1  6
  5  7  1  0
  6 45  1  0
  6 46  1  0
  6 47  1  0
  7  8  1  0
  7 48  1  0
  7 49  1  0
  8  9  1  0
  8 50  1  0
  8 51  1  0
  9 32  1  0
  9 10  1  1
  9 11  1  0
 10 52  1  0
 10 53  1  0
 10 54  1  0
 11 12  2  0
 11 34  1  0
 12 13  1  0
 12 55  1  0
 13 14  1  0
 13 56  1  0
 13 57  1  0
 14 32  1  0
 14 15  1  0
 14 58  1  6
 15 29  1  0
 15 16  1  1
 15 17  1  0
 16 59  1  0
 16 60  1  0
 16 61  1  0
 17 18  1  0
 17 62  1  0
 17 63  1  0
 18 19  1  0
 18 64  1  0
 18 65  1  0
 19 28  1  0
 19 20  1  1
 19 21  1  0
 20 66  1  0
 20 67  1  0
 20 68  1  0
 21 22  1  0
 21 69  1  0
 21 70  1  0
 22 23  1  0
 22 71  1  0
 22 72  1  0
 23 24  1  0
 23 25  1  0
 23 73  1  1
 24 74  1  0
 25 26  1  0
 25 27  1  0
 25 28  1  0
 26 75  1  0
 26 76  1  0
 26 77  1  0
 27 78  1  0
 27 79  1  0
 27 80  1  0
 28 29  1  0
 28 81  1  1
 29 30  1  0
 29 82  1  1
 30 31  1  0
 30 83  1  0
 30 84  1  0
 31 32  1  0
 31 85  1  0
 31 86  1  0
 32 33  1  1
 33 87  1  0
 33 88  1  0
 33 89  1  0
 34 35  1  0
 34 90  1  6
 35 36  1  0
 35 91  1  1
 36 92  1  0
 36 93  1  0
 36 94  1  0
M  END
>  <i_m_ct_stereo_status>  (339) 
1

>  <s_m_source_file>  (339) 
/var/tmp/pbs.5076255.sched01/tmpyj7ipo08/120az4jmrmy.sdf

>  <i_m_source_file_index>  (339) 
16

>  <i_lp_mmshare_version>  (339) 
48012

>  <i_f3d_flags>  (339) 
0

>  <s_epik_input>  (339) 
W0NIMl0xW0NIMl1bQ0BASF0oW0NIM10pW0NASF0oW0NIM10pW0NASF0oW0NAXTEyW0NIM10pQz0zW0NAQF0oW0NIM10pKFtDSDJdW0NIMl0yKVtDQEBdNChbQ0gzXSlbQ0BASF0oW0NIMl1bQ0hdMylbQ0BdNShbQ0gzXSlbQ0BIXShbQ0gyXVtDSDJdNClbQ0BIXTZbQ0BAXShbQ0gzXSkoW0NIMl1bQ0gyXTUpW0NIMl1bQ0gyXVtDQEBIXShbT0hdKUM2KFtDSDNdKVtDSDNd

>  <s_epik_cmdline>  (339) 
J2VwaWtfcHl0aG9uJywgJy1waHQnLCAnMi4wJywgJy1waCcsICc3LjAnLCAnLXRuJywgJzgnLCAnLW1hJywgJzIwMCcsICctaW1hZScsICc8aW5maWxlLm1hZT4nLCAnLW9tYWUnLCAnPG91dGZpbGUubWFlPic=

>  <r_lp_tautomer_probability>  (339) 
1

>  <r_epik_Ionization_Penalty>  (339) 
2.98408e-06

>  <r_epik_Ionization_Penalty_Charging>  (339) 
0

>  <r_epik_Ionization_Penalty_Neutral>  (339) 
2.98408e-06

>  <r_epik_State_Penalty>  (339) 
-0

>  <r_epik_Charging_Adjusted_Penalty>  (339) 
0

>  <i_epik_Tot_Q>  (339) 
0

>  <i_epik_Tot_abs_Q>  (339) 
0

>  <s_lp_Force_Field>  (339) 
OPLS3e

>  <r_lp_Energy>  (339) 
141.885

>  <b_lp_Chiralities_Consistent>  (339) 
1

>  <s_lp_Variant>  (339) 
99:0-1

>  <s_i_glide_gridfile>  (339) 
pfpi4k_grid

>  <i_i_glide_lignum>  (339) 
16

>  <i_i_glide_rotatable_bonds>  (339) 
1

>  <r_i_docking_score>  (339) 
-2.36623

>  <r_i_glide_ligand_efficiency>  (339) 
-0.0657287

>  <r_i_glide_ligand_efficiency_sa>  (339) 
-0.217031

>  <r_i_glide_ligand_efficiency_ln>  (339) 
-0.516248

>  <r_i_glide_gscore>  (339) 
-2.36623

>  <r_i_glide_lipo>  (339) 
-0.199968

>  <r_i_glide_hbond>  (339) 
-0.16

>  <r_i_glide_metal>  (339) 
-0

>  <r_i_glide_rewards>  (339) 
-0.0352199

>  <r_i_glide_evdw>  (339) 
-28.3114

>  <r_i_glide_ecoul>  (339) 
-3.70317

>  <r_i_glide_erotb>  (339) 
0

>  <r_i_glide_esite>  (339) 
0

>  <r_i_glide_emodel>  (339) 
-36.1107

>  <r_i_glide_energy>  (339) 
-32.0146

>  <r_i_glide_einternal>  (339) 
1.01105

>  <r_i_glide_intrahb_reward>  (339) 
-0

>  <i_i_glide_confnum>  (339) 
2

>  <i_i_glide_posenum>  (339) 
6

>  <r_i_glide_eff_state_penalty>  (339) 
0

>  <ligand_id>  (339) 
99

>  <original_smiles>  (339) 
CC1CCC2(C)CCC3(C)C(=CCC4C5(C)CCC6(C)CCC(O)C(C)(C)C6C5CCC43C)C2C1C

>  <smiles>  (339) 
[H]OC1([H])C([H])([H])C([H])([H])C2(C([H])([H])[H])C([H])([H])C([H])([H])C3(C([H])([H])[H])C([H])(C([H])([H])C([H])([H])C4(C([H])([H])[H])C3([H])C([H])([H])C([H])=C3C5([H])C([H])(C([H])([H])[H])C([H])(C([H])([H])[H])C([H])([H])C([H])([H])C5(C([H])([H])[H])C([H])([H])C([H])([H])C34C([H])([H])[H])C2([H])C1(C([H])([H])[H])C([H])([H])[H]

$$$$
99:0:2
     RDKit          3D

 94 99  0  0  1  0  0  0  0  0999 V2000
    0.2247  -10.0621    2.9926 C   0  0  0  0  0  0  0  0  0  0  0  0
    1.3646   -9.1102    2.5736 C   0  0  2  0  0  0  0  0  0  0  0  0
    2.7094   -9.8482    2.6236 C   0  0  0  0  0  0  0  0  0  0  0  0
    3.8217   -8.9869    2.0214 C   0  0  0  0  0  0  0  0  0  0  0  0
    4.0038   -7.6095    2.7081 C   0  0  2  0  0  0  0  0  0  0  0  0
    4.8809   -6.7666    1.7443 C   0  0  0  0  0  0  0  0  0  0  0  0
    4.7454   -7.7446    4.0613 C   0  0  0  0  0  0  0  0  0  0  0  0
    4.8788   -6.4099    4.8472 C   0  0  0  0  0  0  0  0  0  0  0  0
    3.5303   -5.6487    5.1014 C   0  0  2  0  0  0  0  0  0  0  0  0
    2.6903   -6.5082    6.0956 C   0  0  0  0  0  0  0  0  0  0  0  0
    2.8510   -5.5948    3.7104 C   0  0  0  0  0  0  0  0  0  0  0  0
    2.7033   -4.4416    3.0439 C   0  0  0  0  0  0  0  0  0  0  0  0
    3.2174   -3.1000    3.4732 C   0  0  0  0  0  0  0  0  0  0  0  0
    4.1323   -3.0699    4.7141 C   0  0  1  0  0  0  0  0  0  0  0  0
    4.2464   -1.5634    5.2434 C   0  0  1  0  0  0  0  0  0  0  0  0
    5.5264   -1.4451    6.1311 C   0  0  0  0  0  0  0  0  0  0  0  0
    4.5477   -0.5686    4.0650 C   0  0  0  0  0  0  0  0  0  0  0  0
    3.3652    0.2524    3.5224 C   0  0  0  0  0  0  0  0  0  0  0  0
    2.5990    1.0005    4.6367 C   0  0  1  0  0  0  0  0  0  0  0  0
    3.5994    1.8809    5.4439 C   0  0  0  0  0  0  0  0  0  0  0  0
    1.6275    2.0581    4.0241 C   0  0  0  0  0  0  0  0  0  0  0  0
    0.2119    1.6000    3.7092 C   0  0  0  0  0  0  0  0  0  0  0  0
   -0.3741    0.8895    4.9256 C   0  0  1  0  0  0  0  0  0  0  0  0
   -1.7683    0.7246    4.7087 O   0  0  0  0  0  0  0  0  0  0  0  0
    0.3890   -0.4313    5.2630 C   0  0  0  0  0  0  0  0  0  0  0  0
   -0.3275   -1.0220    6.5017 C   0  0  0  0  0  0  0  0  0  0  0  0
    0.1621   -1.4233    4.1030 C   0  0  0  0  0  0  0  0  0  0  0  0
    1.9162   -0.0564    5.5911 C   0  0  1  0  0  0  0  0  0  0  0  0
    2.9957   -1.1191    6.1179 C   0  0  1  0  0  0  0  0  0  0  0  0
    2.5605   -2.2476    7.0798 C   0  0  0  0  0  0  0  0  0  0  0  0
    2.4286   -3.6479    6.4401 C   0  0  0  0  0  0  0  0  0  0  0  0
    3.7354   -4.1867    5.7652 C   0  0  1  0  0  0  0  0  0  0  0  0
    4.8404   -4.3635    6.8610 C   0  0  0  0  0  0  0  0  0  0  0  0
    2.6281   -6.9060    2.9294 C   0  0  2  0  0  0  0  0  0  0  0  0
    1.4573   -7.8199    3.4250 C   0  0  1  0  0  0  0  0  0  0  0  0
    0.1203   -7.0495    3.4542 C   0  0  0  0  0  0  0  0  0  0  0  0
    0.2924  -10.3384    4.0470 H   0  0  0  0  0  0  0  0  0  0  0  0
    0.2511  -10.9847    2.4069 H   0  0  0  0  0  0  0  0  0  0  0  0
   -0.7582   -9.6201    2.8213 H   0  0  0  0  0  0  0  0  0  0  0  0
    1.1764   -8.8272    1.5373 H   0  0  0  0  0  0  0  0  0  0  0  0
    2.9554  -10.1332    3.6467 H   0  0  0  0  0  0  0  0  0  0  0  0
    2.6487  -10.7838    2.0689 H   0  0  0  0  0  0  0  0  0  0  0  0
    4.7593   -9.5437    2.0368 H   0  0  0  0  0  0  0  0  0  0  0  0
    3.5859   -8.8406    0.9666 H   0  0  0  0  0  0  0  0  0  0  0  0
    5.0763   -5.7617    2.1175 H   0  0  0  0  0  0  0  0  0  0  0  0
    4.4025   -6.6511    0.7709 H   0  0  0  0  0  0  0  0  0  0  0  0
    5.8495   -7.2392    1.5746 H   0  0  0  0  0  0  0  0  0  0  0  0
    4.2453   -8.4907    4.6771 H   0  0  0  0  0  0  0  0  0  0  0  0
    5.7419   -8.1542    3.8927 H   0  0  0  0  0  0  0  0  0  0  0  0
    5.3809   -6.6551    5.7829 H   0  0  0  0  0  0  0  0  0  0  0  0
    5.5674   -5.7526    4.3157 H   0  0  0  0  0  0  0  0  0  0  0  0
    2.9437   -6.3319    7.1381 H   0  0  0  0  0  0  0  0  0  0  0  0
    2.8442   -7.5763    5.9886 H   0  0  0  0  0  0  0  0  0  0  0  0
    1.6234   -6.3110    5.9948 H   0  0  0  0  0  0  0  0  0  0  0  0
    2.2876   -4.4523    2.0473 H   0  0  0  0  0  0  0  0  0  0  0  0
    3.7561   -2.7099    2.6115 H   0  0  0  0  0  0  0  0  0  0  0  0
    2.3729   -2.4555    3.6201 H   0  0  0  0  0  0  0  0  0  0  0  0
    5.1143   -3.3579    4.3382 H   0  0  0  0  0  0  0  0  0  0  0  0
    5.8833   -0.4214    6.2445 H   0  0  0  0  0  0  0  0  0  0  0  0
    6.3460   -2.0239    5.7130 H   0  0  0  0  0  0  0  0  0  0  0  0
    5.3881   -1.7652    7.1570 H   0  0  0  0  0  0  0  0  0  0  0  0
    5.2997    0.1681    4.3421 H   0  0  0  0  0  0  0  0  0  0  0  0
    5.0472   -1.0859    3.2487 H   0  0  0  0  0  0  0  0  0  0  0  0
    3.7622    0.9674    2.8025 H   0  0  0  0  0  0  0  0  0  0  0  0
    2.6988   -0.3709    2.9378 H   0  0  0  0  0  0  0  0  0  0  0  0
    3.0843    2.4703    6.2060 H   0  0  0  0  0  0  0  0  0  0  0  0
    4.1234    2.5812    4.7893 H   0  0  0  0  0  0  0  0  0  0  0  0
    4.3601    1.3172    5.9777 H   0  0  0  0  0  0  0  0  0  0  0  0
    1.5170    2.8988    4.7104 H   0  0  0  0  0  0  0  0  0  0  0  0
    2.0658    2.4953    3.1255 H   0  0  0  0  0  0  0  0  0  0  0  0
   -0.3815    2.4813    3.4686 H   0  0  0  0  0  0  0  0  0  0  0  0
    0.1899    0.9861    2.8131 H   0  0  0  0  0  0  0  0  0  0  0  0
   -0.2913    1.5627    5.7803 H   0  0  0  0  0  0  0  0  0  0  0  0
   -1.9186    0.5447    3.7941 H   0  0  0  0  0  0  0  0  0  0  0  0
   -0.1226   -2.0840    6.6267 H   0  0  0  0  0  0  0  0  0  0  0  0
   -1.4114   -0.9708    6.4200 H   0  0  0  0  0  0  0  0  0  0  0  0
   -0.0565   -0.4897    7.4166 H   0  0  0  0  0  0  0  0  0  0  0  0
    0.4275   -2.4422    4.3669 H   0  0  0  0  0  0  0  0  0  0  0  0
    0.6791   -1.1446    3.1885 H   0  0  0  0  0  0  0  0  0  0  0  0
   -0.8944   -1.4814    3.8492 H   0  0  0  0  0  0  0  0  0  0  0  0
    1.7446    0.5411    6.4872 H   0  0  0  0  0  0  0  0  0  0  0  0
    3.4720   -0.4654    6.8496 H   0  0  0  0  0  0  0  0  0  0  0  0
    3.2845   -2.2985    7.8876 H   0  0  0  0  0  0  0  0  0  0  0  0
    1.6788   -1.9832    7.6445 H   0  0  0  0  0  0  0  0  0  0  0  0
    2.0815   -4.3081    7.2305 H   0  0  0  0  0  0  0  0  0  0  0  0
    1.6232   -3.6384    5.7108 H   0  0  0  0  0  0  0  0  0  0  0  0
    4.8078   -3.6514    7.6739 H   0  0  0  0  0  0  0  0  0  0  0  0
    5.8393   -4.3137    6.4283 H   0  0  0  0  0  0  0  0  0  0  0  0
    4.7762   -5.3115    7.3888 H   0  0  0  0  0  0  0  0  0  0  0  0
    2.3012   -6.6195    1.9281 H   0  0  0  0  0  0  0  0  0  0  0  0
    1.6427   -8.1709    4.4315 H   0  0  0  0  0  0  0  0  0  0  0  0
   -0.2071   -6.7872    2.4483 H   0  0  0  0  0  0  0  0  0  0  0  0
    0.2005   -6.1291    4.0329 H   0  0  0  0  0  0  0  0  0  0  0  0
   -0.6693   -7.6372    3.9228 H   0  0  0  0  0  0  0  0  0  0  0  0
  1  2  1  0
  1 37  1  0
  1 38  1  0
  1 39  1  0
  2 35  1  0
  2  3  1  0
  2 40  1  6
  3  4  1  0
  3 41  1  0
  3 42  1  0
  4  5  1  0
  4 43  1  0
  4 44  1  0
  5 34  1  0
  5  6  1  6
  5  7  1  0
  6 45  1  0
  6 46  1  0
  6 47  1  0
  7  8  1  0
  7 48  1  0
  7 49  1  0
  8  9  1  0
  8 50  1  0
  8 51  1  0
  9 32  1  0
  9 10  1  1
  9 11  1  0
 10 52  1  0
 10 53  1  0
 10 54  1  0
 11 12  2  0
 11 34  1  0
 12 13  1  0
 12 55  1  0
 13 14  1  0
 13 56  1  0
 13 57  1  0
 14 32  1  0
 14 15  1  0
 14 58  1  6
 15 29  1  0
 15 16  1  1
 15 17  1  0
 16 59  1  0
 16 60  1  0
 16 61  1  0
 17 18  1  0
 17 62  1  0
 17 63  1  0
 18 19  1  0
 18 64  1  0
 18 65  1  0
 19 28  1  0
 19 20  1  1
 19 21  1  0
 20 66  1  0
 20 67  1  0
 20 68  1  0
 21 22  1  0
 21 69  1  0
 21 70  1  0
 22 23  1  0
 22 71  1  0
 22 72  1  0
 23 24  1  0
 23 25  1  0
 23 73  1  1
 24 74  1  0
 25 26  1  0
 25 27  1  0
 25 28  1  0
 26 75  1  0
 26 76  1  0
 26 77  1  0
 27 78  1  0
 27 79  1  0
 27 80  1  0
 28 29  1  0
 28 81  1  1
 29 30  1  0
 29 82  1  1
 30 31  1  0
 30 83  1  0
 30 84  1  0
 31 32  1  0
 31 85  1  0
 31 86  1  0
 32 33  1  1
 33 87  1  0
 33 88  1  0
 33 89  1  0
 34 35  1  0
 34 90  1  6
 35 36  1  0
 35 91  1  1
 36 92  1  0
 36 93  1  0
 36 94  1  0
M  END
>  <i_m_ct_stereo_status>  (340) 
1

>  <s_m_source_file>  (340) 
/var/tmp/pbs.5076255.sched01/tmpyj7ipo08/120az4jmrmy.sdf

>  <i_m_source_file_index>  (340) 
16

>  <i_lp_mmshare_version>  (340) 
48012

>  <i_f3d_flags>  (340) 
0

>  <s_epik_input>  (340) 
W0NIMl0xW0NIMl1bQ0BASF0oW0NIM10pW0NASF0oW0NIM10pW0NASF0oW0NAXTEyW0NIM10pQz0zW0NAQF0oW0NIM10pKFtDSDJdW0NIMl0yKVtDQEBdNChbQ0gzXSlbQ0BASF0oW0NIMl1bQ0hdMylbQ0BdNShbQ0gzXSlbQ0BIXShbQ0gyXVtDSDJdNClbQ0BIXTZbQ0BAXShbQ0gzXSkoW0NIMl1bQ0gyXTUpW0NIMl1bQ0gyXVtDQEBIXShbT0hdKUM2KFtDSDNdKVtDSDNd

>  <s_epik_cmdline>  (340) 
J2VwaWtfcHl0aG9uJywgJy1waHQnLCAnMi4wJywgJy1waCcsICc3LjAnLCAnLXRuJywgJzgnLCAnLW1hJywgJzIwMCcsICctaW1hZScsICc8aW5maWxlLm1hZT4nLCAnLW9tYWUnLCAnPG91dGZpbGUubWFlPic=

>  <r_lp_tautomer_probability>  (340) 
1

>  <r_epik_Ionization_Penalty>  (340) 
2.98408e-06

>  <r_epik_Ionization_Penalty_Charging>  (340) 
0

>  <r_epik_Ionization_Penalty_Neutral>  (340) 
2.98408e-06

>  <r_epik_State_Penalty>  (340) 
-0

>  <r_epik_Charging_Adjusted_Penalty>  (340) 
0

>  <i_epik_Tot_Q>  (340) 
0

>  <i_epik_Tot_abs_Q>  (340) 
0

>  <s_lp_Force_Field>  (340) 
OPLS3e

>  <r_lp_Energy>  (340) 
141.885

>  <b_lp_Chiralities_Consistent>  (340) 
1

>  <s_lp_Variant>  (340) 
99:0-1

>  <s_i_glide_gridfile>  (340) 
pfpi4k_grid

>  <i_i_glide_lignum>  (340) 
16

>  <i_i_glide_rotatable_bonds>  (340) 
1

>  <r_i_docking_score>  (340) 
-1.8749

>  <r_i_glide_ligand_efficiency>  (340) 
-0.0520806

>  <r_i_glide_ligand_efficiency_sa>  (340) 
-0.171966

>  <r_i_glide_ligand_efficiency_ln>  (340) 
-0.409053

>  <r_i_glide_gscore>  (340) 
-1.8749

>  <r_i_glide_lipo>  (340) 
-0.15143

>  <r_i_glide_hbond>  (340) 
-0.0371963

>  <r_i_glide_metal>  (340) 
-0

>  <r_i_glide_rewards>  (340) 
-0.0352199

>  <r_i_glide_evdw>  (340) 
-27.0215

>  <r_i_glide_ecoul>  (340) 
-1.99989

>  <r_i_glide_erotb>  (340) 
0

>  <r_i_glide_esite>  (340) 
0

>  <r_i_glide_emodel>  (340) 
-32.4818

>  <r_i_glide_energy>  (340) 
-29.0214

>  <r_i_glide_einternal>  (340) 
0.506532

>  <r_i_glide_intrahb_reward>  (340) 
-0

>  <i_i_glide_confnum>  (340) 
2

>  <i_i_glide_posenum>  (340) 
27

>  <r_i_glide_eff_state_penalty>  (340) 
0

>  <ligand_id>  (340) 
99

>  <original_smiles>  (340) 
CC1CCC2(C)CCC3(C)C(=CCC4C5(C)CCC6(C)CCC(O)C(C)(C)C6C5CCC43C)C2C1C

>  <smiles>  (340) 
[H]OC1([H])C([H])([H])C([H])([H])C2(C([H])([H])[H])C([H])([H])C([H])([H])C3(C([H])([H])[H])C([H])(C([H])([H])C([H])([H])C4(C([H])([H])[H])C3([H])C([H])([H])C([H])=C3C5([H])C([H])(C([H])([H])[H])C([H])(C([H])([H])[H])C([H])([H])C([H])([H])C5(C([H])([H])[H])C([H])([H])C([H])([H])C34C([H])([H])[H])C2([H])C1(C([H])([H])[H])C([H])([H])[H]

$$$$
100:1:0
     RDKit          3D

 59 63  0  0  1  0  0  0  0  0999 V2000
    3.6536  -10.4978    6.7396 C   0  0  0  0  0  0  0  0  0  0  0  0
    3.6307  -10.3313    5.2048 C   0  0  2  0  0  0  0  0  0  0  0  0
    5.1000  -10.5456    4.6953 C   0  0  0  0  0  0  0  0  0  0  0  0
    5.3183  -10.7739    3.1737 C   0  0  0  0  0  0  0  0  0  0  0  0
    5.3545   -9.5054    2.2873 C   0  0  1  0  0  0  0  0  0  0  0  0
    5.0831   -9.8548    0.9440 O   0  0  0  0  0  0  0  0  0  0  0  0
    4.4155   -8.4227    2.8438 C   0  0  1  0  0  0  0  0  0  0  0  0
    4.3007   -7.0566    2.1403 C   0  0  1  0  0  0  0  0  0  0  0  0
    4.4184   -7.1722    0.7538 O   0  0  0  0  0  0  0  0  0  0  0  0
    4.6782   -5.9345    0.1017 C   0  0  0  0  0  0  0  0  0  0  0  0
    6.0770   -5.4202    0.4295 C   0  0  0  0  0  0  0  0  0  0  0  0
    6.4523   -4.1537    0.7078 C   0  0  0  0  0  0  0  0  0  0  0  0
    5.6220   -2.9369    0.6318 C   0  0  0  0  0  0  0  0  0  0  0  0
    5.8278   -1.8779    1.5386 C   0  0  0  0  0  0  0  0  0  0  0  0
    5.0356   -0.7148    1.4910 C   0  0  0  0  0  0  0  0  0  0  0  0
    4.0116   -0.6066    0.5373 C   0  0  0  0  0  0  0  0  0  0  0  0
    3.7954   -1.6523   -0.3771 C   0  0  0  0  0  0  0  0  0  0  0  0
    4.6001   -2.8032   -0.3358 C   0  0  0  0  0  0  0  0  0  0  0  0
    3.0428   -6.5866    2.5254 O   0  0  0  0  0  0  0  0  0  0  0  0
    2.2249   -7.7026    2.5186 C   0  0  2  0  0  0  0  0  0  0  0  0
    0.9350   -7.5862    3.0029 O   0  0  0  0  0  0  0  0  0  0  0  0
    0.3438   -8.8838    3.1567 C   0  0  2  0  0  0  0  0  0  0  0  0
   -1.0707   -8.7948    2.5645 C   0  0  0  0  0  0  0  0  0  0  0  0
    0.3323   -9.2194    4.6512 C   0  0  0  0  0  0  0  0  0  0  0  0
    1.5599   -8.6836    5.3914 C   0  0  0  0  0  0  0  0  0  0  0  0
    2.9430   -8.9834    4.7619 C   0  0  2  0  0  0  0  0  0  0  0  0
    2.9925   -8.8332    3.2059 C   0  0  2  0  0  0  0  0  0  0  0  0
    2.5027  -10.0255    2.6178 O   0  0  0  0  0  0  0  0  0  0  0  0
    0.9841   -9.9269    2.3976 O   0  0  0  0  0  0  0  0  0  0  0  0
    4.1037   -9.6382    7.2387 H   0  0  0  0  0  0  0  0  0  0  0  0
    4.2121  -11.3845    7.0430 H   0  0  0  0  0  0  0  0  0  0  0  0
    2.6524  -10.6428    7.1434 H   0  0  0  0  0  0  0  0  0  0  0  0
    3.0325  -11.1608    4.8181 H   0  0  0  0  0  0  0  0  0  0  0  0
    5.7604   -9.7613    5.0696 H   0  0  0  0  0  0  0  0  0  0  0  0
    5.4671  -11.4565    5.1682 H   0  0  0  0  0  0  0  0  0  0  0  0
    6.2669  -11.2939    3.0330 H   0  0  0  0  0  0  0  0  0  0  0  0
    4.5609  -11.4726    2.8142 H   0  0  0  0  0  0  0  0  0  0  0  0
    6.3720   -9.1058    2.2794 H   0  0  0  0  0  0  0  0  0  0  0  0
    4.6362  -10.7225    0.8867 H   0  0  0  0  0  0  0  0  0  0  0  0
    4.9305   -8.1078    3.7477 H   0  0  0  0  0  0  0  0  0  0  0  0
    5.0444   -6.3673    2.5434 H   0  0  0  0  0  0  0  0  0  0  0  0
    4.6168   -6.1004   -0.9724 H   0  0  0  0  0  0  0  0  0  0  0  0
    3.8785   -5.2374    0.3644 H   0  0  0  0  0  0  0  0  0  0  0  0
    6.8327   -6.1904    0.4514 H   0  0  0  0  0  0  0  0  0  0  0  0
    7.4822   -3.9918    0.9872 H   0  0  0  0  0  0  0  0  0  0  0  0
    6.6029   -1.9518    2.2938 H   0  0  0  0  0  0  0  0  0  0  0  0
    5.2061    0.0929    2.1928 H   0  0  0  0  0  0  0  0  0  0  0  0
    3.3874    0.2736    0.4979 H   0  0  0  0  0  0  0  0  0  0  0  0
    3.0060   -1.5817   -1.1075 H   0  0  0  0  0  0  0  0  0  0  0  0
    4.4130   -3.5703   -1.0707 H   0  0  0  0  0  0  0  0  0  0  0  0
    2.1026   -7.9396    1.4620 H   0  0  0  0  0  0  0  0  0  0  0  0
   -1.0199   -8.5881    1.4950 H   0  0  0  0  0  0  0  0  0  0  0  0
   -1.6626   -8.0024    3.0220 H   0  0  0  0  0  0  0  0  0  0  0  0
   -1.6096   -9.7365    2.6845 H   0  0  0  0  0  0  0  0  0  0  0  0
   -0.5393   -8.7544    5.1118 H   0  0  0  0  0  0  0  0  0  0  0  0
    0.2148  -10.2899    4.8046 H   0  0  0  0  0  0  0  0  0  0  0  0
    1.4674   -7.5962    5.4355 H   0  0  0  0  0  0  0  0  0  0  0  0
    1.5144   -8.9808    6.4345 H   0  0  0  0  0  0  0  0  0  0  0  0
    3.5476   -8.1949    5.2148 H   0  0  0  0  0  0  0  0  0  0  0  0
  1  2  1  0
  1 30  1  0
  1 31  1  0
  1 32  1  0
  2 26  1  0
  2  3  1  0
  2 33  1  6
  3  4  1  0
  3 34  1  0
  3 35  1  0
  4  5  1  0
  4 36  1  0
  4 37  1  0
  5  6  1  0
  5  7  1  0
  5 38  1  6
  6 39  1  0
  7 27  1  0
  7  8  1  0
  7 40  1  1
  8  9  1  0
  8 19  1  0
  8 41  1  1
  9 10  1  0
 10 11  1  0
 10 42  1  0
 10 43  1  0
 11 12  2  3
 11 44  1  0
 12 13  1  0
 12 45  1  0
 13 18  1  0
 13 14  2  0
 14 15  1  0
 14 46  1  0
 15 16  2  0
 15 47  1  0
 16 17  1  0
 16 48  1  0
 17 18  2  0
 17 49  1  0
 18 50  1  0
 19 20  1  0
 20 27  1  0
 20 21  1  0
 20 51  1  6
 21 22  1  0
 22 29  1  0
 22 23  1  6
 22 24  1  0
 23 52  1  0
 23 53  1  0
 23 54  1  0
 24 25  1  0
 24 55  1  0
 24 56  1  0
 25 26  1  0
 25 57  1  0
 25 58  1  0
 26 27  1  0
 26 59  1  1
 27 28  1  6
 28 29  1  0
M  END
>  <i_m_ct_stereo_status>  (341) 
1

>  <s_m_source_file>  (341) 
/var/tmp/pbs.5076255.sched01/tmpyj7ipo08/120az4jmrmy.sdf

>  <i_m_source_file_index>  (341) 
18

>  <i_lp_mmshare_version>  (341) 
48012

>  <i_f3d_flags>  (341) 
0

>  <s_epik_input>  (341) 
W0NAQF0xMjNbQ0BIXTRbQ0BIXShbT0hdKVtDSDJdW0NIMl1bQ0BASF0oW0NIM10pW0NAQEhdMltDSDJdW0NIMl1bQ0BdKFtDSDNdKShPTzMpT1tDQEhdMU9bQ0BASF00T1tDSDJdL1tDSF09W0NIXS9jNVtjSF1bY0hdW2NIXVtjSF1bY0hdNQ==

>  <s_epik_cmdline>  (341) 
J2VwaWtfcHl0aG9uJywgJy1waHQnLCAnMi4wJywgJy1waCcsICc3LjAnLCAnLXRuJywgJzgnLCAnLW1hJywgJzIwMCcsICctaW1hZScsICc8aW5maWxlLm1hZT4nLCAnLW9tYWUnLCAnPG91dGZpbGUubWFlPic=

>  <r_lp_tautomer_probability>  (341) 
1

>  <r_epik_Ionization_Penalty>  (341) 
4.36473e-08

>  <r_epik_Ionization_Penalty_Charging>  (341) 
0

>  <r_epik_Ionization_Penalty_Neutral>  (341) 
4.36473e-08

>  <r_epik_State_Penalty>  (341) 
-0

>  <r_epik_Charging_Adjusted_Penalty>  (341) 
0

>  <i_epik_Tot_Q>  (341) 
0

>  <i_epik_Tot_abs_Q>  (341) 
0

>  <s_epik_Chemistry_Notes>  (341) 
This compound contains an acetal/aminal-like group ( X-CH(R)-Y where X, Y are N, S, or O) that may be acid/base labile, releasing an aldehyde.

>  <s_lp_Force_Field>  (341) 
OPLS3e

>  <r_lp_Energy>  (341) 
56.5529

>  <b_lp_Chiralities_Consistent>  (341) 
1

>  <s_lp_Variant>  (341) 
100:0-2

>  <s_i_glide_gridfile>  (341) 
pfpi4k_grid

>  <i_i_glide_lignum>  (341) 
18

>  <i_i_glide_rotatable_bonds>  (341) 
5

>  <r_i_docking_score>  (341) 
-3.31851

>  <r_i_glide_ligand_efficiency>  (341) 
-0.114431

>  <r_i_glide_ligand_efficiency_sa>  (341) 
-0.35157

>  <r_i_glide_ligand_efficiency_ln>  (341) 
-0.759855

>  <r_i_glide_gscore>  (341) 
-3.31851

>  <r_i_glide_lipo>  (341) 
-0.679763

>  <r_i_glide_hbond>  (341) 
0

>  <r_i_glide_metal>  (341) 
-0

>  <r_i_glide_rewards>  (341) 
-0.691781

>  <r_i_glide_evdw>  (341) 
-27.0586

>  <r_i_glide_ecoul>  (341) 
-6.13032

>  <r_i_glide_erotb>  (341) 
0.363432

>  <r_i_glide_esite>  (341) 
-0.0379206

>  <r_i_glide_emodel>  (341) 
-38.4595

>  <r_i_glide_energy>  (341) 
-33.189

>  <r_i_glide_einternal>  (341) 
3.18327

>  <r_i_glide_intrahb_reward>  (341) 
-0

>  <i_i_glide_confnum>  (341) 
1

>  <i_i_glide_posenum>  (341) 
9

>  <r_i_glide_eff_state_penalty>  (341) 
0

>  <ligand_id>  (341) 
100

>  <original_smiles>  (341) 
CC1CCC(O)C2C(OCC=Cc3ccccc3)OC3OC4(C)CCC1C32OO4

>  <smiles>  (341) 
[H]OC1([H])C([H])([H])C([H])([H])C([H])(C([H])([H])[H])C2([H])C([H])([H])C([H])([H])C3(C([H])([H])[H])OOC24C([H])(OC([H])(OC([H])([H])C([H])=C([H])c2c([H])c([H])c([H])c([H])c2[H])C14[H])O3

$$$$
100:1:1
     RDKit          3D

 59 63  0  0  1  0  0  0  0  0999 V2000
    4.9171   -1.1419   -1.5030 C   0  0  0  0  0  0  0  0  0  0  0  0
    5.3613   -2.0389   -0.3324 C   0  0  2  0  0  0  0  0  0  0  0  0
    6.3684   -3.0925   -0.9036 C   0  0  0  0  0  0  0  0  0  0  0  0
    7.2348   -3.8939    0.1072 C   0  0  0  0  0  0  0  0  0  0  0  0
    6.5715   -5.1455    0.7346 C   0  0  1  0  0  0  0  0  0  0  0  0
    7.2417   -5.4645    1.9409 O   0  0  0  0  0  0  0  0  0  0  0  0
    5.0738   -4.8950    0.9228 C   0  0  1  0  0  0  0  0  0  0  0  0
    4.1807   -5.9936    1.5319 C   0  0  1  0  0  0  0  0  0  0  0  0
    4.8394   -6.7254    2.5392 O   0  0  0  0  0  0  0  0  0  0  0  0
    4.0664   -7.7644    3.1852 C   0  0  0  0  0  0  0  0  0  0  0  0
    3.4267   -8.7463    2.1898 C   0  0  0  0  0  0  0  0  0  0  0  0
    2.1272   -9.0262    1.9539 C   0  0  0  0  0  0  0  0  0  0  0  0
    0.8881   -8.4408    2.5370 C   0  0  0  0  0  0  0  0  0  0  0  0
   -0.2930   -9.2091    2.6188 C   0  0  0  0  0  0  0  0  0  0  0  0
   -1.4705   -8.6825    3.2580 C   0  0  0  0  0  0  0  0  0  0  0  0
   -1.4523   -7.4213    3.8509 C   0  0  0  0  0  0  0  0  0  0  0  0
   -0.2726   -6.6445    3.7704 C   0  0  0  0  0  0  0  0  0  0  0  0
    0.8522   -7.1344    3.1016 C   0  0  0  0  0  0  0  0  0  0  0  0
    3.1036   -5.2511    1.9918 O   0  0  0  0  0  0  0  0  0  0  0  0
    3.6373   -4.1304    2.5772 C   0  0  2  0  0  0  0  0  0  0  0  0
    2.7886   -3.1554    3.0513 O   0  0  0  0  0  0  0  0  0  0  0  0
    3.5238   -1.9731    3.3729 C   0  0  2  0  0  0  0  0  0  0  0  0
    3.0352   -1.4689    4.7374 C   0  0  0  0  0  0  0  0  0  0  0  0
    3.2300   -0.9601    2.2540 C   0  0  0  0  0  0  0  0  0  0  0  0
    3.0477   -1.6299    0.8902 C   0  0  0  0  0  0  0  0  0  0  0  0
    4.1367   -2.6362    0.4467 C   0  0  2  0  0  0  0  0  0  0  0  0
    4.6486   -3.5763    1.5854 C   0  0  2  0  0  0  0  0  0  0  0  0
    5.6035   -2.8673    2.3588 O   0  0  0  0  0  0  0  0  0  0  0  0
    4.9328   -2.1981    3.5740 O   0  0  0  0  0  0  0  0  0  0  0  0
    4.2257   -1.6616   -2.1672 H   0  0  0  0  0  0  0  0  0  0  0  0
    5.7667   -0.8153   -2.0980 H   0  0  0  0  0  0  0  0  0  0  0  0
    4.4305   -0.2413   -1.1422 H   0  0  0  0  0  0  0  0  0  0  0  0
    5.9131   -1.4073    0.3639 H   0  0  0  0  0  0  0  0  0  0  0  0
    5.8758   -3.7567   -1.6146 H   0  0  0  0  0  0  0  0  0  0  0  0
    7.0947   -2.5486   -1.5026 H   0  0  0  0  0  0  0  0  0  0  0  0
    8.1276   -4.2504   -0.4006 H   0  0  0  0  0  0  0  0  0  0  0  0
    7.5921   -3.2294    0.8930 H   0  0  0  0  0  0  0  0  0  0  0  0
    6.6881   -6.0048    0.0705 H   0  0  0  0  0  0  0  0  0  0  0  0
    6.7957   -6.2119    2.3156 H   0  0  0  0  0  0  0  0  0  0  0  0
    4.6869   -4.8946   -0.0960 H   0  0  0  0  0  0  0  0  0  0  0  0
    3.8249   -6.6470    0.7404 H   0  0  0  0  0  0  0  0  0  0  0  0
    4.7788   -8.3434    3.7973 H   0  0  0  0  0  0  0  0  0  0  0  0
    3.3739   -7.3189    3.9145 H   0  0  0  0  0  0  0  0  0  0  0  0
    4.1453   -9.3020    1.6160 H   0  0  0  0  0  0  0  0  0  0  0  0
    1.9450   -9.7939    1.2270 H   0  0  0  0  0  0  0  0  0  0  0  0
   -0.3073  -10.2052    2.2075 H   0  0  0  0  0  0  0  0  0  0  0  0
   -2.3571   -9.3004    3.2951 H   0  0  0  0  0  0  0  0  0  0  0  0
   -2.3185   -7.0148    4.3579 H   0  0  0  0  0  0  0  0  0  0  0  0
   -0.2167   -5.6698    4.2193 H   0  0  0  0  0  0  0  0  0  0  0  0
    1.6887   -6.4711    3.0574 H   0  0  0  0  0  0  0  0  0  0  0  0
    4.1559   -4.4949    3.4646 H   0  0  0  0  0  0  0  0  0  0  0  0
    3.2949   -2.1962    5.5093 H   0  0  0  0  0  0  0  0  0  0  0  0
    1.9550   -1.3256    4.7641 H   0  0  0  0  0  0  0  0  0  0  0  0
    3.5190   -0.5269    4.9945 H   0  0  0  0  0  0  0  0  0  0  0  0
    2.2819   -0.4671    2.4671 H   0  0  0  0  0  0  0  0  0  0  0  0
    3.9809   -0.1753    2.2269 H   0  0  0  0  0  0  0  0  0  0  0  0
    2.1023   -2.1798    0.9130 H   0  0  0  0  0  0  0  0  0  0  0  0
    2.8668   -0.8689    0.1331 H   0  0  0  0  0  0  0  0  0  0  0  0
    3.5750   -3.2222   -0.2785 H   0  0  0  0  0  0  0  0  0  0  0  0
  1  2  1  0
  1 30  1  0
  1 31  1  0
  1 32  1  0
  2 26  1  0
  2  3  1  0
  2 33  1  1
  3  4  1  0
  3 34  1  0
  3 35  1  0
  4  5  1  0
  4 36  1  0
  4 37  1  0
  5  6  1  0
  5  7  1  0
  5 38  1  6
  6 39  1  0
  7 27  1  0
  7  8  1  0
  7 40  1  6
  8  9  1  0
  8 19  1  0
  8 41  1  6
  9 10  1  0
 10 11  1  0
 10 42  1  0
 10 43  1  0
 11 12  2  3
 11 44  1  0
 12 13  1  0
 12 45  1  0
 13 18  1  0
 13 14  2  0
 14 15  1  0
 14 46  1  0
 15 16  2  0
 15 47  1  0
 16 17  1  0
 16 48  1  0
 17 18  2  0
 17 49  1  0
 18 50  1  0
 19 20  1  0
 20 27  1  0
 20 21  1  0
 20 51  1  1
 21 22  1  0
 22 29  1  0
 22 23  1  1
 22 24  1  0
 23 52  1  0
 23 53  1  0
 23 54  1  0
 24 25  1  0
 24 55  1  0
 24 56  1  0
 25 26  1  0
 25 57  1  0
 25 58  1  0
 26 27  1  0
 26 59  1  6
 27 28  1  1
 28 29  1  0
M  END
>  <i_m_ct_stereo_status>  (342) 
1

>  <s_m_source_file>  (342) 
/var/tmp/pbs.5076255.sched01/tmpyj7ipo08/120az4jmrmy.sdf

>  <i_m_source_file_index>  (342) 
18

>  <i_lp_mmshare_version>  (342) 
48012

>  <i_f3d_flags>  (342) 
0

>  <s_epik_input>  (342) 
W0NAQF0xMjNbQ0BIXTRbQ0BIXShbT0hdKVtDSDJdW0NIMl1bQ0BASF0oW0NIM10pW0NAQEhdMltDSDJdW0NIMl1bQ0BdKFtDSDNdKShPTzMpT1tDQEhdMU9bQ0BASF00T1tDSDJdL1tDSF09W0NIXS9jNVtjSF1bY0hdW2NIXVtjSF1bY0hdNQ==

>  <s_epik_cmdline>  (342) 
J2VwaWtfcHl0aG9uJywgJy1waHQnLCAnMi4wJywgJy1waCcsICc3LjAnLCAnLXRuJywgJzgnLCAnLW1hJywgJzIwMCcsICctaW1hZScsICc8aW5maWxlLm1hZT4nLCAnLW9tYWUnLCAnPG91dGZpbGUubWFlPic=

>  <r_lp_tautomer_probability>  (342) 
1

>  <r_epik_Ionization_Penalty>  (342) 
4.36473e-08

>  <r_epik_Ionization_Penalty_Charging>  (342) 
0

>  <r_epik_Ionization_Penalty_Neutral>  (342) 
4.36473e-08

>  <r_epik_State_Penalty>  (342) 
-0

>  <r_epik_Charging_Adjusted_Penalty>  (342) 
0

>  <i_epik_Tot_Q>  (342) 
0

>  <i_epik_Tot_abs_Q>  (342) 
0

>  <s_epik_Chemistry_Notes>  (342) 
This compound contains an acetal/aminal-like group ( X-CH(R)-Y where X, Y are N, S, or O) that may be acid/base labile, releasing an aldehyde.

>  <s_lp_Force_Field>  (342) 
OPLS3e

>  <r_lp_Energy>  (342) 
56.5529

>  <b_lp_Chiralities_Consistent>  (342) 
1

>  <s_lp_Variant>  (342) 
100:0-2

>  <s_i_glide_gridfile>  (342) 
pfpi4k_grid

>  <i_i_glide_lignum>  (342) 
18

>  <i_i_glide_rotatable_bonds>  (342) 
5

>  <r_i_docking_score>  (342) 
-2.89659

>  <r_i_glide_ligand_efficiency>  (342) 
-0.0998823

>  <r_i_glide_ligand_efficiency_sa>  (342) 
-0.30687

>  <r_i_glide_ligand_efficiency_ln>  (342) 
-0.663245

>  <r_i_glide_gscore>  (342) 
-2.89659

>  <r_i_glide_lipo>  (342) 
-0.428092

>  <r_i_glide_hbond>  (342) 
0

>  <r_i_glide_metal>  (342) 
-0

>  <r_i_glide_rewards>  (342) 
-1.22623

>  <r_i_glide_evdw>  (342) 
-29.9663

>  <r_i_glide_ecoul>  (342) 
-0.715909

>  <r_i_glide_erotb>  (342) 
0.363432

>  <r_i_glide_esite>  (342) 
0

>  <r_i_glide_emodel>  (342) 
-40.2206

>  <r_i_glide_energy>  (342) 
-30.6822

>  <r_i_glide_einternal>  (342) 
1.97621

>  <r_i_glide_intrahb_reward>  (342) 
-0.5

>  <i_i_glide_confnum>  (342) 
1

>  <i_i_glide_posenum>  (342) 
4

>  <r_i_glide_eff_state_penalty>  (342) 
0

>  <ligand_id>  (342) 
100

>  <original_smiles>  (342) 
CC1CCC(O)C2C(OCC=Cc3ccccc3)OC3OC4(C)CCC1C32OO4

>  <smiles>  (342) 
[H]OC1([H])C([H])([H])C([H])([H])C([H])(C([H])([H])[H])C2([H])C([H])([H])C([H])([H])C3(C([H])([H])[H])OOC24C([H])(OC([H])(OC([H])([H])C([H])=C([H])c2c([H])c([H])c([H])c([H])c2[H])C14[H])O3

$$$$
100:1:2
     RDKit          3D

 59 63  0  0  1  0  0  0  0  0999 V2000
    3.4297   -9.5303    6.6245 C   0  0  0  0  0  0  0  0  0  0  0  0
    3.3129   -9.2957    5.1029 C   0  0  2  0  0  0  0  0  0  0  0  0
    4.7685   -9.1541    4.5336 C   0  0  0  0  0  0  0  0  0  0  0  0
    4.9698   -9.2551    2.9964 C   0  0  0  0  0  0  0  0  0  0  0  0
    4.6954   -7.9761    2.1714 C   0  0  1  0  0  0  0  0  0  0  0  0
    4.4213   -8.3777    0.8465 O   0  0  0  0  0  0  0  0  0  0  0  0
    3.5674   -7.1376    2.7996 C   0  0  1  0  0  0  0  0  0  0  0  0
    3.1063   -5.8031    2.1589 C   0  0  1  0  0  0  0  0  0  0  0  0
    3.1340   -5.8422    0.7591 O   0  0  0  0  0  0  0  0  0  0  0  0
    3.0291   -4.5583    0.1368 C   0  0  0  0  0  0  0  0  0  0  0  0
    4.3393   -3.7956    0.2551 C   0  0  0  0  0  0  0  0  0  0  0  0
    4.5551   -2.5944    0.8280 C   0  0  0  0  0  0  0  0  0  0  0  0
    3.6096   -1.6897    1.5145 C   0  0  0  0  0  0  0  0  0  0  0  0
    2.4318   -2.1509    2.1493 C   0  0  0  0  0  0  0  0  0  0  0  0
    1.5144   -1.2303    2.7059 C   0  0  0  0  0  0  0  0  0  0  0  0
    1.7874    0.1484    2.6752 C   0  0  0  0  0  0  0  0  0  0  0  0
    2.9754    0.6102    2.0817 C   0  0  0  0  0  0  0  0  0  0  0  0
    3.8702   -0.3034    1.4939 C   0  0  0  0  0  0  0  0  0  0  0  0
    1.8042   -5.6534    2.6444 O   0  0  0  0  0  0  0  0  0  0  0  0
    1.2560   -6.9176    2.5993 C   0  0  2  0  0  0  0  0  0  0  0  0
   -0.0150   -7.1090    3.1241 O   0  0  0  0  0  0  0  0  0  0  0  0
   -0.2997   -8.5192    3.2350 C   0  0  2  0  0  0  0  0  0  0  0  0
   -1.7223   -8.7241    2.6891 C   0  0  0  0  0  0  0  0  0  0  0  0
   -0.1767   -8.9120    4.7145 C   0  0  0  0  0  0  0  0  0  0  0  0
    0.9426   -8.1558    5.4399 C   0  0  0  0  0  0  0  0  0  0  0  0
    2.3292   -8.1149    4.7505 C   0  0  2  0  0  0  0  0  0  0  0  0
    2.2843   -7.8746    3.2007 C   0  0  2  0  0  0  0  0  0  0  0  0
    2.0249   -9.1145    2.5677 O   0  0  0  0  0  0  0  0  0  0  0  0
    0.5310   -9.3727    2.4211 O   0  0  0  0  0  0  0  0  0  0  0  0
    3.6994   -8.6155    7.1520 H   0  0  0  0  0  0  0  0  0  0  0  0
    4.1898  -10.2761    6.8604 H   0  0  0  0  0  0  0  0  0  0  0  0
    2.5061   -9.9167    7.0545 H   0  0  0  0  0  0  0  0  0  0  0  0
    2.8970  -10.2159    4.6862 H   0  0  0  0  0  0  0  0  0  0  0  0
    5.2560   -8.2604    4.9243 H   0  0  0  0  0  0  0  0  0  0  0  0
    5.3520   -9.9797    4.9415 H   0  0  0  0  0  0  0  0  0  0  0  0
    6.0026   -9.5434    2.7936 H   0  0  0  0  0  0  0  0  0  0  0  0
    4.3760  -10.0899    2.6231 H   0  0  0  0  0  0  0  0  0  0  0  0
    5.5905   -7.3548    2.1364 H   0  0  0  0  0  0  0  0  0  0  0  0
    3.7368   -9.0314    0.8726 H   0  0  0  0  0  0  0  0  0  0  0  0
    4.0331   -6.7619    3.7092 H   0  0  0  0  0  0  0  0  0  0  0  0
    3.7207   -4.9853    2.5310 H   0  0  0  0  0  0  0  0  0  0  0  0
    2.8568   -4.6707   -0.9335 H   0  0  0  0  0  0  0  0  0  0  0  0
    2.1715   -4.0160    0.5064 H   0  0  0  0  0  0  0  0  0  0  0  0
    5.1877   -4.2982   -0.1846 H   0  0  0  0  0  0  0  0  0  0  0  0
    5.5693   -2.2251    0.7772 H   0  0  0  0  0  0  0  0  0  0  0  0
    2.2090   -3.1963    2.2109 H   0  0  0  0  0  0  0  0  0  0  0  0
    0.6018   -1.5950    3.1462 H   0  0  0  0  0  0  0  0  0  0  0  0
    1.0885    0.8518    3.1144 H   0  0  0  0  0  0  0  0  0  0  0  0
    3.1987    1.6710    2.0761 H   0  0  0  0  0  0  0  0  0  0  0  0
    4.7658    0.0705    1.0182 H   0  0  0  0  0  0  0  0  0  0  0  0
    1.1354   -7.1349    1.5319 H   0  0  0  0  0  0  0  0  0  0  0  0
   -1.7543   -8.4678    1.6345 H   0  0  0  0  0  0  0  0  0  0  0  0
   -2.4515   -8.1033    3.2071 H   0  0  0  0  0  0  0  0  0  0  0  0
   -2.0308   -9.7628    2.7811 H   0  0  0  0  0  0  0  0  0  0  0  0
   -1.1083   -8.6710    5.2264 H   0  0  0  0  0  0  0  0  0  0  0  0
   -0.0494   -9.9877    4.8106 H   0  0  0  0  0  0  0  0  0  0  0  0
    0.6121   -7.1185    5.5450 H   0  0  0  0  0  0  0  0  0  0  0  0
    1.0061   -8.5057    6.4659 H   0  0  0  0  0  0  0  0  0  0  0  0
    2.7648   -7.2348    5.2235 H   0  0  0  0  0  0  0  0  0  0  0  0
  1  2  1  0
  1 30  1  0
  1 31  1  0
  1 32  1  0
  2 26  1  0
  2  3  1  0
  2 33  1  6
  3  4  1  0
  3 34  1  0
  3 35  1  0
  4  5  1  0
  4 36  1  0
  4 37  1  0
  5  6  1  0
  5  7  1  0
  5 38  1  6
  6 39  1  0
  7 27  1  0
  7  8  1  0
  7 40  1  1
  8  9  1  0
  8 19  1  0
  8 41  1  1
  9 10  1  0
 10 11  1  0
 10 42  1  0
 10 43  1  0
 11 12  2  3
 11 44  1  0
 12 13  1  0
 12 45  1  0
 13 18  1  0
 13 14  2  0
 14 15  1  0
 14 46  1  0
 15 16  2  0
 15 47  1  0
 16 17  1  0
 16 48  1  0
 17 18  2  0
 17 49  1  0
 18 50  1  0
 19 20  1  0
 20 27  1  0
 20 21  1  0
 20 51  1  6
 21 22  1  0
 22 29  1  0
 22 23  1  6
 22 24  1  0
 23 52  1  0
 23 53  1  0
 23 54  1  0
 24 25  1  0
 24 55  1  0
 24 56  1  0
 25 26  1  0
 25 57  1  0
 25 58  1  0
 26 27  1  0
 26 59  1  1
 27 28  1  6
 28 29  1  0
M  END
>  <i_m_ct_stereo_status>  (343) 
1

>  <s_m_source_file>  (343) 
/var/tmp/pbs.5076255.sched01/tmpyj7ipo08/120az4jmrmy.sdf

>  <i_m_source_file_index>  (343) 
18

>  <i_lp_mmshare_version>  (343) 
48012

>  <i_f3d_flags>  (343) 
0

>  <s_epik_input>  (343) 
W0NAQF0xMjNbQ0BIXTRbQ0BIXShbT0hdKVtDSDJdW0NIMl1bQ0BASF0oW0NIM10pW0NAQEhdMltDSDJdW0NIMl1bQ0BdKFtDSDNdKShPTzMpT1tDQEhdMU9bQ0BASF00T1tDSDJdL1tDSF09W0NIXS9jNVtjSF1bY0hdW2NIXVtjSF1bY0hdNQ==

>  <s_epik_cmdline>  (343) 
J2VwaWtfcHl0aG9uJywgJy1waHQnLCAnMi4wJywgJy1waCcsICc3LjAnLCAnLXRuJywgJzgnLCAnLW1hJywgJzIwMCcsICctaW1hZScsICc8aW5maWxlLm1hZT4nLCAnLW9tYWUnLCAnPG91dGZpbGUubWFlPic=

>  <r_lp_tautomer_probability>  (343) 
1

>  <r_epik_Ionization_Penalty>  (343) 
4.36473e-08

>  <r_epik_Ionization_Penalty_Charging>  (343) 
0

>  <r_epik_Ionization_Penalty_Neutral>  (343) 
4.36473e-08

>  <r_epik_State_Penalty>  (343) 
-0

>  <r_epik_Charging_Adjusted_Penalty>  (343) 
0

>  <i_epik_Tot_Q>  (343) 
0

>  <i_epik_Tot_abs_Q>  (343) 
0

>  <s_epik_Chemistry_Notes>  (343) 
This compound contains an acetal/aminal-like group ( X-CH(R)-Y where X, Y are N, S, or O) that may be acid/base labile, releasing an aldehyde.

>  <s_lp_Force_Field>  (343) 
OPLS3e

>  <r_lp_Energy>  (343) 
56.5529

>  <b_lp_Chiralities_Consistent>  (343) 
1

>  <s_lp_Variant>  (343) 
100:0-2

>  <s_i_glide_gridfile>  (343) 
pfpi4k_grid

>  <i_i_glide_lignum>  (343) 
18

>  <i_i_glide_rotatable_bonds>  (343) 
5

>  <r_i_docking_score>  (343) 
-2.78076

>  <r_i_glide_ligand_efficiency>  (343) 
-0.0958882

>  <r_i_glide_ligand_efficiency_sa>  (343) 
-0.294599

>  <r_i_glide_ligand_efficiency_ln>  (343) 
-0.636723

>  <r_i_glide_gscore>  (343) 
-2.78076

>  <r_i_glide_lipo>  (343) 
-0.244715

>  <r_i_glide_hbond>  (343) 
0

>  <r_i_glide_metal>  (343) 
-0

>  <r_i_glide_rewards>  (343) 
-1.17185

>  <r_i_glide_evdw>  (343) 
-28.8642

>  <r_i_glide_ecoul>  (343) 
-1.40787

>  <r_i_glide_erotb>  (343) 
0.363432

>  <r_i_glide_esite>  (343) 
-0.0732352

>  <r_i_glide_emodel>  (343) 
-40.4681

>  <r_i_glide_energy>  (343) 
-30.2721

>  <r_i_glide_einternal>  (343) 
1.01276

>  <r_i_glide_intrahb_reward>  (343) 
-0.5

>  <i_i_glide_confnum>  (343) 
1

>  <i_i_glide_posenum>  (343) 
12

>  <r_i_glide_eff_state_penalty>  (343) 
0

>  <ligand_id>  (343) 
100

>  <original_smiles>  (343) 
CC1CCC(O)C2C(OCC=Cc3ccccc3)OC3OC4(C)CCC1C32OO4

>  <smiles>  (343) 
[H]OC1([H])C([H])([H])C([H])([H])C([H])(C([H])([H])[H])C2([H])C([H])([H])C([H])([H])C3(C([H])([H])[H])OOC24C([H])(OC([H])(OC([H])([H])C([H])=C([H])c2c([H])c([H])c([H])c([H])c2[H])C14[H])O3

$$$$
101:0:0
     RDKit          3D

 75 79  0  0  1  0  0  0  0  0999 V2000
   -0.2558    3.5764    5.7383 C   0  0  0  0  0  0  0  0  0  0  0  0
   -0.9579    2.6895    4.6800 C   0  0  0  0  0  0  0  0  0  0  0  0
   -2.4419    3.0963    4.6259 C   0  0  0  0  0  0  0  0  0  0  0  0
   -0.3253    2.8840    3.2875 C   0  0  0  0  0  0  0  0  0  0  0  0
    1.1070    2.3136    3.1754 C   0  0  0  0  0  0  0  0  0  0  0  0
    1.2401    0.7970    3.5522 C   0  0  2  0  0  0  0  0  0  0  0  0
    0.4293    0.0323    2.4798 C   0  0  0  0  0  0  0  0  0  0  0  0
    0.5737    0.6297    4.9550 C   0  0  2  0  0  0  0  0  0  0  0  0
    0.6255   -0.8182    5.4536 C   0  0  0  0  0  0  0  0  0  0  0  0
    2.0714   -1.2739    5.5871 C   0  0  0  0  0  0  0  0  0  0  0  0
    2.4647   -1.7590    6.6477 O   0  0  0  0  0  0  0  0  0  0  0  0
    3.0162   -1.0861    4.3844 C   0  0  2  0  0  0  0  0  0  0  0  0
    2.7665    0.2820    3.6009 C   0  0  2  0  0  0  0  0  0  0  0  0
    3.6372    1.3385    4.3520 C   0  0  0  0  0  0  0  0  0  0  0  0
    3.4007    0.2108    2.1861 C   0  0  0  0  0  0  0  0  0  0  0  0
    3.3476   -1.1503    1.4878 C   0  0  0  0  0  0  0  0  0  0  0  0
    4.1263   -2.2456    2.2546 C   0  0  2  0  0  0  0  0  0  0  0  0
    5.6398   -1.8865    2.3726 C   0  0  0  0  0  0  0  0  0  0  0  0
    6.3776   -1.4258    1.0935 C   0  0  0  0  0  0  0  0  0  0  0  0
    6.0817   -2.2110   -0.1864 C   0  0  0  0  0  0  0  0  0  0  0  0
    6.1868   -1.6785   -1.2888 O   0  0  0  0  0  0  0  0  0  0  0  0
    5.7798   -3.5050   -0.0048 O   0  0  0  0  0  0  0  0  0  0  0  0
    4.4254   -3.9402    0.1392 C   0  0  0  0  0  0  0  0  0  0  0  0
    3.4787   -3.4185   -0.9769 C   0  0  0  0  0  0  0  0  0  0  0  0
    4.5562   -5.4621   -0.0663 C   0  0  0  0  0  0  0  0  0  0  0  0
    3.9896   -3.6634    1.6146 C   0  0  2  0  0  0  0  0  0  0  0  0
    2.6174   -4.1865    2.0538 C   0  0  0  0  0  0  0  0  0  0  0  0
    2.2295   -3.3740    3.2997 C   0  0  0  0  0  0  0  0  0  0  0  0
    3.4196   -2.4399    3.6484 C   0  0  2  0  0  0  0  0  0  0  0  0
    4.3225   -3.2493    4.6397 C   0  0  0  0  0  0  0  0  0  0  0  0
   -0.8652    1.1939    5.0536 C   0  0  0  0  0  0  0  0  0  0  0  0
   -0.3649    4.6380    5.5034 H   0  0  0  0  0  0  0  0  0  0  0  0
    0.8154    3.3824    5.8017 H   0  0  0  0  0  0  0  0  0  0  0  0
   -0.6672    3.4128    6.7362 H   0  0  0  0  0  0  0  0  0  0  0  0
   -2.9903    2.5078    3.8876 H   0  0  0  0  0  0  0  0  0  0  0  0
   -2.5540    4.1460    4.3484 H   0  0  0  0  0  0  0  0  0  0  0  0
   -2.9327    2.9543    5.5901 H   0  0  0  0  0  0  0  0  0  0  0  0
   -0.9615    2.4384    2.5227 H   0  0  0  0  0  0  0  0  0  0  0  0
   -0.3056    3.9473    3.0419 H   0  0  0  0  0  0  0  0  0  0  0  0
    1.4652    2.4944    2.1632 H   0  0  0  0  0  0  0  0  0  0  0  0
    1.7219    2.9394    3.8158 H   0  0  0  0  0  0  0  0  0  0  0  0
    0.4483   -1.0346    2.6421 H   0  0  0  0  0  0  0  0  0  0  0  0
    0.7878    0.2253    1.4702 H   0  0  0  0  0  0  0  0  0  0  0  0
   -0.6231    0.2986    2.4631 H   0  0  0  0  0  0  0  0  0  0  0  0
    1.1522    1.2053    5.6767 H   0  0  0  0  0  0  0  0  0  0  0  0
    0.1612   -0.8803    6.4371 H   0  0  0  0  0  0  0  0  0  0  0  0
    0.0786   -1.4944    4.7988 H   0  0  0  0  0  0  0  0  0  0  0  0
    3.9491   -0.8799    4.9074 H   0  0  0  0  0  0  0  0  0  0  0  0
    4.6683    1.0008    4.4682 H   0  0  0  0  0  0  0  0  0  0  0  0
    3.2696    1.5699    5.3497 H   0  0  0  0  0  0  0  0  0  0  0  0
    3.7237    2.2717    3.7946 H   0  0  0  0  0  0  0  0  0  0  0  0
    2.9500    0.9485    1.5264 H   0  0  0  0  0  0  0  0  0  0  0  0
    4.4469    0.5131    2.2292 H   0  0  0  0  0  0  0  0  0  0  0  0
    2.3225   -1.4618    1.3053 H   0  0  0  0  0  0  0  0  0  0  0  0
    3.7627   -0.9851    0.5012 H   0  0  0  0  0  0  0  0  0  0  0  0
    5.7655   -1.1031    3.1201 H   0  0  0  0  0  0  0  0  0  0  0  0
    6.1889   -2.7394    2.7754 H   0  0  0  0  0  0  0  0  0  0  0  0
    6.1326   -0.3823    0.8963 H   0  0  0  0  0  0  0  0  0  0  0  0
    7.4520   -1.4547    1.2691 H   0  0  0  0  0  0  0  0  0  0  0  0
    2.4718   -3.8171   -0.8684 H   0  0  0  0  0  0  0  0  0  0  0  0
    3.8328   -3.7382   -1.9568 H   0  0  0  0  0  0  0  0  0  0  0  0
    3.3869   -2.3390   -1.0293 H   0  0  0  0  0  0  0  0  0  0  0  0
    3.5949   -5.9621    0.0355 H   0  0  0  0  0  0  0  0  0  0  0  0
    5.2464   -5.9239    0.6400 H   0  0  0  0  0  0  0  0  0  0  0  0
    4.9267   -5.6920   -1.0661 H   0  0  0  0  0  0  0  0  0  0  0  0
    4.6946   -4.2851    2.1636 H   0  0  0  0  0  0  0  0  0  0  0  0
    1.8695   -4.0434    1.2771 H   0  0  0  0  0  0  0  0  0  0  0  0
    2.6621   -5.2549    2.2742 H   0  0  0  0  0  0  0  0  0  0  0  0
    1.3312   -2.8139    3.0684 H   0  0  0  0  0  0  0  0  0  0  0  0
    1.9593   -4.0303    4.1278 H   0  0  0  0  0  0  0  0  0  0  0  0
    4.7131   -4.1763    4.2292 H   0  0  0  0  0  0  0  0  0  0  0  0
    3.7776   -3.5576    5.5294 H   0  0  0  0  0  0  0  0  0  0  0  0
    5.1798   -2.6714    4.9836 H   0  0  0  0  0  0  0  0  0  0  0  0
   -1.2552    1.0493    6.0609 H   0  0  0  0  0  0  0  0  0  0  0  0
   -1.5320    0.6225    4.4081 H   0  0  0  0  0  0  0  0  0  0  0  0
  1  2  1  0
  1 32  1  0
  1 33  1  0
  1 34  1  0
  2 31  1  0
  2  3  1  0
  2  4  1  0
  3 35  1  0
  3 36  1  0
  3 37  1  0
  4  5  1  0
  4 38  1  0
  4 39  1  0
  5  6  1  0
  5 40  1  0
  5 41  1  0
  6 13  1  0
  6  7  1  6
  6  8  1  0
  7 42  1  0
  7 43  1  0
  7 44  1  0
  8  9  1  0
  8 31  1  0
  8 45  1  1
  9 10  1  0
  9 46  1  0
  9 47  1  0
 10 11  2  0
 10 12  1  0
 12 29  1  0
 12 13  1  0
 12 48  1  1
 13 14  1  1
 13 15  1  0
 14 49  1  0
 14 50  1  0
 14 51  1  0
 15 16  1  0
 15 52  1  0
 15 53  1  0
 17 16  1  6
 16 54  1  0
 16 55  1  0
 17 26  1  0
 17 29  1  0
 17 18  1  0
 18 19  1  0
 18 56  1  0
 18 57  1  0
 19 20  1  0
 19 58  1  0
 19 59  1  0
 20 21  2  0
 20 22  1  0
 22 23  1  0
 23 24  1  0
 23 25  1  0
 23 26  1  0
 24 60  1  0
 24 61  1  0
 24 62  1  0
 25 63  1  0
 25 64  1  0
 25 65  1  0
 26 27  1  0
 26 66  1  1
 27 28  1  0
 27 67  1  0
 27 68  1  0
 28 29  1  0
 28 69  1  0
 28 70  1  0
 29 30  1  1
 30 71  1  0
 30 72  1  0
 30 73  1  0
 31 74  1  0
 31 75  1  0
M  END
>  <i_m_ct_stereo_status>  (344) 
1

>  <s_m_source_file>  (344) 
/var/tmp/pbs.5076255.sched01/tmpyj7ipo08/120az4jmrmy.sdf

>  <i_m_source_file_index>  (344) 
19

>  <i_lp_mmshare_version>  (344) 
48012

>  <i_f3d_flags>  (344) 
0

>  <s_epik_input>  (344) 
W0NIMl0xW0NIMl1DKFtDSDNdKShbQ0gzXSlbQ0gyXVtDQEBIXShbQ0gyXUMyPU8pW0NAXTEoW0NIM10pW0NAXShbQ0gzXSkoW0NIMl1bQ0gyXTMpW0NAQEhdMltDQEBdNChbQ0gzXSlbQ0gyXVtDSDJdW0NASF0oW0NAQF0zNDUpQyhbQ0gzXSkoW0NIM10pT0MoPU8pW0NIMl1bQ0gyXTU=

>  <s_epik_cmdline>  (344) 
J2VwaWtfcHl0aG9uJywgJy1waHQnLCAnMi4wJywgJy1waCcsICc3LjAnLCAnLXRuJywgJzgnLCAnLW1hJywgJzIwMCcsICctaW1hZScsICc8aW5maWxlLm1hZT4nLCAnLW9tYWUnLCAnPG91dGZpbGUubWFlPic=

>  <r_lp_tautomer_probability>  (344) 
1

>  <r_epik_Ionization_Penalty>  (344) 
5.0913e-14

>  <r_epik_Ionization_Penalty_Charging>  (344) 
0

>  <r_epik_Ionization_Penalty_Neutral>  (344) 
5.0913e-14

>  <r_epik_State_Penalty>  (344) 
-0

>  <r_epik_Charging_Adjusted_Penalty>  (344) 
0

>  <i_epik_Tot_Q>  (344) 
0

>  <i_epik_Tot_abs_Q>  (344) 
0

>  <s_epik_Chemistry_Notes>  (344) 
This compound has an ester and may undergo hydrolysis at high or low pH.

>  <s_lp_Force_Field>  (344) 
OPLS3e

>  <r_lp_Energy>  (344) 
95.6297

>  <b_lp_Chiralities_Consistent>  (344) 
1

>  <s_lp_Variant>  (344) 
101:0-1

>  <s_i_glide_gridfile>  (344) 
pfpi4k_grid

>  <i_i_glide_lignum>  (344) 
19

>  <i_i_glide_rotatable_bonds>  (344) 
0

>  <r_i_docking_score>  (344) 
-2.85951

>  <r_i_glide_ligand_efficiency>  (344) 
-0.0922424

>  <r_i_glide_ligand_efficiency_sa>  (344) 
-0.289768

>  <r_i_glide_ligand_efficiency_ln>  (344) 
-0.644908

>  <r_i_glide_gscore>  (344) 
-2.85951

>  <r_i_glide_lipo>  (344) 
-0.322562

>  <r_i_glide_hbond>  (344) 
-0.133001

>  <r_i_glide_metal>  (344) 
-0

>  <r_i_glide_rewards>  (344) 
-0.486497

>  <r_i_glide_evdw>  (344) 
-29.4225

>  <r_i_glide_ecoul>  (344) 
-2.91464

>  <r_i_glide_erotb>  (344) 
0

>  <r_i_glide_esite>  (344) 
-0.00913223

>  <r_i_glide_emodel>  (344) 
-37.984

>  <r_i_glide_energy>  (344) 
-32.3371

>  <r_i_glide_einternal>  (344) 
0

>  <r_i_glide_intrahb_reward>  (344) 
-0

>  <i_i_glide_confnum>  (344) 
2

>  <i_i_glide_posenum>  (344) 
36

>  <r_i_glide_eff_state_penalty>  (344) 
0

>  <ligand_id>  (344) 
101

>  <original_smiles>  (344) 
CC1(C)CCC2(C)C(CC(=O)C3C2(C)CCC24CCC(=O)OC(C)(C)C2CCC34C)C1

>  <smiles>  (344) 
[H]C([H])([H])C1(C([H])([H])[H])OC(=O)C([H])([H])C([H])([H])C23C([H])([H])C([H])([H])C4(C([H])([H])[H])C([H])(C(=O)C([H])([H])C5([H])C([H])([H])C(C([H])([H])[H])(C([H])([H])[H])C([H])([H])C([H])([H])C54C([H])([H])[H])C2(C([H])([H])[H])C([H])([H])C([H])([H])C13[H]

$$$$
101:0:1
     RDKit          3D

 75 79  0  0  1  0  0  0  0  0999 V2000
    6.0595   -8.0280    2.3272 C   0  0  0  0  0  0  0  0  0  0  0  0
    4.5937   -7.8141    1.8808 C   0  0  0  0  0  0  0  0  0  0  0  0
    4.1993   -9.0009    0.9839 C   0  0  0  0  0  0  0  0  0  0  0  0
    3.6415   -7.7600    3.0961 C   0  0  0  0  0  0  0  0  0  0  0  0
    3.8183   -6.4863    3.9525 C   0  0  0  0  0  0  0  0  0  0  0  0
    3.6736   -5.1353    3.1671 C   0  0  2  0  0  0  0  0  0  0  0  0
    2.1988   -5.0797    2.6879 C   0  0  0  0  0  0  0  0  0  0  0  0
    4.6352   -5.2315    1.9392 C   0  0  2  0  0  0  0  0  0  0  0  0
    4.5965   -3.9691    1.0733 C   0  0  0  0  0  0  0  0  0  0  0  0
    5.0374   -2.7610    1.8861 C   0  0  0  0  0  0  0  0  0  0  0  0
    5.9368   -2.0312    1.4663 O   0  0  0  0  0  0  0  0  0  0  0  0
    4.3572   -2.5030    3.2466 C   0  0  2  0  0  0  0  0  0  0  0  0
    4.0499   -3.8441    4.0595 C   0  0  2  0  0  0  0  0  0  0  0  0
    5.3557   -4.1380    4.8641 C   0  0  0  0  0  0  0  0  0  0  0  0
    2.9944   -3.5737    5.1658 C   0  0  0  0  0  0  0  0  0  0  0  0
    1.9005   -2.5613    4.8174 C   0  0  0  0  0  0  0  0  0  0  0  0
    2.4555   -1.1426    4.5384 C   0  0  2  0  0  0  0  0  0  0  0  0
    3.1883   -0.5592    5.7895 C   0  0  0  0  0  0  0  0  0  0  0  0
    2.4654   -0.6520    7.1565 C   0  0  0  0  0  0  0  0  0  0  0  0
    0.9683   -0.3277    7.1629 C   0  0  0  0  0  0  0  0  0  0  0  0
    0.2109   -0.8556    7.9806 O   0  0  0  0  0  0  0  0  0  0  0  0
    0.5737    0.5785    6.2500 O   0  0  0  0  0  0  0  0  0  0  0  0
    0.1049    0.1831    4.9559 C   0  0  0  0  0  0  0  0  0  0  0  0
   -1.0087   -0.8963    5.0096 C   0  0  0  0  0  0  0  0  0  0  0  0
   -0.5647    1.4708    4.4340 C   0  0  0  0  0  0  0  0  0  0  0  0
    1.3570   -0.1330    4.0716 C   0  0  2  0  0  0  0  0  0  0  0  0
    1.1123   -0.4417    2.5904 C   0  0  0  0  0  0  0  0  0  0  0  0
    2.3574   -1.1933    2.0948 C   0  0  0  0  0  0  0  0  0  0  0  0
    3.3772   -1.2472    3.2640 C   0  0  2  0  0  0  0  0  0  0  0  0
    4.2695    0.0283    3.1072 C   0  0  0  0  0  0  0  0  0  0  0  0
    4.4404   -6.5021    1.0778 C   0  0  0  0  0  0  0  0  0  0  0  0
    6.1807   -8.9847    2.8396 H   0  0  0  0  0  0  0  0  0  0  0  0
    6.4080   -7.2567    3.0143 H   0  0  0  0  0  0  0  0  0  0  0  0
    6.7403   -8.0251    1.4727 H   0  0  0  0  0  0  0  0  0  0  0  0
    3.1637   -8.9315    0.6529 H   0  0  0  0  0  0  0  0  0  0  0  0
    4.3009   -9.9522    1.5099 H   0  0  0  0  0  0  0  0  0  0  0  0
    4.8269   -9.0461    0.0928 H   0  0  0  0  0  0  0  0  0  0  0  0
    2.6091   -7.8389    2.7579 H   0  0  0  0  0  0  0  0  0  0  0  0
    3.7987   -8.6418    3.7199 H   0  0  0  0  0  0  0  0  0  0  0  0
    3.1144   -6.5298    4.7825 H   0  0  0  0  0  0  0  0  0  0  0  0
    4.8018   -6.5793    4.4051 H   0  0  0  0  0  0  0  0  0  0  0  0
    1.9790   -4.1821    2.1303 H   0  0  0  0  0  0  0  0  0  0  0  0
    1.4987   -5.1384    3.5192 H   0  0  0  0  0  0  0  0  0  0  0  0
    1.9296   -5.8982    2.0277 H   0  0  0  0  0  0  0  0  0  0  0  0
    5.6574   -5.2980    2.3115 H   0  0  0  0  0  0  0  0  0  0  0  0
    5.2859   -4.0845    0.2375 H   0  0  0  0  0  0  0  0  0  0  0  0
    3.6097   -3.7977    0.6469 H   0  0  0  0  0  0  0  0  0  0  0  0
    5.1952   -2.0886    3.8018 H   0  0  0  0  0  0  0  0  0  0  0  0
    5.6925   -3.2621    5.4228 H   0  0  0  0  0  0  0  0  0  0  0  0
    6.1873   -4.4436    4.2331 H   0  0  0  0  0  0  0  0  0  0  0  0
    5.2123   -4.9041    5.6265 H   0  0  0  0  0  0  0  0  0  0  0  0
    2.5162   -4.5014    5.4730 H   0  0  0  0  0  0  0  0  0  0  0  0
    3.4809   -3.2238    6.0759 H   0  0  0  0  0  0  0  0  0  0  0  0
    1.2981   -2.9050    3.9805 H   0  0  0  0  0  0  0  0  0  0  0  0
    1.2249   -2.5619    5.6629 H   0  0  0  0  0  0  0  0  0  0  0  0
    4.1513   -1.0559    5.8990 H   0  0  0  0  0  0  0  0  0  0  0  0
    3.4362    0.4896    5.6191 H   0  0  0  0  0  0  0  0  0  0  0  0
    2.5701   -1.6658    7.5469 H   0  0  0  0  0  0  0  0  0  0  0  0
    2.9572    0.0025    7.8744 H   0  0  0  0  0  0  0  0  0  0  0  0
   -1.3806   -1.1283    4.0163 H   0  0  0  0  0  0  0  0  0  0  0  0
   -1.8616   -0.5364    5.5821 H   0  0  0  0  0  0  0  0  0  0  0  0
   -0.7109   -1.8338    5.4655 H   0  0  0  0  0  0  0  0  0  0  0  0
   -0.9575    1.3427    3.4257 H   0  0  0  0  0  0  0  0  0  0  0  0
    0.1290    2.3115    4.4083 H   0  0  0  0  0  0  0  0  0  0  0  0
   -1.3996    1.7681    5.0678 H   0  0  0  0  0  0  0  0  0  0  0  0
    1.8594    0.8326    4.0563 H   0  0  0  0  0  0  0  0  0  0  0  0
    0.2313   -1.0641    2.4560 H   0  0  0  0  0  0  0  0  0  0  0  0
    0.9538    0.4729    2.0164 H   0  0  0  0  0  0  0  0  0  0  0  0
    2.0491   -2.1827    1.7805 H   0  0  0  0  0  0  0  0  0  0  0  0
    2.7698   -0.7250    1.1996 H   0  0  0  0  0  0  0  0  0  0  0  0
    3.7188    0.9625    3.1588 H   0  0  0  0  0  0  0  0  0  0  0  0
    4.7616    0.0596    2.1374 H   0  0  0  0  0  0  0  0  0  0  0  0
    5.0557    0.0802    3.8598 H   0  0  0  0  0  0  0  0  0  0  0  0
    5.1511   -6.5013    0.2500 H   0  0  0  0  0  0  0  0  0  0  0  0
    3.4614   -6.4819    0.6001 H   0  0  0  0  0  0  0  0  0  0  0  0
  1  2  1  0
  1 32  1  0
  1 33  1  0
  1 34  1  0
  2 31  1  0
  2  3  1  0
  2  4  1  0
  3 35  1  0
  3 36  1  0
  3 37  1  0
  4  5  1  0
  4 38  1  0
  4 39  1  0
  5  6  1  0
  5 40  1  0
  5 41  1  0
  6 13  1  0
  6  7  1  6
  6  8  1  0
  7 42  1  0
  7 43  1  0
  7 44  1  0
  8  9  1  0
  8 31  1  0
  8 45  1  1
  9 10  1  0
  9 46  1  0
  9 47  1  0
 10 11  2  0
 10 12  1  0
 12 29  1  0
 12 13  1  0
 12 48  1  1
 13 14  1  1
 13 15  1  0
 14 49  1  0
 14 50  1  0
 14 51  1  0
 15 16  1  0
 15 52  1  0
 15 53  1  0
 17 16  1  1
 16 54  1  0
 16 55  1  0
 17 26  1  0
 17 29  1  0
 17 18  1  0
 18 19  1  0
 18 56  1  0
 18 57  1  0
 19 20  1  0
 19 58  1  0
 19 59  1  0
 20 21  2  0
 20 22  1  0
 22 23  1  0
 23 24  1  0
 23 25  1  0
 23 26  1  0
 24 60  1  0
 24 61  1  0
 24 62  1  0
 25 63  1  0
 25 64  1  0
 25 65  1  0
 26 27  1  0
 26 66  1  6
 27 28  1  0
 27 67  1  0
 27 68  1  0
 28 29  1  0
 28 69  1  0
 28 70  1  0
 29 30  1  6
 30 71  1  0
 30 72  1  0
 30 73  1  0
 31 74  1  0
 31 75  1  0
M  END
>  <i_m_ct_stereo_status>  (345) 
1

>  <s_m_source_file>  (345) 
/var/tmp/pbs.5076255.sched01/tmpyj7ipo08/120az4jmrmy.sdf

>  <i_m_source_file_index>  (345) 
19

>  <i_lp_mmshare_version>  (345) 
48012

>  <i_f3d_flags>  (345) 
0

>  <s_epik_input>  (345) 
W0NIMl0xW0NIMl1DKFtDSDNdKShbQ0gzXSlbQ0gyXVtDQEBIXShbQ0gyXUMyPU8pW0NAXTEoW0NIM10pW0NAXShbQ0gzXSkoW0NIMl1bQ0gyXTMpW0NAQEhdMltDQEBdNChbQ0gzXSlbQ0gyXVtDSDJdW0NASF0oW0NAQF0zNDUpQyhbQ0gzXSkoW0NIM10pT0MoPU8pW0NIMl1bQ0gyXTU=

>  <s_epik_cmdline>  (345) 
J2VwaWtfcHl0aG9uJywgJy1waHQnLCAnMi4wJywgJy1waCcsICc3LjAnLCAnLXRuJywgJzgnLCAnLW1hJywgJzIwMCcsICctaW1hZScsICc8aW5maWxlLm1hZT4nLCAnLW9tYWUnLCAnPG91dGZpbGUubWFlPic=

>  <r_lp_tautomer_probability>  (345) 
1

>  <r_epik_Ionization_Penalty>  (345) 
5.0913e-14

>  <r_epik_Ionization_Penalty_Charging>  (345) 
0

>  <r_epik_Ionization_Penalty_Neutral>  (345) 
5.0913e-14

>  <r_epik_State_Penalty>  (345) 
-0

>  <r_epik_Charging_Adjusted_Penalty>  (345) 
0

>  <i_epik_Tot_Q>  (345) 
0

>  <i_epik_Tot_abs_Q>  (345) 
0

>  <s_epik_Chemistry_Notes>  (345) 
This compound has an ester and may undergo hydrolysis at high or low pH.

>  <s_lp_Force_Field>  (345) 
OPLS3e

>  <r_lp_Energy>  (345) 
95.6297

>  <b_lp_Chiralities_Consistent>  (345) 
1

>  <s_lp_Variant>  (345) 
101:0-1

>  <s_i_glide_gridfile>  (345) 
pfpi4k_grid

>  <i_i_glide_lignum>  (345) 
19

>  <i_i_glide_rotatable_bonds>  (345) 
0

>  <r_i_docking_score>  (345) 
-2.35693

>  <r_i_glide_ligand_efficiency>  (345) 
-0.0760301

>  <r_i_glide_ligand_efficiency_sa>  (345) 
-0.238839

>  <r_i_glide_ligand_efficiency_ln>  (345) 
-0.53156

>  <r_i_glide_gscore>  (345) 
-2.35693

>  <r_i_glide_lipo>  (345) 
-0.238176

>  <r_i_glide_hbond>  (345) 
0

>  <r_i_glide_metal>  (345) 
-0

>  <r_i_glide_rewards>  (345) 
-0.548005

>  <r_i_glide_evdw>  (345) 
-24.4081

>  <r_i_glide_ecoul>  (345) 
-2.28316

>  <r_i_glide_erotb>  (345) 
0

>  <r_i_glide_esite>  (345) 
-0.00787358

>  <r_i_glide_emodel>  (345) 
-31.3178

>  <r_i_glide_energy>  (345) 
-26.6912

>  <r_i_glide_einternal>  (345) 
0

>  <r_i_glide_intrahb_reward>  (345) 
-0

>  <i_i_glide_confnum>  (345) 
1

>  <i_i_glide_posenum>  (345) 
28

>  <r_i_glide_eff_state_penalty>  (345) 
0

>  <ligand_id>  (345) 
101

>  <original_smiles>  (345) 
CC1(C)CCC2(C)C(CC(=O)C3C2(C)CCC24CCC(=O)OC(C)(C)C2CCC34C)C1

>  <smiles>  (345) 
[H]C([H])([H])C1(C([H])([H])[H])OC(=O)C([H])([H])C([H])([H])C23C([H])([H])C([H])([H])C4(C([H])([H])[H])C([H])(C(=O)C([H])([H])C5([H])C([H])([H])C(C([H])([H])[H])(C([H])([H])[H])C([H])([H])C([H])([H])C54C([H])([H])[H])C2(C([H])([H])[H])C([H])([H])C([H])([H])C13[H]

$$$$
101:0:2
     RDKit          3D

 75 79  0  0  1  0  0  0  0  0999 V2000
    6.0362   -5.6136    1.9858 C   0  0  0  0  0  0  0  0  0  0  0  0
    4.5043   -5.7629    1.8244 C   0  0  0  0  0  0  0  0  0  0  0  0
    4.2319   -7.0789    1.0675 C   0  0  0  0  0  0  0  0  0  0  0  0
    3.8029   -5.8105    3.2014 C   0  0  0  0  0  0  0  0  0  0  0  0
    3.8410   -4.4604    3.9531 C   0  0  0  0  0  0  0  0  0  0  0  0
    3.2524   -3.2441    3.1572 C   0  0  2  0  0  0  0  0  0  0  0  0
    1.7473   -3.5506    2.9844 C   0  0  0  0  0  0  0  0  0  0  0  0
    3.9646   -3.2359    1.7658 C   0  0  2  0  0  0  0  0  0  0  0  0
    3.4746   -2.0942    0.8687 C   0  0  0  0  0  0  0  0  0  0  0  0
    3.7660   -0.7494    1.5244 C   0  0  0  0  0  0  0  0  0  0  0  0
    4.3934    0.1089    0.9117 O   0  0  0  0  0  0  0  0  0  0  0  0
    3.3038   -0.5311    2.9806 C   0  0  2  0  0  0  0  0  0  0  0  0
    3.4707   -1.8278    3.8968 C   0  0  2  0  0  0  0  0  0  0  0  0
    4.9333   -1.7561    4.4368 C   0  0  0  0  0  0  0  0  0  0  0  0
    2.5998   -1.6976    5.1747 C   0  0  0  0  0  0  0  0  0  0  0  0
    1.2550   -0.9836    5.0044 C   0  0  0  0  0  0  0  0  0  0  0  0
    1.4093    0.4918    4.5611 C   0  0  2  0  0  0  0  0  0  0  0  0
    2.2004    1.3266    5.6196 C   0  0  0  0  0  0  0  0  0  0  0  0
    1.7783    1.1976    7.1051 C   0  0  0  0  0  0  0  0  0  0  0  0
    0.2698    1.1856    7.3831 C   0  0  0  0  0  0  0  0  0  0  0  0
   -0.1990    0.5623    8.3354 O   0  0  0  0  0  0  0  0  0  0  0  0
   -0.4709    1.9090    6.5265 O   0  0  0  0  0  0  0  0  0  0  0  0
   -1.0603    1.3140    5.3663 C   0  0  0  0  0  0  0  0  0  0  0  0
   -1.8614    0.0211    5.6722 C   0  0  0  0  0  0  0  0  0  0  0  0
   -2.0870    2.3822    4.9352 C   0  0  0  0  0  0  0  0  0  0  0  0
    0.0472    1.2012    4.2722 C   0  0  2  0  0  0  0  0  0  0  0  0
   -0.3872    0.7214    2.8830 C   0  0  0  0  0  0  0  0  0  0  0  0
    0.8850    0.2100    2.1895 C   0  0  0  0  0  0  0  0  0  0  0  0
    2.0803    0.4796    3.1391 C   0  0  2  0  0  0  0  0  0  0  0  0
    2.6026    1.8976    2.7546 C   0  0  0  0  0  0  0  0  0  0  0  0
    3.9126   -4.5883    1.0137 C   0  0  0  0  0  0  0  0  0  0  0  0
    6.4661   -6.4705    2.5107 H   0  0  0  0  0  0  0  0  0  0  0  0
    6.3127   -4.7251    2.5549 H   0  0  0  0  0  0  0  0  0  0  0  0
    6.5333   -5.5373    1.0151 H   0  0  0  0  0  0  0  0  0  0  0  0
    3.1632   -7.2443    0.9264 H   0  0  0  0  0  0  0  0  0  0  0  0
    4.6279   -7.9418    1.6097 H   0  0  0  0  0  0  0  0  0  0  0  0
    4.6940   -7.0709    0.0776 H   0  0  0  0  0  0  0  0  0  0  0  0
    2.7722   -6.1382    3.0766 H   0  0  0  0  0  0  0  0  0  0  0  0
    4.2668   -6.5806    3.8187 H   0  0  0  0  0  0  0  0  0  0  0  0
    3.3250   -4.5831    4.9041 H   0  0  0  0  0  0  0  0  0  0  0  0
    4.8837   -4.2998    4.2089 H   0  0  0  0  0  0  0  0  0  0  0  0
    1.2353   -2.7635    2.4540 H   0  0  0  0  0  0  0  0  0  0  0  0
    1.2417   -3.6903    3.9377 H   0  0  0  0  0  0  0  0  0  0  0  0
    1.5531   -4.4576    2.4202 H   0  0  0  0  0  0  0  0  0  0  0  0
    5.0247   -3.0443    1.9276 H   0  0  0  0  0  0  0  0  0  0  0  0
    4.0070   -2.1255   -0.0819 H   0  0  0  0  0  0  0  0  0  0  0  0
    2.4140   -2.1763    0.6367 H   0  0  0  0  0  0  0  0  0  0  0  0
    4.1110    0.1056    3.3395 H   0  0  0  0  0  0  0  0  0  0  0  0
    5.1501   -0.7851    4.8853 H   0  0  0  0  0  0  0  0  0  0  0  0
    5.6804   -1.9169    3.6624 H   0  0  0  0  0  0  0  0  0  0  0  0
    5.1138   -2.4714    5.2405 H   0  0  0  0  0  0  0  0  0  0  0  0
    2.4105   -2.6766    5.6098 H   0  0  0  0  0  0  0  0  0  0  0  0
    3.1495   -1.1719    5.9561 H   0  0  0  0  0  0  0  0  0  0  0  0
    0.6071   -1.5213    4.3181 H   0  0  0  0  0  0  0  0  0  0  0  0
    0.7661   -1.0588    5.9660 H   0  0  0  0  0  0  0  0  0  0  0  0
    3.2564    1.0646    5.5569 H   0  0  0  0  0  0  0  0  0  0  0  0
    2.1681    2.3864    5.3566 H   0  0  0  0  0  0  0  0  0  0  0  0
    2.1830    0.2693    7.5095 H   0  0  0  0  0  0  0  0  0  0  0  0
    2.2301    2.0044    7.6818 H   0  0  0  0  0  0  0  0  0  0  0  0
   -2.3498   -0.3701    4.7824 H   0  0  0  0  0  0  0  0  0  0  0  0
   -2.6518    0.2401    6.3888 H   0  0  0  0  0  0  0  0  0  0  0  0
   -1.2796   -0.7872    6.0994 H   0  0  0  0  0  0  0  0  0  0  0  0
   -2.6165    2.0847    4.0323 H   0  0  0  0  0  0  0  0  0  0  0  0
   -1.6202    3.3471    4.7378 H   0  0  0  0  0  0  0  0  0  0  0  0
   -2.8368    2.5453    5.7093 H   0  0  0  0  0  0  0  0  0  0  0  0
    0.3032    2.2477    4.1181 H   0  0  0  0  0  0  0  0  0  0  0  0
   -1.1129   -0.0839    2.9555 H   0  0  0  0  0  0  0  0  0  0  0  0
   -0.8487    1.5296    2.3122 H   0  0  0  0  0  0  0  0  0  0  0  0
    0.7613   -0.8467    1.9818 H   0  0  0  0  0  0  0  0  0  0  0  0
    1.0119    0.6782    1.2127 H   0  0  0  0  0  0  0  0  0  0  0  0
    1.8723    2.6939    2.8592 H   0  0  0  0  0  0  0  0  0  0  0  0
    2.8905    1.9330    1.7089 H   0  0  0  0  0  0  0  0  0  0  0  0
    3.4729    2.1893    3.3405 H   0  0  0  0  0  0  0  0  0  0  0  0
    4.4399   -4.5060    0.0612 H   0  0  0  0  0  0  0  0  0  0  0  0
    2.8844   -4.8204    0.7399 H   0  0  0  0  0  0  0  0  0  0  0  0
  1  2  1  0
  1 32  1  0
  1 33  1  0
  1 34  1  0
  2 31  1  0
  2  3  1  0
  2  4  1  0
  3 35  1  0
  3 36  1  0
  3 37  1  0
  4  5  1  0
  4 38  1  0
  4 39  1  0
  5  6  1  0
  5 40  1  0
  5 41  1  0
  6 13  1  0
  6  7  1  6
  6  8  1  0
  7 42  1  0
  7 43  1  0
  7 44  1  0
  8  9  1  0
  8 31  1  0
  8 45  1  1
  9 10  1  0
  9 46  1  0
  9 47  1  0
 10 11  2  0
 10 12  1  0
 12 29  1  0
 12 13  1  0
 12 48  1  1
 13 14  1  1
 13 15  1  0
 14 49  1  0
 14 50  1  0
 14 51  1  0
 15 16  1  0
 15 52  1  0
 15 53  1  0
 17 16  1  1
 16 54  1  0
 16 55  1  0
 17 26  1  0
 17 29  1  0
 17 18  1  0
 18 19  1  0
 18 56  1  0
 18 57  1  0
 19 20  1  0
 19 58  1  0
 19 59  1  0
 20 21  2  0
 20 22  1  0
 22 23  1  0
 23 24  1  0
 23 25  1  0
 23 26  1  0
 24 60  1  0
 24 61  1  0
 24 62  1  0
 25 63  1  0
 25 64  1  0
 25 65  1  0
 26 27  1  0
 26 66  1  6
 27 28  1  0
 27 67  1  0
 27 68  1  0
 28 29  1  0
 28 69  1  0
 28 70  1  0
 29 30  1  6
 30 71  1  0
 30 72  1  0
 30 73  1  0
 31 74  1  0
 31 75  1  0
M  END
>  <i_m_ct_stereo_status>  (346) 
1

>  <s_m_source_file>  (346) 
/var/tmp/pbs.5076255.sched01/tmpyj7ipo08/120az4jmrmy.sdf

>  <i_m_source_file_index>  (346) 
19

>  <i_lp_mmshare_version>  (346) 
48012

>  <i_f3d_flags>  (346) 
0

>  <s_epik_input>  (346) 
W0NIMl0xW0NIMl1DKFtDSDNdKShbQ0gzXSlbQ0gyXVtDQEBIXShbQ0gyXUMyPU8pW0NAXTEoW0NIM10pW0NAXShbQ0gzXSkoW0NIMl1bQ0gyXTMpW0NAQEhdMltDQEBdNChbQ0gzXSlbQ0gyXVtDSDJdW0NASF0oW0NAQF0zNDUpQyhbQ0gzXSkoW0NIM10pT0MoPU8pW0NIMl1bQ0gyXTU=

>  <s_epik_cmdline>  (346) 
J2VwaWtfcHl0aG9uJywgJy1waHQnLCAnMi4wJywgJy1waCcsICc3LjAnLCAnLXRuJywgJzgnLCAnLW1hJywgJzIwMCcsICctaW1hZScsICc8aW5maWxlLm1hZT4nLCAnLW9tYWUnLCAnPG91dGZpbGUubWFlPic=

>  <r_lp_tautomer_probability>  (346) 
1

>  <r_epik_Ionization_Penalty>  (346) 
5.0913e-14

>  <r_epik_Ionization_Penalty_Charging>  (346) 
0

>  <r_epik_Ionization_Penalty_Neutral>  (346) 
5.0913e-14

>  <r_epik_State_Penalty>  (346) 
-0

>  <r_epik_Charging_Adjusted_Penalty>  (346) 
0

>  <i_epik_Tot_Q>  (346) 
0

>  <i_epik_Tot_abs_Q>  (346) 
0

>  <s_epik_Chemistry_Notes>  (346) 
This compound has an ester and may undergo hydrolysis at high or low pH.

>  <s_lp_Force_Field>  (346) 
OPLS3e

>  <r_lp_Energy>  (346) 
95.6297

>  <b_lp_Chiralities_Consistent>  (346) 
1

>  <s_lp_Variant>  (346) 
101:0-1

>  <s_i_glide_gridfile>  (346) 
pfpi4k_grid

>  <i_i_glide_lignum>  (346) 
19

>  <i_i_glide_rotatable_bonds>  (346) 
0

>  <r_i_docking_score>  (346) 
-2.33922

>  <r_i_glide_ligand_efficiency>  (346) 
-0.0754586

>  <r_i_glide_ligand_efficiency_sa>  (346) 
-0.237044

>  <r_i_glide_ligand_efficiency_ln>  (346) 
-0.527565

>  <r_i_glide_gscore>  (346) 
-2.33922

>  <r_i_glide_lipo>  (346) 
-0.250226

>  <r_i_glide_hbond>  (346) 
0

>  <r_i_glide_metal>  (346) 
-0

>  <r_i_glide_rewards>  (346) 
-0.486497

>  <r_i_glide_evdw>  (346) 
-27.3162

>  <r_i_glide_ecoul>  (346) 
-1.52164

>  <r_i_glide_erotb>  (346) 
0

>  <r_i_glide_esite>  (346) 
-0.00843609

>  <r_i_glide_emodel>  (346) 
-33.4253

>  <r_i_glide_energy>  (346) 
-28.8379

>  <r_i_glide_einternal>  (346) 
0

>  <r_i_glide_intrahb_reward>  (346) 
-0

>  <i_i_glide_confnum>  (346) 
2

>  <i_i_glide_posenum>  (346) 
17

>  <r_i_glide_eff_state_penalty>  (346) 
0

>  <ligand_id>  (346) 
101

>  <original_smiles>  (346) 
CC1(C)CCC2(C)C(CC(=O)C3C2(C)CCC24CCC(=O)OC(C)(C)C2CCC34C)C1

>  <smiles>  (346) 
[H]C([H])([H])C1(C([H])([H])[H])OC(=O)C([H])([H])C([H])([H])C23C([H])([H])C([H])([H])C4(C([H])([H])[H])C([H])(C(=O)C([H])([H])C5([H])C([H])([H])C(C([H])([H])[H])(C([H])([H])[H])C([H])([H])C([H])([H])C54C([H])([H])[H])C2(C([H])([H])[H])C([H])([H])C([H])([H])C13[H]

$$$$
102:0:0
     RDKit          3D

 44 47  0  0  1  0  0  0  0  0999 V2000
    2.9828    0.9397    2.6863 C   0  0  0  0  0  0  0  0  0  0  0  0
    3.6818   -0.0717    1.9804 O   0  0  0  0  0  0  0  0  0  0  0  0
    4.3546   -1.0114    2.6801 C   0  0  0  0  0  0  0  0  0  0  0  0
    4.4349   -0.9994    3.9076 O   0  0  0  0  0  0  0  0  0  0  0  0
    4.8903   -2.1061    1.8070 C   0  0  0  0  0  0  0  0  0  0  0  0
    4.6479   -3.4289    2.0535 C   0  0  0  0  0  0  0  0  0  0  0  0
    3.7602   -4.0017    3.1516 C   0  0  0  0  0  0  0  0  0  0  0  0
    2.5294   -4.6889    2.5246 C   0  0  0  0  0  0  0  0  0  0  0  0
    2.9079   -5.7461    1.4578 C   0  0  0  0  0  0  0  0  0  0  0  0
    3.8812   -5.1739    0.4210 C   0  0  0  0  0  0  0  0  0  0  0  0
    5.0789   -4.5512    1.1085 C   0  0  2  0  0  0  0  0  0  0  0  0
    6.2172   -5.4840    1.5986 C   0  0  0  0  0  0  0  0  0  0  0  0
    7.0928   -4.8974    0.5093 C   0  0  0  0  0  0  0  0  0  0  0  0
    6.1065   -4.0514    0.1476 C   0  0  0  0  0  0  0  0  0  0  0  0
    6.0746   -2.7192   -0.5144 C   0  0  1  0  0  0  0  0  0  0  0  0
    7.3823   -2.3735   -0.9572 O   0  0  0  0  0  0  0  0  0  0  0  0
    5.0844   -2.7523   -1.6905 C   0  0  0  0  0  0  0  0  0  0  0  0
    5.4877   -3.4211   -2.8668 C   0  0  0  0  0  0  0  0  0  0  0  0
    4.5946   -3.6250   -3.9227 C   0  0  0  0  0  0  0  0  0  0  0  0
    3.2993   -3.0953   -3.8738 C   0  0  0  0  0  0  0  0  0  0  0  0
    2.8812   -2.4094   -2.7192 C   0  0  0  0  0  0  0  0  0  0  0  0
    3.7694   -2.2339   -1.6453 C   0  0  0  0  0  0  0  0  0  0  0  0
    5.6721   -1.6943    0.5918 C   0  0  0  0  0  0  0  0  0  0  0  0
    5.9889   -0.5197    0.3818 O   0  0  0  0  0  0  0  0  0  0  0  0
    2.5473    1.6685    2.0038 H   0  0  0  0  0  0  0  0  0  0  0  0
    3.6397    1.4729    3.3698 H   0  0  0  0  0  0  0  0  0  0  0  0
    2.1773    0.5101    3.2768 H   0  0  0  0  0  0  0  0  0  0  0  0
    4.3478   -4.7391    3.7153 H   0  0  0  0  0  0  0  0  0  0  0  0
    3.3965   -3.2591    3.8594 H   0  0  0  0  0  0  0  0  0  0  0  0
    1.9280   -5.1514    3.3099 H   0  0  0  0  0  0  0  0  0  0  0  0
    1.9058   -3.9194    2.0566 H   0  0  0  0  0  0  0  0  0  0  0  0
    3.3835   -6.5914    1.9590 H   0  0  0  0  0  0  0  0  0  0  0  0
    2.0060   -6.1241    0.9604 H   0  0  0  0  0  0  0  0  0  0  0  0
    4.1857   -5.9664   -0.2657 H   0  0  0  0  0  0  0  0  0  0  0  0
    3.3541   -4.4509   -0.1873 H   0  0  0  0  0  0  0  0  0  0  0  0
    6.5322   -5.3006    2.6265 H   0  0  0  0  0  0  0  0  0  0  0  0
    5.9526   -6.5433    1.4732 H   0  0  0  0  0  0  0  0  0  0  0  0
    8.1519   -4.9612    0.2262 H   0  0  0  0  0  0  0  0  0  0  0  0
    7.6729   -2.9795   -1.6369 H   0  0  0  0  0  0  0  0  0  0  0  0
    6.4668   -3.8589   -2.9268 H   0  0  0  0  0  0  0  0  0  0  0  0
    4.9315   -4.1836   -4.7871 H   0  0  0  0  0  0  0  0  0  0  0  0
    2.6175   -3.2292   -4.6915 H   0  0  0  0  0  0  0  0  0  0  0  0
    1.8628   -2.0490   -2.6537 H   0  0  0  0  0  0  0  0  0  0  0  0
    3.3836   -1.7482   -0.7593 H   0  0  0  0  0  0  0  0  0  0  0  0
  1  2  1  0
  1 25  1  0
  1 26  1  0
  1 27  1  0
  2  3  1  0
  3  4  2  0
  3  5  1  0
  5 23  1  0
  5  6  2  0
  6 11  1  0
  6  7  1  0
  7  8  1  0
  7 28  1  0
  7 29  1  0
  8  9  1  0
  8 30  1  0
  8 31  1  0
  9 10  1  0
  9 32  1  0
  9 33  1  0
 11 10  1  6
 10 34  1  0
 10 35  1  0
 11 14  1  0
 11 12  1  0
 12 13  1  0
 12 36  1  0
 12 37  1  0
 13 14  2  0
 13 38  1  0
 14 15  1  0
 15 16  1  6
 15 17  1  0
 15 23  1  0
 16 39  1  0
 17 22  1  0
 17 18  2  0
 18 19  1  0
 18 40  1  0
 19 20  2  0
 19 41  1  0
 20 21  1  0
 20 42  1  0
 21 22  2  0
 21 43  1  0
 22 44  1  0
 23 24  2  0
M  END
>  <i_m_ct_stereo_status>  (347) 
1

>  <s_m_source_file>  (347) 
/var/tmp/pbs.5076255.sched01/tmpyj7ipo08/120az4jmrmy.sdf

>  <i_m_source_file_index>  (347) 
20

>  <i_lp_mmshare_version>  (347) 
48012

>  <i_f3d_flags>  (347) 
0

>  <s_epik_input>  (347) 
W0NIMl0xW0NIMl1bQ0gyXVtDSDJdQyhbQ0BdMTIzKT1DKEMoPU8pT1tDSDNdKUMoPU8pW0NAQF0oW09IXSkoQzM9W0NIXVtDSDJdMiljNFtjSF1bY0hdW2NIXVtjSF1bY0hdNA==

>  <s_epik_cmdline>  (347) 
J2VwaWtfcHl0aG9uJywgJy1waHQnLCAnMi4wJywgJy1waCcsICc3LjAnLCAnLXRuJywgJzgnLCAnLW1hJywgJzIwMCcsICctaW1hZScsICc8aW5maWxlLm1hZT4nLCAnLW9tYWUnLCAnPG91dGZpbGUubWFlPic=

>  <r_epik_Ionization_Penalty>  (347) 
0.000912962

>  <r_epik_Ionization_Penalty_Charging>  (347) 
0

>  <r_epik_Ionization_Penalty_Neutral>  (347) 
0.000912962

>  <r_epik_State_Penalty>  (347) 
0.000591491

>  <r_epik_Charging_Adjusted_Penalty>  (347) 
0.000591491

>  <i_epik_Tot_Q>  (347) 
0

>  <i_epik_Tot_abs_Q>  (347) 
0

>  <s_epik_Chemistry_Notes>  (347) 
This compound has an ester and may undergo hydrolysis at high or low pH.

>  <s_lp_Force_Field>  (347) 
OPLS3e

>  <r_lp_Energy>  (347) 
60.7402

>  <b_lp_Chiralities_Consistent>  (347) 
1

>  <s_lp_Variant>  (347) 
102:0-1

>  <s_i_glide_gridfile>  (347) 
pfpi4k_grid

>  <i_i_glide_lignum>  (347) 
20

>  <i_i_glide_rotatable_bonds>  (347) 
4

>  <r_i_docking_score>  (347) 
-3.81871

>  <r_i_glide_ligand_efficiency>  (347) 
-0.159113

>  <r_i_glide_ligand_efficiency_sa>  (347) 
-0.458961

>  <r_i_glide_ligand_efficiency_ln>  (347) 
-0.913992

>  <r_i_glide_gscore>  (347) 
-3.81871

>  <r_i_glide_lipo>  (347) 
-0.794926

>  <r_i_glide_hbond>  (347) 
0

>  <r_i_glide_metal>  (347) 
-0

>  <r_i_glide_rewards>  (347) 
-1.37274

>  <r_i_glide_evdw>  (347) 
-30.7229

>  <r_i_glide_ecoul>  (347) 
-3.13909

>  <r_i_glide_erotb>  (347) 
0.355967

>  <r_i_glide_esite>  (347) 
0

>  <r_i_glide_emodel>  (347) 
-41.923

>  <r_i_glide_energy>  (347) 
-33.862

>  <r_i_glide_einternal>  (347) 
0.179464

>  <r_i_glide_intrahb_reward>  (347) 
-0

>  <i_i_glide_confnum>  (347) 
4

>  <i_i_glide_posenum>  (347) 
26

>  <r_i_glide_eff_state_penalty>  (347) 
0

>  <ligand_id>  (347) 
102

>  <original_smiles>  (347) 
COC(=O)C1=C2CCCCC23CC=C3C(O)(c2ccccc2)C1=O

>  <smiles>  (347) 
[H]OC1(c2c([H])c([H])c([H])c([H])c2[H])C(=O)C(C(=O)OC([H])([H])[H])=C2C([H])([H])C([H])([H])C([H])([H])C([H])([H])C23C1=C([H])C3([H])[H]

$$$$
102:0:1
     RDKit          3D

 44 47  0  0  1  0  0  0  0  0999 V2000
   -0.8597   -8.6275    3.8807 C   0  0  0  0  0  0  0  0  0  0  0  0
    0.3458   -7.8930    3.9474 O   0  0  0  0  0  0  0  0  0  0  0  0
    0.6280   -6.9547    3.0261 C   0  0  0  0  0  0  0  0  0  0  0  0
   -0.1751   -6.5460    2.1825 O   0  0  0  0  0  0  0  0  0  0  0  0
    2.0310   -6.4728    3.1306 C   0  0  0  0  0  0  0  0  0  0  0  0
    3.0860   -7.3433    3.1434 C   0  0  0  0  0  0  0  0  0  0  0  0
    3.0139   -8.8494    2.9259 C   0  0  0  0  0  0  0  0  0  0  0  0
    3.6860   -9.1999    1.5931 C   0  0  0  0  0  0  0  0  0  0  0  0
    5.1236   -8.6692    1.4874 C   0  0  0  0  0  0  0  0  0  0  0  0
    5.1695   -7.1853    1.8019 C   0  0  0  0  0  0  0  0  0  0  0  0
    4.5357   -6.8827    3.1542 C   0  0  2  0  0  0  0  0  0  0  0  0
    5.3766   -7.1324    4.4320 C   0  0  0  0  0  0  0  0  0  0  0  0
    5.4182   -5.6156    4.6145 C   0  0  0  0  0  0  0  0  0  0  0  0
    4.6150   -5.4412    3.5697 C   0  0  0  0  0  0  0  0  0  0  0  0
    3.6709   -4.3603    3.1040 C   0  0  1  0  0  0  0  0  0  0  0  0
    3.7420   -3.2768    4.0176 O   0  0  0  0  0  0  0  0  0  0  0  0
    4.0132   -3.8755    1.6811 C   0  0  0  0  0  0  0  0  0  0  0  0
    3.0793   -3.1619    0.8921 C   0  0  0  0  0  0  0  0  0  0  0  0
    3.3931   -2.7845   -0.4300 C   0  0  0  0  0  0  0  0  0  0  0  0
    4.6450   -3.1126   -0.9839 C   0  0  0  0  0  0  0  0  0  0  0  0
    5.5901   -3.7955   -0.2028 C   0  0  0  0  0  0  0  0  0  0  0  0
    5.2951   -4.1170    1.1284 C   0  0  0  0  0  0  0  0  0  0  0  0
    2.2436   -4.9908    3.1921 C   0  0  0  0  0  0  0  0  0  0  0  0
    1.2831   -4.2184    3.3190 O   0  0  0  0  0  0  0  0  0  0  0  0
   -0.8206   -9.3833    4.6611 H   0  0  0  0  0  0  0  0  0  0  0  0
   -0.9645   -9.1431    2.9270 H   0  0  0  0  0  0  0  0  0  0  0  0
   -1.7314   -7.9960    4.0504 H   0  0  0  0  0  0  0  0  0  0  0  0
    3.5319   -9.3354    3.7553 H   0  0  0  0  0  0  0  0  0  0  0  0
    2.0096   -9.2611    2.8714 H   0  0  0  0  0  0  0  0  0  0  0  0
    3.6898  -10.2623    1.4688 H   0  0  0  0  0  0  0  0  0  0  0  0
    3.0855   -8.7908    0.7764 H   0  0  0  0  0  0  0  0  0  0  0  0
    5.7727   -9.2074    2.1783 H   0  0  0  0  0  0  0  0  0  0  0  0
    5.5078   -8.8357    0.4806 H   0  0  0  0  0  0  0  0  0  0  0  0
    6.2103   -6.8790    1.7771 H   0  0  0  0  0  0  0  0  0  0  0  0
    4.6364   -6.6767    1.0037 H   0  0  0  0  0  0  0  0  0  0  0  0
    4.8522   -7.7175    5.1940 H   0  0  0  0  0  0  0  0  0  0  0  0
    6.3279   -7.6114    4.1853 H   0  0  0  0  0  0  0  0  0  0  0  0
    5.8158   -4.9546    5.3995 H   0  0  0  0  0  0  0  0  0  0  0  0
    4.5667   -2.8269    3.8985 H   0  0  0  0  0  0  0  0  0  0  0  0
    2.1059   -2.8957    1.2806 H   0  0  0  0  0  0  0  0  0  0  0  0
    2.6672   -2.2359   -1.0149 H   0  0  0  0  0  0  0  0  0  0  0  0
    4.8897   -2.8393   -2.0002 H   0  0  0  0  0  0  0  0  0  0  0  0
    6.5524   -4.0812   -0.6103 H   0  0  0  0  0  0  0  0  0  0  0  0
    6.0634   -4.5911    1.7172 H   0  0  0  0  0  0  0  0  0  0  0  0
  1  2  1  0
  1 25  1  0
  1 26  1  0
  1 27  1  0
  2  3  1  0
  3  4  2  0
  3  5  1  0
  5 23  1  0
  5  6  2  0
  6 11  1  0
  6  7  1  0
  7  8  1  0
  7 28  1  0
  7 29  1  0
  8  9  1  0
  8 30  1  0
  8 31  1  0
  9 10  1  0
  9 32  1  0
  9 33  1  0
 11 10  1  6
 10 34  1  0
 10 35  1  0
 11 14  1  0
 11 12  1  0
 12 13  1  0
 12 36  1  0
 12 37  1  0
 13 14  2  0
 13 38  1  0
 14 15  1  0
 15 16  1  1
 15 17  1  0
 15 23  1  0
 16 39  1  0
 17 22  1  0
 17 18  2  0
 18 19  1  0
 18 40  1  0
 19 20  2  0
 19 41  1  0
 20 21  1  0
 20 42  1  0
 21 22  2  0
 21 43  1  0
 22 44  1  0
 23 24  2  0
M  END
>  <i_m_ct_stereo_status>  (348) 
1

>  <s_m_source_file>  (348) 
/var/tmp/pbs.5076255.sched01/tmpyj7ipo08/120az4jmrmy.sdf

>  <i_m_source_file_index>  (348) 
20

>  <i_lp_mmshare_version>  (348) 
48012

>  <i_f3d_flags>  (348) 
0

>  <s_epik_input>  (348) 
W0NIMl0xW0NIMl1bQ0gyXVtDSDJdQyhbQ0BdMTIzKT1DKEMoPU8pT1tDSDNdKUMoPU8pW0NAQF0oW09IXSkoQzM9W0NIXVtDSDJdMiljNFtjSF1bY0hdW2NIXVtjSF1bY0hdNA==

>  <s_epik_cmdline>  (348) 
J2VwaWtfcHl0aG9uJywgJy1waHQnLCAnMi4wJywgJy1waCcsICc3LjAnLCAnLXRuJywgJzgnLCAnLW1hJywgJzIwMCcsICctaW1hZScsICc8aW5maWxlLm1hZT4nLCAnLW9tYWUnLCAnPG91dGZpbGUubWFlPic=

>  <r_epik_Ionization_Penalty>  (348) 
0.000912962

>  <r_epik_Ionization_Penalty_Charging>  (348) 
0

>  <r_epik_Ionization_Penalty_Neutral>  (348) 
0.000912962

>  <r_epik_State_Penalty>  (348) 
0.000591491

>  <r_epik_Charging_Adjusted_Penalty>  (348) 
0.000591491

>  <i_epik_Tot_Q>  (348) 
0

>  <i_epik_Tot_abs_Q>  (348) 
0

>  <s_epik_Chemistry_Notes>  (348) 
This compound has an ester and may undergo hydrolysis at high or low pH.

>  <s_lp_Force_Field>  (348) 
OPLS3e

>  <r_lp_Energy>  (348) 
60.7402

>  <b_lp_Chiralities_Consistent>  (348) 
1

>  <s_lp_Variant>  (348) 
102:0-1

>  <s_i_glide_gridfile>  (348) 
pfpi4k_grid

>  <i_i_glide_lignum>  (348) 
20

>  <i_i_glide_rotatable_bonds>  (348) 
4

>  <r_i_docking_score>  (348) 
-2.54695

>  <r_i_glide_ligand_efficiency>  (348) 
-0.106123

>  <r_i_glide_ligand_efficiency_sa>  (348) 
-0.306112

>  <r_i_glide_ligand_efficiency_ln>  (348) 
-0.609602

>  <r_i_glide_gscore>  (348) 
-2.54695

>  <r_i_glide_lipo>  (348) 
-0.182203

>  <r_i_glide_hbond>  (348) 
-0.176491

>  <r_i_glide_metal>  (348) 
-0

>  <r_i_glide_rewards>  (348) 
-1.19747

>  <r_i_glide_evdw>  (348) 
-20.884

>  <r_i_glide_ecoul>  (348) 
-1.70998

>  <r_i_glide_erotb>  (348) 
0.355967

>  <r_i_glide_esite>  (348) 
-0.0460509

>  <r_i_glide_emodel>  (348) 
-26.8818

>  <r_i_glide_energy>  (348) 
-22.594

>  <r_i_glide_einternal>  (348) 
1.04309

>  <r_i_glide_intrahb_reward>  (348) 
-0

>  <i_i_glide_confnum>  (348) 
4

>  <i_i_glide_posenum>  (348) 
16

>  <r_i_glide_eff_state_penalty>  (348) 
0

>  <ligand_id>  (348) 
102

>  <original_smiles>  (348) 
COC(=O)C1=C2CCCCC23CC=C3C(O)(c2ccccc2)C1=O

>  <smiles>  (348) 
[H]OC1(c2c([H])c([H])c([H])c([H])c2[H])C(=O)C(C(=O)OC([H])([H])[H])=C2C([H])([H])C([H])([H])C([H])([H])C([H])([H])C23C1=C([H])C3([H])[H]

$$$$
102:0:2
     RDKit          3D

 44 47  0  0  1  0  0  0  0  0999 V2000
    0.5914    0.9156    1.6861 C   0  0  0  0  0  0  0  0  0  0  0  0
    0.8238    0.9916    3.0762 O   0  0  0  0  0  0  0  0  0  0  0  0
   -0.1705    1.3490    3.8982 C   0  0  0  0  0  0  0  0  0  0  0  0
   -1.3613    1.3774    3.5725 O   0  0  0  0  0  0  0  0  0  0  0  0
    0.3338    1.7250    5.2479 C   0  0  0  0  0  0  0  0  0  0  0  0
    1.3505    2.6341    5.4166 C   0  0  0  0  0  0  0  0  0  0  0  0
    2.0074    3.4828    4.3286 C   0  0  0  0  0  0  0  0  0  0  0  0
    1.6533    4.9618    4.5330 C   0  0  0  0  0  0  0  0  0  0  0  0
    1.9957    5.4592    5.9464 C   0  0  0  0  0  0  0  0  0  0  0  0
    1.3990    4.5433    6.9996 C   0  0  0  0  0  0  0  0  0  0  0  0
    1.8177    3.0932    6.7861 C   0  0  2  0  0  0  0  0  0  0  0  0
    3.2159    2.6332    7.2666 C   0  0  0  0  0  0  0  0  0  0  0  0
    2.5021    1.8094    8.3321 C   0  0  0  0  0  0  0  0  0  0  0  0
    1.3172    2.1496    7.8555 C   0  0  0  0  0  0  0  0  0  0  0  0
   -0.0608    1.5449    7.8846 C   0  0  1  0  0  0  0  0  0  0  0  0
   -0.0315    0.3861    8.7181 O   0  0  0  0  0  0  0  0  0  0  0  0
   -1.1078    2.5398    8.4136 C   0  0  0  0  0  0  0  0  0  0  0  0
   -2.4957    2.3897    8.1429 C   0  0  0  0  0  0  0  0  0  0  0  0
   -3.4165    3.3416    8.6082 C   0  0  0  0  0  0  0  0  0  0  0  0
   -2.9698    4.4785    9.3116 C   0  0  0  0  0  0  0  0  0  0  0  0
   -1.6052    4.6293    9.6015 C   0  0  0  0  0  0  0  0  0  0  0  0
   -0.7012    3.6346    9.2084 C   0  0  0  0  0  0  0  0  0  0  0  0
   -0.3493    1.0939    6.4279 C   0  0  0  0  0  0  0  0  0  0  0  0
   -1.1867    0.1946    6.2861 O   0  0  0  0  0  0  0  0  0  0  0  0
    1.5411    0.7107    1.1985 H   0  0  0  0  0  0  0  0  0  0  0  0
    0.2100    1.8502    1.2792 H   0  0  0  0  0  0  0  0  0  0  0  0
   -0.0988    0.1148    1.4331 H   0  0  0  0  0  0  0  0  0  0  0  0
    3.0844    3.3275    4.4040 H   0  0  0  0  0  0  0  0  0  0  0  0
    1.7047    3.2615    3.3122 H   0  0  0  0  0  0  0  0  0  0  0  0
    2.1732    5.5664    3.7889 H   0  0  0  0  0  0  0  0  0  0  0  0
    0.5802    5.0931    4.3563 H   0  0  0  0  0  0  0  0  0  0  0  0
    3.0778    5.4833    6.0751 H   0  0  0  0  0  0  0  0  0  0  0  0
    1.6125    6.4712    6.0945 H   0  0  0  0  0  0  0  0  0  0  0  0
    1.7270    4.9019    7.9688 H   0  0  0  0  0  0  0  0  0  0  0  0
    0.3178    4.6479    6.9345 H   0  0  0  0  0  0  0  0  0  0  0  0
    3.7833    2.0942    6.4995 H   0  0  0  0  0  0  0  0  0  0  0  0
    3.7905    3.4900    7.6254 H   0  0  0  0  0  0  0  0  0  0  0  0
    2.8412    1.0899    9.1025 H   0  0  0  0  0  0  0  0  0  0  0  0
    0.1008    0.6552    9.6188 H   0  0  0  0  0  0  0  0  0  0  0  0
   -2.8811    1.5480    7.5863 H   0  0  0  0  0  0  0  0  0  0  0  0
   -4.4745    3.2063    8.4312 H   0  0  0  0  0  0  0  0  0  0  0  0
   -3.6645    5.2256    9.6604 H   0  0  0  0  0  0  0  0  0  0  0  0
   -1.2410    5.5002   10.1385 H   0  0  0  0  0  0  0  0  0  0  0  0
    0.3347    3.7533    9.4911 H   0  0  0  0  0  0  0  0  0  0  0  0
  1  2  1  0
  1 25  1  0
  1 26  1  0
  1 27  1  0
  2  3  1  0
  3  4  2  0
  3  5  1  0
  5 23  1  0
  5  6  2  0
  6 11  1  0
  6  7  1  0
  7  8  1  0
  7 28  1  0
  7 29  1  0
  8  9  1  0
  8 30  1  0
  8 31  1  0
  9 10  1  0
  9 32  1  0
  9 33  1  0
 11 10  1  1
 10 34  1  0
 10 35  1  0
 11 14  1  0
 11 12  1  0
 12 13  1  0
 12 36  1  0
 12 37  1  0
 13 14  2  0
 13 38  1  0
 14 15  1  0
 15 16  1  1
 15 17  1  0
 15 23  1  0
 16 39  1  0
 17 22  1  0
 17 18  2  0
 18 19  1  0
 18 40  1  0
 19 20  2  0
 19 41  1  0
 20 21  1  0
 20 42  1  0
 21 22  2  0
 21 43  1  0
 22 44  1  0
 23 24  2  0
M  END
>  <i_m_ct_stereo_status>  (349) 
1

>  <s_m_source_file>  (349) 
/var/tmp/pbs.5076255.sched01/tmpyj7ipo08/120az4jmrmy.sdf

>  <i_m_source_file_index>  (349) 
20

>  <i_lp_mmshare_version>  (349) 
48012

>  <i_f3d_flags>  (349) 
0

>  <s_epik_input>  (349) 
W0NIMl0xW0NIMl1bQ0gyXVtDSDJdQyhbQ0BdMTIzKT1DKEMoPU8pT1tDSDNdKUMoPU8pW0NAQF0oW09IXSkoQzM9W0NIXVtDSDJdMiljNFtjSF1bY0hdW2NIXVtjSF1bY0hdNA==

>  <s_epik_cmdline>  (349) 
J2VwaWtfcHl0aG9uJywgJy1waHQnLCAnMi4wJywgJy1waCcsICc3LjAnLCAnLXRuJywgJzgnLCAnLW1hJywgJzIwMCcsICctaW1hZScsICc8aW5maWxlLm1hZT4nLCAnLW9tYWUnLCAnPG91dGZpbGUubWFlPic=

>  <r_epik_Ionization_Penalty>  (349) 
0.000912962

>  <r_epik_Ionization_Penalty_Charging>  (349) 
0

>  <r_epik_Ionization_Penalty_Neutral>  (349) 
0.000912962

>  <r_epik_State_Penalty>  (349) 
0.000591491

>  <r_epik_Charging_Adjusted_Penalty>  (349) 
0.000591491

>  <i_epik_Tot_Q>  (349) 
0

>  <i_epik_Tot_abs_Q>  (349) 
0

>  <s_epik_Chemistry_Notes>  (349) 
This compound has an ester and may undergo hydrolysis at high or low pH.

>  <s_lp_Force_Field>  (349) 
OPLS3e

>  <r_lp_Energy>  (349) 
60.7402

>  <b_lp_Chiralities_Consistent>  (349) 
1

>  <s_lp_Variant>  (349) 
102:0-1

>  <s_i_glide_gridfile>  (349) 
pfpi4k_grid

>  <i_i_glide_lignum>  (349) 
20

>  <i_i_glide_rotatable_bonds>  (349) 
4

>  <r_i_docking_score>  (349) 
-2.41186

>  <r_i_glide_ligand_efficiency>  (349) 
-0.100494

>  <r_i_glide_ligand_efficiency_sa>  (349) 
-0.289876

>  <r_i_glide_ligand_efficiency_ln>  (349) 
-0.577269

>  <r_i_glide_gscore>  (349) 
-2.41186

>  <r_i_glide_lipo>  (349) 
-0.114288

>  <r_i_glide_hbond>  (349) 
-0.0786848

>  <r_i_glide_metal>  (349) 
-0

>  <r_i_glide_rewards>  (349) 
-1.19747

>  <r_i_glide_evdw>  (349) 
-19.6599

>  <r_i_glide_ecoul>  (349) 
-2.36382

>  <r_i_glide_erotb>  (349) 
0.355967

>  <r_i_glide_esite>  (349) 
-0.0398126

>  <r_i_glide_emodel>  (349) 
-26.0096

>  <r_i_glide_energy>  (349) 
-22.0238

>  <r_i_glide_einternal>  (349) 
1.13606

>  <r_i_glide_intrahb_reward>  (349) 
-0

>  <i_i_glide_confnum>  (349) 
4

>  <i_i_glide_posenum>  (349) 
32

>  <r_i_glide_eff_state_penalty>  (349) 
0

>  <ligand_id>  (349) 
102

>  <original_smiles>  (349) 
COC(=O)C1=C2CCCCC23CC=C3C(O)(c2ccccc2)C1=O

>  <smiles>  (349) 
[H]OC1(c2c([H])c([H])c([H])c([H])c2[H])C(=O)C(C(=O)OC([H])([H])[H])=C2C([H])([H])C([H])([H])C([H])([H])C([H])([H])C23C1=C([H])C3([H])[H]

$$$$
105:0:0
     RDKit          3D

 50 53  0  0  1  0  0  0  0  0999 V2000
    5.1813   -2.7642   -2.2669 C   0  0  0  0  0  0  0  0  0  0  0  0
    5.2251   -2.3978   -0.7711 C   0  0  1  0  0  0  0  0  0  0  0  0
    5.7759   -1.0984   -0.6807 O   0  0  0  0  0  0  0  0  0  0  0  0
    3.8170   -2.3671   -0.1466 C   0  0  0  0  0  0  0  0  0  0  0  0
    3.1961   -3.7741   -0.0788 C   0  0  0  0  0  0  0  0  0  0  0  0
    4.1017   -4.7581    0.6960 C   0  0  1  0  0  0  0  0  0  0  0  0
    3.4959   -6.1781    0.6965 C   0  0  0  0  0  0  0  0  0  0  0  0
    4.1314   -7.0755    1.7030 N   0  0  2  0  0  0  0  0  0  0  0  0
    3.8748   -8.5249    1.5733 C   0  0  1  0  0  0  0  0  0  0  0  0
    4.6522   -9.1066    2.7662 C   0  0  0  0  0  0  0  0  0  0  0  0
    4.6447   -7.9747    3.8187 C   0  0  0  0  0  0  0  0  0  0  0  0
    3.8737   -6.8336    3.1407 C   0  0  2  0  0  0  0  0  0  0  0  0
    2.3627   -6.9374    3.4479 C   0  0  0  0  0  0  0  0  0  0  0  0
    1.7424   -8.3044    3.0304 C   0  0  1  0  0  0  0  0  0  0  0  0
    0.2827   -8.2696    2.9508 N   0  0  0  0  0  0  0  0  0  0  0  0
   -0.5868   -9.1753    2.4966 C   0  0  0  0  0  0  0  0  0  0  0  0
   -1.8308   -8.7317    2.5617 N   0  0  0  0  0  0  0  0  0  0  0  0
   -1.6984   -7.4885    3.1522 N   0  0  0  0  0  0  0  0  0  0  0  0
   -0.4500   -7.2101    3.3926 N   0  0  0  0  0  0  0  0  0  0  0  0
    2.3491   -8.8038    1.6885 C   0  0  0  0  0  0  0  0  0  0  0  0
    5.5311   -4.7719    0.1041 C   0  0  0  0  0  0  0  0  0  0  0  0
    6.1313   -3.3572    0.0275 C   0  0  0  0  0  0  0  0  0  0  0  0
    4.7568   -3.7510   -2.4415 H   0  0  0  0  0  0  0  0  0  0  0  0
    6.1786   -2.7821   -2.7045 H   0  0  0  0  0  0  0  0  0  0  0  0
    4.5681   -2.0652   -2.8338 H   0  0  0  0  0  0  0  0  0  0  0  0
    5.1109   -0.4656   -0.9162 H   0  0  0  0  0  0  0  0  0  0  0  0
    3.8607   -1.9504    0.8606 H   0  0  0  0  0  0  0  0  0  0  0  0
    3.1581   -1.7079   -0.7110 H   0  0  0  0  0  0  0  0  0  0  0  0
    2.2154   -3.7140    0.3975 H   0  0  0  0  0  0  0  0  0  0  0  0
    3.0053   -4.1498   -1.0861 H   0  0  0  0  0  0  0  0  0  0  0  0
    4.1596   -4.3842    1.7212 H   0  0  0  0  0  0  0  0  0  0  0  0
    2.4138   -6.1376    0.8181 H   0  0  0  0  0  0  0  0  0  0  0  0
    3.6628   -6.6208   -0.2854 H   0  0  0  0  0  0  0  0  0  0  0  0
    4.2657   -8.8943    0.6234 H   0  0  0  0  0  0  0  0  0  0  0  0
    4.2187  -10.0397    3.1356 H   0  0  0  0  0  0  0  0  0  0  0  0
    5.6805   -9.3217    2.4722 H   0  0  0  0  0  0  0  0  0  0  0  0
    4.1873   -8.2805    4.7622 H   0  0  0  0  0  0  0  0  0  0  0  0
    5.6665   -7.6580    4.0321 H   0  0  0  0  0  0  0  0  0  0  0  0
    4.2462   -5.8597    3.4583 H   0  0  0  0  0  0  0  0  0  0  0  0
    2.1931   -6.7851    4.5155 H   0  0  0  0  0  0  0  0  0  0  0  0
    1.8677   -6.1083    2.9419 H   0  0  0  0  0  0  0  0  0  0  0  0
    2.0033   -9.0351    3.7970 H   0  0  0  0  0  0  0  0  0  0  0  0
   -0.3090  -10.1347    2.0854 H   0  0  0  0  0  0  0  0  0  0  0  0
    1.8199   -8.3259    0.8761 H   0  0  0  0  0  0  0  0  0  0  0  0
    2.1692   -9.8746    1.5654 H   0  0  0  0  0  0  0  0  0  0  0  0
    6.1933   -5.4165    0.6856 H   0  0  0  0  0  0  0  0  0  0  0  0
    5.4977   -5.2093   -0.8937 H   0  0  0  0  0  0  0  0  0  0  0  0
    7.1244   -3.4012   -0.4189 H   0  0  0  0  0  0  0  0  0  0  0  0
    6.2755   -2.9794    1.0414 H   0  0  0  0  0  0  0  0  0  0  0  0
    5.1290   -6.9612    1.5831 H   0  0  0  0  0  0  0  0  0  0  0  0
  1  2  1  0
  1 23  1  0
  1 24  1  0
  1 25  1  0
  2 22  1  0
  2  3  1  6
  2  4  1  0
  3 26  1  0
  4  5  1  0
  4 27  1  0
  4 28  1  0
  5  6  1  0
  5 29  1  0
  5 30  1  0
  6  7  1  0
  6 21  1  0
  6 31  1  1
  7  8  1  0
  7 32  1  0
  7 33  1  0
  8 12  1  0
  8  9  1  0
  8 50  1  1
  9 20  1  0
  9 10  1  0
  9 34  1  6
 10 11  1  0
 10 35  1  0
 10 36  1  0
 11 12  1  0
 11 37  1  0
 11 38  1  0
 12 13  1  0
 12 39  1  1
 13 14  1  0
 13 40  1  0
 13 41  1  0
 14 15  1  0
 14 20  1  0
 14 42  1  1
 15 19  1  0
 15 16  1  0
 16 17  2  0
 16 43  1  0
 17 18  1  0
 18 19  2  0
 20 44  1  0
 20 45  1  0
 21 22  1  0
 21 46  1  0
 21 47  1  0
 22 48  1  0
 22 49  1  0
M  CHG  1   8   1
M  END
>  <i_m_ct_stereo_status>  (350) 
1

>  <s_m_source_file>  (350) 
/var/tmp/pbs.5076255.sched01/tmpyj7ipo08/120az4jmrmy.sdf

>  <i_m_source_file_index>  (350) 
23

>  <i_lp_mmshare_version>  (350) 
48012

>  <i_f3d_flags>  (350) 
0

>  <s_epik_input>  (350) 
W0NIM11bQ0BAXTEoW09IXSlbQ0gyXVtDSDJdW0NASF0oW0NIMl1bQ0gyXTEpW0NIMl1OKFtDQEBIXTIzKVtDQEhdKFtDSDJdW0NIMl0yKVtDSDJdW0NASF0oW0NIMl0zKW40W2NIXW5ubjQ=

>  <s_epik_cmdline>  (350) 
J2VwaWtfcHl0aG9uJywgJy1waHQnLCAnMi4wJywgJy1waCcsICc3LjAnLCAnLXRuJywgJzgnLCAnLW1hJywgJzIwMCcsICctaW1hZScsICc8aW5maWxlLm1hZT4nLCAnLW9tYWUnLCAnPG91dGZpbGUubWFlPic=

>  <r_lp_tautomer_probability>  (350) 
1

>  <r_epik_Ionization_Penalty>  (350) 
0.00236129

>  <r_epik_Ionization_Penalty_Charging>  (350) 
0.00236025

>  <r_epik_Ionization_Penalty_Neutral>  (350) 
1.0349e-06

>  <r_epik_State_Penalty>  (350) 
0.00163046

>  <r_epik_Charging_Adjusted_Penalty>  (350) 
0.00399072

>  <i_epik_Tot_Q>  (350) 
1

>  <i_epik_Tot_abs_Q>  (350) 
1

>  <s_lp_Force_Field>  (350) 
OPLS3e

>  <r_lp_Energy>  (350) 
22.692

>  <b_lp_Chiralities_Consistent>  (350) 
1

>  <s_lp_Variant>  (350) 
105:0-1

>  <s_i_glide_gridfile>  (350) 
pfpi4k_grid

>  <i_i_glide_lignum>  (350) 
23

>  <i_i_glide_rotatable_bonds>  (350) 
4

>  <r_i_docking_score>  (350) 
-3.79534

>  <r_i_glide_ligand_efficiency>  (350) 
-0.172516

>  <r_i_glide_ligand_efficiency_sa>  (350) 
-0.483396

>  <r_i_glide_ligand_efficiency_ln>  (350) 
-0.927721

>  <r_i_glide_gscore>  (350) 
-3.79534

>  <r_i_glide_lipo>  (350) 
-0.317034

>  <r_i_glide_hbond>  (350) 
-0.031059

>  <r_i_glide_metal>  (350) 
-0

>  <r_i_glide_rewards>  (350) 
-1.40177

>  <r_i_glide_evdw>  (350) 
-29.4827

>  <r_i_glide_ecoul>  (350) 
-6.58186

>  <r_i_glide_erotb>  (350) 
0.590173

>  <r_i_glide_esite>  (350) 
-0.174242

>  <r_i_glide_emodel>  (350) 
-44.1721

>  <r_i_glide_energy>  (350) 
-36.0646

>  <r_i_glide_einternal>  (350) 
3.05413

>  <r_i_glide_intrahb_reward>  (350) 
-0

>  <i_i_glide_confnum>  (350) 
5

>  <i_i_glide_posenum>  (350) 
19

>  <r_i_glide_eff_state_penalty>  (350) 
0

>  <ligand_id>  (350) 
105

>  <original_smiles>  (350) 
CC1(O)CCC(CN2C3CCC2CC(n2cnnn2)C3)CC1

>  <smiles>  (350) 
[H]OC1(C([H])([H])[H])C([H])([H])C([H])([H])C([H])(C([H])([H])[N+]2([H])C3([H])C([H])([H])C([H])([H])C2([H])C([H])([H])C([H])(n2nnnc2[H])C3([H])[H])C([H])([H])C1([H])[H]

$$$$
105:0:1
     RDKit          3D

 50 53  0  0  1  0  0  0  0  0999 V2000
    6.2683   -3.0443   -1.6249 C   0  0  0  0  0  0  0  0  0  0  0  0
    6.0175   -2.7133   -0.1423 C   0  0  1  0  0  0  0  0  0  0  0  0
    6.6118   -1.4498    0.0748 O   0  0  0  0  0  0  0  0  0  0  0  0
    4.5118   -2.6195    0.1781 C   0  0  0  0  0  0  0  0  0  0  0  0
    3.8249   -3.9954    0.0758 C   0  0  0  0  0  0  0  0  0  0  0  0
    4.5085   -5.0450    0.9844 C   0  0  1  0  0  0  0  0  0  0  0  0
    3.8481   -6.4307    0.8203 C   0  0  0  0  0  0  0  0  0  0  0  0
    4.3912   -7.4469    1.7647 N   0  0  2  0  0  0  0  0  0  0  0  0
    4.0144   -8.8561    1.5389 C   0  0  1  0  0  0  0  0  0  0  0  0
    4.7425   -9.5812    2.6885 C   0  0  0  0  0  0  0  0  0  0  0  0
    4.8342   -8.5227    3.8102 C   0  0  0  0  0  0  0  0  0  0  0  0
    4.1614   -7.2749    3.2166 C   0  0  2  0  0  0  0  0  0  0  0  0
    2.6462   -7.2638    3.5281 C   0  0  0  0  0  0  0  0  0  0  0  0
    1.9276   -8.5465    3.0200 C   0  0  1  0  0  0  0  0  0  0  0  0
    0.4818   -8.3680    2.9826 N   0  0  0  0  0  0  0  0  0  0  0  0
   -0.5018   -9.0676    3.5508 C   0  0  0  0  0  0  0  0  0  0  0  0
   -1.6875   -8.5414    3.2751 N   0  0  0  0  0  0  0  0  0  0  0  0
   -1.3829   -7.4559    2.4793 N   0  0  0  0  0  0  0  0  0  0  0  0
   -0.0983   -7.3542    2.2841 N   0  0  0  0  0  0  0  0  0  0  0  0
    2.4770   -9.0165    1.6554 C   0  0  0  0  0  0  0  0  0  0  0  0
    6.0301   -5.1157    0.7025 C   0  0  0  0  0  0  0  0  0  0  0  0
    6.6897   -3.7317    0.7988 C   0  0  0  0  0  0  0  0  0  0  0  0
    5.8382   -4.0001   -1.9153 H   0  0  0  0  0  0  0  0  0  0  0  0
    7.3340   -3.1011   -1.8462 H   0  0  0  0  0  0  0  0  0  0  0  0
    5.8212   -2.2983   -2.2809 H   0  0  0  0  0  0  0  0  0  0  0  0
    6.4399   -1.1708    0.9615 H   0  0  0  0  0  0  0  0  0  0  0  0
    4.3591   -2.2251    1.1838 H   0  0  0  0  0  0  0  0  0  0  0  0
    4.0210   -1.9153   -0.4925 H   0  0  0  0  0  0  0  0  0  0  0  0
    2.7687   -3.8999    0.3380 H   0  0  0  0  0  0  0  0  0  0  0  0
    3.8273   -4.3376   -0.9610 H   0  0  0  0  0  0  0  0  0  0  0  0
    4.3672   -4.7033    2.0128 H   0  0  0  0  0  0  0  0  0  0  0  0
    2.7631   -6.3418    0.8979 H   0  0  0  0  0  0  0  0  0  0  0  0
    4.0462   -6.7883   -0.1920 H   0  0  0  0  0  0  0  0  0  0  0  0
    4.3744   -9.1941    0.5661 H   0  0  0  0  0  0  0  0  0  0  0  0
    4.2311  -10.4960    2.9969 H   0  0  0  0  0  0  0  0  0  0  0  0
    5.7470   -9.8648    2.3712 H   0  0  0  0  0  0  0  0  0  0  0  0
    4.3588   -8.8482    4.7380 H   0  0  0  0  0  0  0  0  0  0  0  0
    5.8813   -8.3119    4.0325 H   0  0  0  0  0  0  0  0  0  0  0  0
    4.6256   -6.3624    3.5893 H   0  0  0  0  0  0  0  0  0  0  0  0
    2.4891   -7.1759    4.6046 H   0  0  0  0  0  0  0  0  0  0  0  0
    2.2135   -6.3641    3.0904 H   0  0  0  0  0  0  0  0  0  0  0  0
    2.1444   -9.3435    3.7381 H   0  0  0  0  0  0  0  0  0  0  0  0
   -0.3498   -9.9416    4.1659 H   0  0  0  0  0  0  0  0  0  0  0  0
    1.9866   -8.4393    0.8786 H   0  0  0  0  0  0  0  0  0  0  0  0
    2.1921  -10.0517    1.4664 H   0  0  0  0  0  0  0  0  0  0  0  0
    6.5310   -5.7937    1.3965 H   0  0  0  0  0  0  0  0  0  0  0  0
    6.1980   -5.5364   -0.2892 H   0  0  0  0  0  0  0  0  0  0  0  0
    7.7517   -3.8169    0.5718 H   0  0  0  0  0  0  0  0  0  0  0  0
    6.6276   -3.3880    1.8328 H   0  0  0  0  0  0  0  0  0  0  0  0
    5.3958   -7.4123    1.6520 H   0  0  0  0  0  0  0  0  0  0  0  0
  1  2  1  0
  1 23  1  0
  1 24  1  0
  1 25  1  0
  2 22  1  0
  2  3  1  1
  2  4  1  0
  3 26  1  0
  4  5  1  0
  4 27  1  0
  4 28  1  0
  5  6  1  0
  5 29  1  0
  5 30  1  0
  6  7  1  0
  6 21  1  0
  6 31  1  1
  7  8  1  0
  7 32  1  0
  7 33  1  0
  8 12  1  0
  8  9  1  0
  8 50  1  1
  9 20  1  0
  9 10  1  0
  9 34  1  6
 10 11  1  0
 10 35  1  0
 10 36  1  0
 11 12  1  0
 11 37  1  0
 11 38  1  0
 12 13  1  0
 12 39  1  1
 13 14  1  0
 13 40  1  0
 13 41  1  0
 14 15  1  0
 14 20  1  0
 14 42  1  1
 15 19  1  0
 15 16  1  0
 16 17  2  0
 16 43  1  0
 17 18  1  0
 18 19  2  0
 20 44  1  0
 20 45  1  0
 21 22  1  0
 21 46  1  0
 21 47  1  0
 22 48  1  0
 22 49  1  0
M  CHG  1   8   1
M  END
>  <i_m_ct_stereo_status>  (351) 
1

>  <s_m_source_file>  (351) 
/var/tmp/pbs.5076255.sched01/tmpyj7ipo08/120az4jmrmy.sdf

>  <i_m_source_file_index>  (351) 
23

>  <i_lp_mmshare_version>  (351) 
48012

>  <i_f3d_flags>  (351) 
0

>  <s_epik_input>  (351) 
W0NIM11bQ0BAXTEoW09IXSlbQ0gyXVtDSDJdW0NASF0oW0NIMl1bQ0gyXTEpW0NIMl1OKFtDQEBIXTIzKVtDQEhdKFtDSDJdW0NIMl0yKVtDSDJdW0NASF0oW0NIMl0zKW40W2NIXW5ubjQ=

>  <s_epik_cmdline>  (351) 
J2VwaWtfcHl0aG9uJywgJy1waHQnLCAnMi4wJywgJy1waCcsICc3LjAnLCAnLXRuJywgJzgnLCAnLW1hJywgJzIwMCcsICctaW1hZScsICc8aW5maWxlLm1hZT4nLCAnLW9tYWUnLCAnPG91dGZpbGUubWFlPic=

>  <r_lp_tautomer_probability>  (351) 
1

>  <r_epik_Ionization_Penalty>  (351) 
0.00236129

>  <r_epik_Ionization_Penalty_Charging>  (351) 
0.00236025

>  <r_epik_Ionization_Penalty_Neutral>  (351) 
1.0349e-06

>  <r_epik_State_Penalty>  (351) 
0.00163046

>  <r_epik_Charging_Adjusted_Penalty>  (351) 
0.00399072

>  <i_epik_Tot_Q>  (351) 
1

>  <i_epik_Tot_abs_Q>  (351) 
1

>  <s_lp_Force_Field>  (351) 
OPLS3e

>  <r_lp_Energy>  (351) 
22.692

>  <b_lp_Chiralities_Consistent>  (351) 
1

>  <s_lp_Variant>  (351) 
105:0-1

>  <s_i_glide_gridfile>  (351) 
pfpi4k_grid

>  <i_i_glide_lignum>  (351) 
23

>  <i_i_glide_rotatable_bonds>  (351) 
4

>  <r_i_docking_score>  (351) 
-3.78513

>  <r_i_glide_ligand_efficiency>  (351) 
-0.172051

>  <r_i_glide_ligand_efficiency_sa>  (351) 
-0.482095

>  <r_i_glide_ligand_efficiency_ln>  (351) 
-0.925224

>  <r_i_glide_gscore>  (351) 
-3.78513

>  <r_i_glide_lipo>  (351) 
-0.414349

>  <r_i_glide_hbond>  (351) 
-0.0453489

>  <r_i_glide_metal>  (351) 
-0

>  <r_i_glide_rewards>  (351) 
-1.31982

>  <r_i_glide_evdw>  (351) 
-28.6573

>  <r_i_glide_ecoul>  (351) 
-5.64242

>  <r_i_glide_erotb>  (351) 
0.590173

>  <r_i_glide_esite>  (351) 
-0.316558

>  <r_i_glide_emodel>  (351) 
-43.8417

>  <r_i_glide_energy>  (351) 
-34.2997

>  <r_i_glide_einternal>  (351) 
0.258262

>  <r_i_glide_intrahb_reward>  (351) 
-0

>  <i_i_glide_confnum>  (351) 
4

>  <i_i_glide_posenum>  (351) 
1

>  <r_i_glide_eff_state_penalty>  (351) 
0

>  <ligand_id>  (351) 
105

>  <original_smiles>  (351) 
CC1(O)CCC(CN2C3CCC2CC(n2cnnn2)C3)CC1

>  <smiles>  (351) 
[H]OC1(C([H])([H])[H])C([H])([H])C([H])([H])C([H])(C([H])([H])[N+]2([H])C3([H])C([H])([H])C([H])([H])C2([H])C([H])([H])C([H])(n2nnnc2[H])C3([H])[H])C([H])([H])C1([H])[H]

$$$$
105:0:2
     RDKit          3D

 50 53  0  0  1  0  0  0  0  0999 V2000
    5.4545   -2.8733   -2.1871 C   0  0  0  0  0  0  0  0  0  0  0  0
    5.2932   -2.4334   -0.7195 C   0  0  1  0  0  0  0  0  0  0  0  0
    5.8090   -1.1211   -0.6391 O   0  0  0  0  0  0  0  0  0  0  0  0
    3.8123   -2.4101   -0.2893 C   0  0  0  0  0  0  0  0  0  0  0  0
    3.2187   -3.8309   -0.2290 C   0  0  0  0  0  0  0  0  0  0  0  0
    4.0353   -4.7549    0.7020 C   0  0  1  0  0  0  0  0  0  0  0  0
    3.4660   -6.1876    0.6937 C   0  0  0  0  0  0  0  0  0  0  0  0
    4.1155   -7.0726    1.6973 N   0  0  2  0  0  0  0  0  0  0  0  0
    3.8573   -8.5240    1.5888 C   0  0  1  0  0  0  0  0  0  0  0  0
    4.6603   -9.0926    2.7769 C   0  0  0  0  0  0  0  0  0  0  0  0
    4.6731   -7.9478    3.8146 C   0  0  0  0  0  0  0  0  0  0  0  0
    3.8855   -6.8141    3.1373 C   0  0  2  0  0  0  0  0  0  0  0  0
    2.3829   -6.9129    3.4738 C   0  0  0  0  0  0  0  0  0  0  0  0
    1.7555   -8.2836    3.0809 C   0  0  1  0  0  0  0  0  0  0  0  0
    0.2945   -8.2471    3.0315 N   0  0  0  0  0  0  0  0  0  0  0  0
   -0.5837   -9.1298    2.5464 C   0  0  0  0  0  0  0  0  0  0  0  0
   -1.8263   -8.6856    2.6564 N   0  0  0  0  0  0  0  0  0  0  0  0
   -1.6840   -7.4781    3.3120 N   0  0  0  0  0  0  0  0  0  0  0  0
   -0.4301   -7.2157    3.5499 N   0  0  0  0  0  0  0  0  0  0  0  0
    2.3383   -8.8052    1.7334 C   0  0  0  0  0  0  0  0  0  0  0  0
    5.5299   -4.7553    0.3021 C   0  0  0  0  0  0  0  0  0  0  0  0
    6.1017   -3.3294    0.2402 C   0  0  0  0  0  0  0  0  0  0  0  0
    5.0750   -3.8768   -2.3691 H   0  0  0  0  0  0  0  0  0  0  0  0
    6.5000   -2.8811   -2.4898 H   0  0  0  0  0  0  0  0  0  0  0  0
    4.9109   -2.2129   -2.8595 H   0  0  0  0  0  0  0  0  0  0  0  0
    5.5743   -0.7466    0.1967 H   0  0  0  0  0  0  0  0  0  0  0  0
    3.7067   -1.9445    0.6923 H   0  0  0  0  0  0  0  0  0  0  0  0
    3.2225   -1.7946   -0.9714 H   0  0  0  0  0  0  0  0  0  0  0  0
    2.1830   -3.7744    0.1106 H   0  0  0  0  0  0  0  0  0  0  0  0
    3.1681   -4.2559   -1.2331 H   0  0  0  0  0  0  0  0  0  0  0  0
    3.9481   -4.3402    1.7082 H   0  0  0  0  0  0  0  0  0  0  0  0
    2.3810   -6.1683    0.8063 H   0  0  0  0  0  0  0  0  0  0  0  0
    3.6567   -6.6247   -0.2886 H   0  0  0  0  0  0  0  0  0  0  0  0
    4.2356   -8.9048    0.6383 H   0  0  0  0  0  0  0  0  0  0  0  0
    4.2355  -10.0208    3.1649 H   0  0  0  0  0  0  0  0  0  0  0  0
    5.6827   -9.3110    2.4642 H   0  0  0  0  0  0  0  0  0  0  0  0
    4.2373   -8.2406    4.7713 H   0  0  0  0  0  0  0  0  0  0  0  0
    5.7011   -7.6293    4.0016 H   0  0  0  0  0  0  0  0  0  0  0  0
    4.2706   -5.8373    3.4326 H   0  0  0  0  0  0  0  0  0  0  0  0
    2.2366   -6.7478    4.5424 H   0  0  0  0  0  0  0  0  0  0  0  0
    1.8736   -6.0925    2.9668 H   0  0  0  0  0  0  0  0  0  0  0  0
    2.0274   -9.0052    3.8531 H   0  0  0  0  0  0  0  0  0  0  0  0
   -0.3155  -10.0675    2.0848 H   0  0  0  0  0  0  0  0  0  0  0  0
    1.8023   -8.3460    0.9000 H   0  0  0  0  0  0  0  0  0  0  0  0
    2.1580   -9.8763    1.6338 H   0  0  0  0  0  0  0  0  0  0  0  0
    6.1261   -5.3456    1.0013 H   0  0  0  0  0  0  0  0  0  0  0  0
    5.6501   -5.2418   -0.6670 H   0  0  0  0  0  0  0  0  0  0  0  0
    7.1475   -3.3673   -0.0683 H   0  0  0  0  0  0  0  0  0  0  0  0
    6.0993   -2.9060    1.2466 H   0  0  0  0  0  0  0  0  0  0  0  0
    5.1108   -6.9619    1.5601 H   0  0  0  0  0  0  0  0  0  0  0  0
  1  2  1  0
  1 23  1  0
  1 24  1  0
  1 25  1  0
  2 22  1  0
  2  3  1  6
  2  4  1  0
  3 26  1  0
  4  5  1  0
  4 27  1  0
  4 28  1  0
  5  6  1  0
  5 29  1  0
  5 30  1  0
  6  7  1  0
  6 21  1  0
  6 31  1  1
  7  8  1  0
  7 32  1  0
  7 33  1  0
  8 12  1  0
  8  9  1  0
  8 50  1  1
  9 20  1  0
  9 10  1  0
  9 34  1  6
 10 11  1  0
 10 35  1  0
 10 36  1  0
 11 12  1  0
 11 37  1  0
 11 38  1  0
 12 13  1  0
 12 39  1  1
 13 14  1  0
 13 40  1  0
 13 41  1  0
 14 15  1  0
 14 20  1  0
 14 42  1  1
 15 19  1  0
 15 16  1  0
 16 17  2  0
 16 43  1  0
 17 18  1  0
 18 19  2  0
 20 44  1  0
 20 45  1  0
 21 22  1  0
 21 46  1  0
 21 47  1  0
 22 48  1  0
 22 49  1  0
M  CHG  1   8   1
M  END
>  <i_m_ct_stereo_status>  (352) 
1

>  <s_m_source_file>  (352) 
/var/tmp/pbs.5076255.sched01/tmpyj7ipo08/120az4jmrmy.sdf

>  <i_m_source_file_index>  (352) 
23

>  <i_lp_mmshare_version>  (352) 
48012

>  <i_f3d_flags>  (352) 
0

>  <s_epik_input>  (352) 
W0NIM11bQ0BAXTEoW09IXSlbQ0gyXVtDSDJdW0NASF0oW0NIMl1bQ0gyXTEpW0NIMl1OKFtDQEBIXTIzKVtDQEhdKFtDSDJdW0NIMl0yKVtDSDJdW0NASF0oW0NIMl0zKW40W2NIXW5ubjQ=

>  <s_epik_cmdline>  (352) 
J2VwaWtfcHl0aG9uJywgJy1waHQnLCAnMi4wJywgJy1waCcsICc3LjAnLCAnLXRuJywgJzgnLCAnLW1hJywgJzIwMCcsICctaW1hZScsICc8aW5maWxlLm1hZT4nLCAnLW9tYWUnLCAnPG91dGZpbGUubWFlPic=

>  <r_lp_tautomer_probability>  (352) 
1

>  <r_epik_Ionization_Penalty>  (352) 
0.00236129

>  <r_epik_Ionization_Penalty_Charging>  (352) 
0.00236025

>  <r_epik_Ionization_Penalty_Neutral>  (352) 
1.0349e-06

>  <r_epik_State_Penalty>  (352) 
0.00163046

>  <r_epik_Charging_Adjusted_Penalty>  (352) 
0.00399072

>  <i_epik_Tot_Q>  (352) 
1

>  <i_epik_Tot_abs_Q>  (352) 
1

>  <s_lp_Force_Field>  (352) 
OPLS3e

>  <r_lp_Energy>  (352) 
22.692

>  <b_lp_Chiralities_Consistent>  (352) 
1

>  <s_lp_Variant>  (352) 
105:0-1

>  <s_i_glide_gridfile>  (352) 
pfpi4k_grid

>  <i_i_glide_lignum>  (352) 
23

>  <i_i_glide_rotatable_bonds>  (352) 
4

>  <r_i_docking_score>  (352) 
-3.65264

>  <r_i_glide_ligand_efficiency>  (352) 
-0.166029

>  <r_i_glide_ligand_efficiency_sa>  (352) 
-0.46522

>  <r_i_glide_ligand_efficiency_ln>  (352) 
-0.892838

>  <r_i_glide_gscore>  (352) 
-3.65264

>  <r_i_glide_lipo>  (352) 
-0.306445

>  <r_i_glide_hbond>  (352) 
-0.0328545

>  <r_i_glide_metal>  (352) 
-0

>  <r_i_glide_rewards>  (352) 
-1.36439

>  <r_i_glide_evdw>  (352) 
-29.4435

>  <r_i_glide_ecoul>  (352) 
-5.98203

>  <r_i_glide_erotb>  (352) 
0.590173

>  <r_i_glide_esite>  (352) 
-0.169637

>  <r_i_glide_emodel>  (352) 
-43.5011

>  <r_i_glide_energy>  (352) 
-35.4256

>  <r_i_glide_einternal>  (352) 
2.48592

>  <r_i_glide_intrahb_reward>  (352) 
-0

>  <i_i_glide_confnum>  (352) 
5

>  <i_i_glide_posenum>  (352) 
13

>  <r_i_glide_eff_state_penalty>  (352) 
0

>  <ligand_id>  (352) 
105

>  <original_smiles>  (352) 
CC1(O)CCC(CN2C3CCC2CC(n2cnnn2)C3)CC1

>  <smiles>  (352) 
[H]OC1(C([H])([H])[H])C([H])([H])C([H])([H])C([H])(C([H])([H])[N+]2([H])C3([H])C([H])([H])C([H])([H])C2([H])C([H])([H])C([H])(n2nnnc2[H])C3([H])[H])C([H])([H])C1([H])[H]

$$$$
105:1:0
     RDKit          3D

 50 53  0  0  1  0  0  0  0  0999 V2000
    4.2229   -0.8304   -2.4129 C   0  0  0  0  0  0  0  0  0  0  0  0
    4.0270   -2.2657   -2.9289 C   0  0  1  0  0  0  0  0  0  0  0  0
    3.7912   -2.1678   -4.3149 O   0  0  0  0  0  0  0  0  0  0  0  0
    5.2842   -3.1376   -2.7123 C   0  0  0  0  0  0  0  0  0  0  0  0
    5.5300   -3.3998   -1.2173 C   0  0  0  0  0  0  0  0  0  0  0  0
    4.2912   -4.0256   -0.5490 C   0  0  1  0  0  0  0  0  0  0  0  0
    4.5288   -4.2159    0.9534 C   0  0  0  0  0  0  0  0  0  0  0  0
    3.5063   -5.0994    1.5635 N   0  0  1  0  0  0  0  0  0  0  0  0
    3.6377   -6.5353    1.2266 C   0  0  1  0  0  0  0  0  0  0  0  0
    4.7480   -7.0346    2.1638 C   0  0  0  0  0  0  0  0  0  0  0  0
    4.6767   -6.0831    3.3756 C   0  0  0  0  0  0  0  0  0  0  0  0
    3.5253   -5.1155    3.0400 C   0  0  2  0  0  0  0  0  0  0  0  0
    2.1541   -5.6383    3.5291 C   0  0  0  0  0  0  0  0  0  0  0  0
    1.8552   -7.0636    2.9943 C   0  0  1  0  0  0  0  0  0  0  0  0
    0.4699   -7.4431    3.2064 N   0  0  0  0  0  0  0  0  0  0  0  0
   -0.0963   -8.2021    4.1502 C   0  0  0  0  0  0  0  0  0  0  0  0
   -1.4146   -8.2338    4.0108 N   0  0  0  0  0  0  0  0  0  0  0  0
   -1.6447   -7.4558    2.8908 N   0  0  0  0  0  0  0  0  0  0  0  0
   -0.5354   -6.9815    2.4140 N   0  0  0  0  0  0  0  0  0  0  0  0
    2.2816   -7.2104    1.5119 C   0  0  0  0  0  0  0  0  0  0  0  0
    3.0231   -3.1759   -0.7756 C   0  0  0  0  0  0  0  0  0  0  0  0
    2.7897   -2.9170   -2.2776 C   0  0  0  0  0  0  0  0  0  0  0  0
    4.4373   -0.7831   -1.3453 H   0  0  0  0  0  0  0  0  0  0  0  0
    3.3180   -0.2564   -2.5843 H   0  0  0  0  0  0  0  0  0  0  0  0
    5.0324   -0.3224   -2.9210 H   0  0  0  0  0  0  0  0  0  0  0  0
    2.9438   -1.7697   -4.4449 H   0  0  0  0  0  0  0  0  0  0  0  0
    5.1578   -4.0882   -3.2353 H   0  0  0  0  0  0  0  0  0  0  0  0
    6.1625   -2.6710   -3.1606 H   0  0  0  0  0  0  0  0  0  0  0  0
    6.3834   -4.0670   -1.1154 H   0  0  0  0  0  0  0  0  0  0  0  0
    5.8233   -2.4759   -0.7194 H   0  0  0  0  0  0  0  0  0  0  0  0
    4.1658   -4.9916   -1.0421 H   0  0  0  0  0  0  0  0  0  0  0  0
    5.5344   -4.6017    1.1262 H   0  0  0  0  0  0  0  0  0  0  0  0
    4.5122   -3.2347    1.4351 H   0  0  0  0  0  0  0  0  0  0  0  0
    3.8862   -6.7198    0.1811 H   0  0  0  0  0  0  0  0  0  0  0  0
    4.6322   -8.0852    2.4322 H   0  0  0  0  0  0  0  0  0  0  0  0
    5.7123   -6.9319    1.6667 H   0  0  0  0  0  0  0  0  0  0  0  0
    4.5246   -6.6083    4.3188 H   0  0  0  0  0  0  0  0  0  0  0  0
    5.6100   -5.5259    3.4602 H   0  0  0  0  0  0  0  0  0  0  0  0
    3.6927   -4.1189    3.4525 H   0  0  0  0  0  0  0  0  0  0  0  0
    2.1228   -5.6390    4.6195 H   0  0  0  0  0  0  0  0  0  0  0  0
    1.3718   -4.9432    3.2162 H   0  0  0  0  0  0  0  0  0  0  0  0
    2.4626   -7.7626    3.5721 H   0  0  0  0  0  0  0  0  0  0  0  0
    0.4496   -8.6989    4.9409 H   0  0  0  0  0  0  0  0  0  0  0  0
    1.5399   -6.7674    0.8447 H   0  0  0  0  0  0  0  0  0  0  0  0
    2.3150   -8.2697    1.2523 H   0  0  0  0  0  0  0  0  0  0  0  0
    2.1350   -3.6406   -0.3538 H   0  0  0  0  0  0  0  0  0  0  0  0
    3.1262   -2.2270   -0.2432 H   0  0  0  0  0  0  0  0  0  0  0  0
    1.9099   -2.2862   -2.4110 H   0  0  0  0  0  0  0  0  0  0  0  0
    2.5619   -3.8524   -2.7912 H   0  0  0  0  0  0  0  0  0  0  0  0
    2.6019   -4.7692    1.2574 H   0  0  0  0  0  0  0  0  0  0  0  0
  1  2  1  0
  1 23  1  0
  1 24  1  0
  1 25  1  0
  2 22  1  0
  2  3  1  6
  2  4  1  0
  3 26  1  0
  4  5  1  0
  4 27  1  0
  4 28  1  0
  5  6  1  0
  5 29  1  0
  5 30  1  0
  6  7  1  0
  6 21  1  0
  6 31  1  6
  7  8  1  0
  7 32  1  0
  7 33  1  0
  8 12  1  0
  8  9  1  0
  8 50  1  1
  9 20  1  0
  9 10  1  0
  9 34  1  6
 10 11  1  0
 10 35  1  0
 10 36  1  0
 11 12  1  0
 11 37  1  0
 11 38  1  0
 12 13  1  0
 12 39  1  1
 13 14  1  0
 13 40  1  0
 13 41  1  0
 14 15  1  0
 14 20  1  0
 14 42  1  1
 15 19  1  0
 15 16  1  0
 16 17  2  0
 16 43  1  0
 17 18  1  0
 18 19  2  0
 20 44  1  0
 20 45  1  0
 21 22  1  0
 21 46  1  0
 21 47  1  0
 22 48  1  0
 22 49  1  0
M  CHG  1   8   1
M  END
>  <i_m_ct_stereo_status>  (353) 
1

>  <s_m_source_file>  (353) 
/var/tmp/pbs.5076255.sched01/tmpyj7ipo08/120az4jmrmy.sdf

>  <i_m_source_file_index>  (353) 
24

>  <i_lp_mmshare_version>  (353) 
48012

>  <i_f3d_flags>  (353) 
0

>  <s_epik_input>  (353) 
W0NIM11bQ0BAXTEoW09IXSlbQ0gyXVtDSDJdW0NASF0oW0NIMl1bQ0gyXTEpW0NIMl1OKFtDQEBIXTIzKVtDQEhdKFtDSDJdW0NIMl0yKVtDSDJdW0NASF0oW0NIMl0zKW40W2NIXW5ubjQ=

>  <s_epik_cmdline>  (353) 
J2VwaWtfcHl0aG9uJywgJy1waHQnLCAnMi4wJywgJy1waCcsICc3LjAnLCAnLXRuJywgJzgnLCAnLW1hJywgJzIwMCcsICctaW1hZScsICc8aW5maWxlLm1hZT4nLCAnLW9tYWUnLCAnPG91dGZpbGUubWFlPic=

>  <r_lp_tautomer_probability>  (353) 
1

>  <r_epik_Ionization_Penalty>  (353) 
0.00236129

>  <r_epik_Ionization_Penalty_Charging>  (353) 
0.00236025

>  <r_epik_Ionization_Penalty_Neutral>  (353) 
1.0349e-06

>  <r_epik_State_Penalty>  (353) 
0.00163046

>  <r_epik_Charging_Adjusted_Penalty>  (353) 
0.00399072

>  <i_epik_Tot_Q>  (353) 
1

>  <i_epik_Tot_abs_Q>  (353) 
1

>  <s_lp_Force_Field>  (353) 
OPLS3e

>  <r_lp_Energy>  (353) 
25.358

>  <b_lp_Chiralities_Consistent>  (353) 
1

>  <s_lp_Variant>  (353) 
105:0-2

>  <s_i_glide_gridfile>  (353) 
pfpi4k_grid

>  <i_i_glide_lignum>  (353) 
24

>  <i_i_glide_rotatable_bonds>  (353) 
4

>  <r_i_docking_score>  (353) 
-4.60593

>  <r_i_glide_ligand_efficiency>  (353) 
-0.20936

>  <r_i_glide_ligand_efficiency_sa>  (353) 
-0.586636

>  <r_i_glide_ligand_efficiency_ln>  (353) 
-1.12586

>  <r_i_glide_gscore>  (353) 
-4.60593

>  <r_i_glide_lipo>  (353) 
-0.541142

>  <r_i_glide_hbond>  (353) 
-0.32

>  <r_i_glide_metal>  (353) 
-0

>  <r_i_glide_rewards>  (353) 
-1.31982

>  <r_i_glide_evdw>  (353) 
-29.8947

>  <r_i_glide_ecoul>  (353) 
-7.88234

>  <r_i_glide_erotb>  (353) 
0.590173

>  <r_i_glide_esite>  (353) 
-0.338052

>  <r_i_glide_emodel>  (353) 
-48.7275

>  <r_i_glide_energy>  (353) 
-37.777

>  <r_i_glide_einternal>  (353) 
0.449066

>  <r_i_glide_intrahb_reward>  (353) 
-0

>  <i_i_glide_confnum>  (353) 
5

>  <i_i_glide_posenum>  (353) 
40

>  <r_i_glide_eff_state_penalty>  (353) 
0

>  <ligand_id>  (353) 
105

>  <original_smiles>  (353) 
CC1(O)CCC(CN2C3CCC2CC(n2cnnn2)C3)CC1

>  <smiles>  (353) 
[H]OC1(C([H])([H])[H])C([H])([H])C([H])([H])C([H])(C([H])([H])[N+]2([H])C3([H])C([H])([H])C([H])([H])C2([H])C([H])([H])C([H])(n2nnnc2[H])C3([H])[H])C([H])([H])C1([H])[H]

$$$$
105:1:1
     RDKit          3D

 50 53  0  0  1  0  0  0  0  0999 V2000
    4.1905   -0.8287   -2.3966 C   0  0  0  0  0  0  0  0  0  0  0  0
    4.0063   -2.2620   -2.9177 C   0  0  1  0  0  0  0  0  0  0  0  0
    3.8098   -2.1563   -4.3138 O   0  0  0  0  0  0  0  0  0  0  0  0
    5.2539   -3.1383   -2.6758 C   0  0  0  0  0  0  0  0  0  0  0  0
    5.4494   -3.4116   -1.1733 C   0  0  0  0  0  0  0  0  0  0  0  0
    4.1884   -4.0350   -0.5503 C   0  0  1  0  0  0  0  0  0  0  0  0
    4.3728   -4.2361    0.9592 C   0  0  0  0  0  0  0  0  0  0  0  0
    3.3485   -5.1508    1.5239 N   0  0  1  0  0  0  0  0  0  0  0  0
    3.5178   -6.5796    1.1760 C   0  0  1  0  0  0  0  0  0  0  0  0
    4.6078   -7.0685    2.1419 C   0  0  0  0  0  0  0  0  0  0  0  0
    4.4794   -6.1353    3.3631 C   0  0  0  0  0  0  0  0  0  0  0  0
    3.3253   -5.1862    2.9995 C   0  0  2  0  0  0  0  0  0  0  0  0
    1.9532   -5.7377    3.4388 C   0  0  0  0  0  0  0  0  0  0  0  0
    1.6807   -7.1698    2.8824 C   0  0  1  0  0  0  0  0  0  0  0  0
    0.2912   -7.5902    3.0051 N   0  0  0  0  0  0  0  0  0  0  0  0
   -0.3185   -8.7106    2.5944 C   0  0  0  0  0  0  0  0  0  0  0  0
   -1.6178   -8.6792    2.8634 N   0  0  0  0  0  0  0  0  0  0  0  0
   -1.7785   -7.4704    3.5202 N   0  0  0  0  0  0  0  0  0  0  0  0
   -0.6607   -6.8383    3.6170 N   0  0  0  0  0  0  0  0  0  0  0  0
    2.1622   -7.2838    1.4150 C   0  0  0  0  0  0  0  0  0  0  0  0
    2.9243   -3.1905   -0.8114 C   0  0  0  0  0  0  0  0  0  0  0  0
    2.7465   -2.9206   -2.3215 C   0  0  0  0  0  0  0  0  0  0  0  0
    4.3629   -0.7873   -1.3232 H   0  0  0  0  0  0  0  0  0  0  0  0
    3.2923   -0.2532   -2.5950 H   0  0  0  0  0  0  0  0  0  0  0  0
    5.0214   -0.3210   -2.8695 H   0  0  0  0  0  0  0  0  0  0  0  0
    2.9722   -1.7546   -4.4700 H   0  0  0  0  0  0  0  0  0  0  0  0
    5.1408   -4.0897   -3.2064 H   0  0  0  0  0  0  0  0  0  0  0  0
    6.1449   -2.6716   -3.1007 H   0  0  0  0  0  0  0  0  0  0  0  0
    6.2973   -4.0820   -1.0450 H   0  0  0  0  0  0  0  0  0  0  0  0
    5.7253   -2.4904   -0.6577 H   0  0  0  0  0  0  0  0  0  0  0  0
    4.0808   -4.9945   -1.0539 H   0  0  0  0  0  0  0  0  0  0  0  0
    5.3793   -4.5999    1.1659 H   0  0  0  0  0  0  0  0  0  0  0  0
    4.3131   -3.2600    1.4475 H   0  0  0  0  0  0  0  0  0  0  0  0
    3.8096   -6.7514    0.1393 H   0  0  0  0  0  0  0  0  0  0  0  0
    4.5086   -8.1251    2.3923 H   0  0  0  0  0  0  0  0  0  0  0  0
    5.5857   -6.9370    1.6786 H   0  0  0  0  0  0  0  0  0  0  0  0
    4.3016   -6.6762    4.2920 H   0  0  0  0  0  0  0  0  0  0  0  0
    5.3971   -5.5598    3.4881 H   0  0  0  0  0  0  0  0  0  0  0  0
    3.4534   -4.1916    3.4288 H   0  0  0  0  0  0  0  0  0  0  0  0
    1.8849   -5.7482    4.5265 H   0  0  0  0  0  0  0  0  0  0  0  0
    1.1930   -5.0366    3.0934 H   0  0  0  0  0  0  0  0  0  0  0  0
    2.2705   -7.8704    3.4749 H   0  0  0  0  0  0  0  0  0  0  0  0
    0.1789   -9.5223    2.0799 H   0  0  0  0  0  0  0  0  0  0  0  0
    1.4149   -6.8550    0.7438 H   0  0  0  0  0  0  0  0  0  0  0  0
    2.2413   -8.3370    1.1351 H   0  0  0  0  0  0  0  0  0  0  0  0
    2.0207   -3.6564   -0.4244 H   0  0  0  0  0  0  0  0  0  0  0  0
    3.0094   -2.2482   -0.2677 H   0  0  0  0  0  0  0  0  0  0  0  0
    1.8694   -2.2920   -2.4820 H   0  0  0  0  0  0  0  0  0  0  0  0
    2.5351   -3.8525   -2.8486 H   0  0  0  0  0  0  0  0  0  0  0  0
    2.4466   -4.8389    1.1936 H   0  0  0  0  0  0  0  0  0  0  0  0
  1  2  1  0
  1 23  1  0
  1 24  1  0
  1 25  1  0
  2 22  1  0
  2  3  1  6
  2  4  1  0
  3 26  1  0
  4  5  1  0
  4 27  1  0
  4 28  1  0
  5  6  1  0
  5 29  1  0
  5 30  1  0
  6  7  1  0
  6 21  1  0
  6 31  1  6
  7  8  1  0
  7 32  1  0
  7 33  1  0
  8 12  1  0
  8  9  1  0
  8 50  1  6
  9 20  1  0
  9 10  1  0
  9 34  1  6
 10 11  1  0
 10 35  1  0
 10 36  1  0
 11 12  1  0
 11 37  1  0
 11 38  1  0
 12 13  1  0
 12 39  1  1
 13 14  1  0
 13 40  1  0
 13 41  1  0
 14 15  1  0
 14 20  1  0
 14 42  1  1
 15 19  1  0
 15 16  1  0
 16 17  2  0
 16 43  1  0
 17 18  1  0
 18 19  2  0
 20 44  1  0
 20 45  1  0
 21 22  1  0
 21 46  1  0
 21 47  1  0
 22 48  1  0
 22 49  1  0
M  CHG  1   8   1
M  END
>  <i_m_ct_stereo_status>  (354) 
1

>  <s_m_source_file>  (354) 
/var/tmp/pbs.5076255.sched01/tmpyj7ipo08/120az4jmrmy.sdf

>  <i_m_source_file_index>  (354) 
24

>  <i_lp_mmshare_version>  (354) 
48012

>  <i_f3d_flags>  (354) 
0

>  <s_epik_input>  (354) 
W0NIM11bQ0BAXTEoW09IXSlbQ0gyXVtDSDJdW0NASF0oW0NIMl1bQ0gyXTEpW0NIMl1OKFtDQEBIXTIzKVtDQEhdKFtDSDJdW0NIMl0yKVtDSDJdW0NASF0oW0NIMl0zKW40W2NIXW5ubjQ=

>  <s_epik_cmdline>  (354) 
J2VwaWtfcHl0aG9uJywgJy1waHQnLCAnMi4wJywgJy1waCcsICc3LjAnLCAnLXRuJywgJzgnLCAnLW1hJywgJzIwMCcsICctaW1hZScsICc8aW5maWxlLm1hZT4nLCAnLW9tYWUnLCAnPG91dGZpbGUubWFlPic=

>  <r_lp_tautomer_probability>  (354) 
1

>  <r_epik_Ionization_Penalty>  (354) 
0.00236129

>  <r_epik_Ionization_Penalty_Charging>  (354) 
0.00236025

>  <r_epik_Ionization_Penalty_Neutral>  (354) 
1.0349e-06

>  <r_epik_State_Penalty>  (354) 
0.00163046

>  <r_epik_Charging_Adjusted_Penalty>  (354) 
0.00399072

>  <i_epik_Tot_Q>  (354) 
1

>  <i_epik_Tot_abs_Q>  (354) 
1

>  <s_lp_Force_Field>  (354) 
OPLS3e

>  <r_lp_Energy>  (354) 
25.358

>  <b_lp_Chiralities_Consistent>  (354) 
1

>  <s_lp_Variant>  (354) 
105:0-2

>  <s_i_glide_gridfile>  (354) 
pfpi4k_grid

>  <i_i_glide_lignum>  (354) 
24

>  <i_i_glide_rotatable_bonds>  (354) 
4

>  <r_i_docking_score>  (354) 
-4.55579

>  <r_i_glide_ligand_efficiency>  (354) 
-0.207081

>  <r_i_glide_ligand_efficiency_sa>  (354) 
-0.58025

>  <r_i_glide_ligand_efficiency_ln>  (354) 
-1.1136

>  <r_i_glide_gscore>  (354) 
-4.55579

>  <r_i_glide_lipo>  (354) 
-0.516204

>  <r_i_glide_hbond>  (354) 
-0.32

>  <r_i_glide_metal>  (354) 
-0

>  <r_i_glide_rewards>  (354) 
-1.31982

>  <r_i_glide_evdw>  (354) 
-30.9028

>  <r_i_glide_ecoul>  (354) 
-8.01246

>  <r_i_glide_erotb>  (354) 
0.590173

>  <r_i_glide_esite>  (354) 
-0.242933

>  <r_i_glide_emodel>  (354) 
-49.0075

>  <r_i_glide_energy>  (354) 
-38.9152

>  <r_i_glide_einternal>  (354) 
1.87422

>  <r_i_glide_intrahb_reward>  (354) 
-0

>  <i_i_glide_confnum>  (354) 
5

>  <i_i_glide_posenum>  (354) 
29

>  <r_i_glide_eff_state_penalty>  (354) 
0

>  <ligand_id>  (354) 
105

>  <original_smiles>  (354) 
CC1(O)CCC(CN2C3CCC2CC(n2cnnn2)C3)CC1

>  <smiles>  (354) 
[H]OC1(C([H])([H])[H])C([H])([H])C([H])([H])C([H])(C([H])([H])[N+]2([H])C3([H])C([H])([H])C([H])([H])C2([H])C([H])([H])C([H])(n2nnnc2[H])C3([H])[H])C([H])([H])C1([H])[H]

$$$$
105:1:2
     RDKit          3D

 50 53  0  0  1  0  0  0  0  0999 V2000
    4.2119   -1.4896   -3.7585 C   0  0  0  0  0  0  0  0  0  0  0  0
    4.3120   -2.8143   -2.9756 C   0  0  1  0  0  0  0  0  0  0  0  0
    4.1432   -3.8490   -3.9263 O   0  0  0  0  0  0  0  0  0  0  0  0
    5.6825   -3.0181   -2.2861 C   0  0  0  0  0  0  0  0  0  0  0  0
    5.8825   -2.0107   -1.1415 C   0  0  0  0  0  0  0  0  0  0  0  0
    4.7375   -2.0811   -0.1253 C   0  0  1  0  0  0  0  0  0  0  0  0
    4.8820   -1.0123    0.9659 C   0  0  0  0  0  0  0  0  0  0  0  0
    3.7938   -1.0912    1.9802 N   0  0  1  0  0  0  0  0  0  0  0  0
    3.7620   -2.3135    2.8177 C   0  0  1  0  0  0  0  0  0  0  0  0
    4.8344   -2.0423    3.8855 C   0  0  0  0  0  0  0  0  0  0  0  0
    4.8877   -0.5038    4.0063 C   0  0  0  0  0  0  0  0  0  0  0  0
    3.8423   -0.0170    2.9896 C   0  0  2  0  0  0  0  0  0  0  0  0
    2.4415    0.1019    3.6123 C   0  0  0  0  0  0  0  0  0  0  0  0
    1.9483   -1.2157    4.2719 C   0  0  1  0  0  0  0  0  0  0  0  0
    0.5198   -1.1736    4.5514 N   0  0  0  0  0  0  0  0  0  0  0  0
   -0.4271   -0.2644    4.2823 C   0  0  0  0  0  0  0  0  0  0  0  0
   -1.6071   -0.6496    4.7509 N   0  0  0  0  0  0  0  0  0  0  0  0
   -1.3412   -1.8619    5.3440 N   0  0  0  0  0  0  0  0  0  0  0  0
   -0.0903   -2.1796    5.2266 N   0  0  0  0  0  0  0  0  0  0  0  0
    2.3422   -2.4475    3.4141 C   0  0  0  0  0  0  0  0  0  0  0  0
    3.3847   -1.9278   -0.8084 C   0  0  0  0  0  0  0  0  0  0  0  0
    3.1810   -2.9427   -1.9463 C   0  0  0  0  0  0  0  0  0  0  0  0
    4.3563   -0.6151   -3.1305 H   0  0  0  0  0  0  0  0  0  0  0  0
    3.2470   -1.3844   -4.2422 H   0  0  0  0  0  0  0  0  0  0  0  0
    4.9872   -1.4310   -4.5188 H   0  0  0  0  0  0  0  0  0  0  0  0
    3.8945   -4.6459   -3.4900 H   0  0  0  0  0  0  0  0  0  0  0  0
    5.7447   -4.0312   -1.8828 H   0  0  0  0  0  0  0  0  0  0  0  0
    6.4940   -2.9405   -3.0079 H   0  0  0  0  0  0  0  0  0  0  0  0
    6.8269   -2.2133   -0.6350 H   0  0  0  0  0  0  0  0  0  0  0  0
    5.9565   -1.0007   -1.5399 H   0  0  0  0  0  0  0  0  0  0  0  0
    4.7976   -3.0827    0.3001 H   0  0  0  0  0  0  0  0  0  0  0  0
    5.8692   -1.1111    1.4172 H   0  0  0  0  0  0  0  0  0  0  0  0
    4.8825   -0.0262    0.4929 H   0  0  0  0  0  0  0  0  0  0  0  0
    3.9659   -3.2385    2.2780 H   0  0  0  0  0  0  0  0  0  0  0  0
    4.6278   -2.5422    4.8320 H   0  0  0  0  0  0  0  0  0  0  0  0
    5.7915   -2.4081    3.5153 H   0  0  0  0  0  0  0  0  0  0  0  0
    4.6860   -0.1435    5.0173 H   0  0  0  0  0  0  0  0  0  0  0  0
    5.8699   -0.1311    3.7119 H   0  0  0  0  0  0  0  0  0  0  0  0
    4.0918    0.9387    2.5430 H   0  0  0  0  0  0  0  0  0  0  0  0
    2.4169    0.9161    4.3412 H   0  0  0  0  0  0  0  0  0  0  0  0
    1.7869    0.3922    2.7905 H   0  0  0  0  0  0  0  0  0  0  0  0
    2.4634   -1.3209    5.2298 H   0  0  0  0  0  0  0  0  0  0  0  0
   -0.2665    0.6680    3.7578 H   0  0  0  0  0  0  0  0  0  0  0  0
    1.6263   -2.5736    2.6011 H   0  0  0  0  0  0  0  0  0  0  0  0
    2.2804   -3.3642    4.0036 H   0  0  0  0  0  0  0  0  0  0  0  0
    2.5621   -2.0687   -0.1008 H   0  0  0  0  0  0  0  0  0  0  0  0
    3.2588   -0.9026   -1.1628 H   0  0  0  0  0  0  0  0  0  0  0  0
    2.2050   -2.7956   -2.4170 H   0  0  0  0  0  0  0  0  0  0  0  0
    3.1532   -3.9433   -1.5123 H   0  0  0  0  0  0  0  0  0  0  0  0
    2.9083   -1.0152    1.4918 H   0  0  0  0  0  0  0  0  0  0  0  0
  1  2  1  0
  1 23  1  0
  1 24  1  0
  1 25  1  0
  2 22  1  0
  2  3  1  6
  2  4  1  0
  3 26  1  0
  4  5  1  0
  4 27  1  0
  4 28  1  0
  5  6  1  0
  5 29  1  0
  5 30  1  0
  6  7  1  0
  6 21  1  0
  6 31  1  1
  7  8  1  0
  7 32  1  0
  7 33  1  0
  8 12  1  0
  8  9  1  0
  8 50  1  6
  9 20  1  0
  9 10  1  0
  9 34  1  6
 10 11  1  0
 10 35  1  0
 10 36  1  0
 11 12  1  0
 11 37  1  0
 11 38  1  0
 12 13  1  0
 12 39  1  6
 13 14  1  0
 13 40  1  0
 13 41  1  0
 14 15  1  0
 14 20  1  0
 14 42  1  1
 15 19  1  0
 15 16  1  0
 16 17  2  0
 16 43  1  0
 17 18  1  0
 18 19  2  0
 20 44  1  0
 20 45  1  0
 21 22  1  0
 21 46  1  0
 21 47  1  0
 22 48  1  0
 22 49  1  0
M  CHG  1   8   1
M  END
>  <i_m_ct_stereo_status>  (355) 
1

>  <s_m_source_file>  (355) 
/var/tmp/pbs.5076255.sched01/tmpyj7ipo08/120az4jmrmy.sdf

>  <i_m_source_file_index>  (355) 
24

>  <i_lp_mmshare_version>  (355) 
48012

>  <i_f3d_flags>  (355) 
0

>  <s_epik_input>  (355) 
W0NIM11bQ0BAXTEoW09IXSlbQ0gyXVtDSDJdW0NASF0oW0NIMl1bQ0gyXTEpW0NIMl1OKFtDQEBIXTIzKVtDQEhdKFtDSDJdW0NIMl0yKVtDSDJdW0NASF0oW0NIMl0zKW40W2NIXW5ubjQ=

>  <s_epik_cmdline>  (355) 
J2VwaWtfcHl0aG9uJywgJy1waHQnLCAnMi4wJywgJy1waCcsICc3LjAnLCAnLXRuJywgJzgnLCAnLW1hJywgJzIwMCcsICctaW1hZScsICc8aW5maWxlLm1hZT4nLCAnLW9tYWUnLCAnPG91dGZpbGUubWFlPic=

>  <r_lp_tautomer_probability>  (355) 
1

>  <r_epik_Ionization_Penalty>  (355) 
0.00236129

>  <r_epik_Ionization_Penalty_Charging>  (355) 
0.00236025

>  <r_epik_Ionization_Penalty_Neutral>  (355) 
1.0349e-06

>  <r_epik_State_Penalty>  (355) 
0.00163046

>  <r_epik_Charging_Adjusted_Penalty>  (355) 
0.00399072

>  <i_epik_Tot_Q>  (355) 
1

>  <i_epik_Tot_abs_Q>  (355) 
1

>  <s_lp_Force_Field>  (355) 
OPLS3e

>  <r_lp_Energy>  (355) 
25.358

>  <b_lp_Chiralities_Consistent>  (355) 
1

>  <s_lp_Variant>  (355) 
105:0-2

>  <s_i_glide_gridfile>  (355) 
pfpi4k_grid

>  <i_i_glide_lignum>  (355) 
24

>  <i_i_glide_rotatable_bonds>  (355) 
4

>  <r_i_docking_score>  (355) 
-4.53005

>  <r_i_glide_ligand_efficiency>  (355) 
-0.205911

>  <r_i_glide_ligand_efficiency_sa>  (355) 
-0.576971

>  <r_i_glide_ligand_efficiency_ln>  (355) 
-1.10731

>  <r_i_glide_gscore>  (355) 
-4.53005

>  <r_i_glide_lipo>  (355) 
-0.617833

>  <r_i_glide_hbond>  (355) 
-0.32

>  <r_i_glide_metal>  (355) 
-0

>  <r_i_glide_rewards>  (355) 
-1.31982

>  <r_i_glide_evdw>  (355) 
-27.9032

>  <r_i_glide_ecoul>  (355) 
-8.97196

>  <r_i_glide_erotb>  (355) 
0.590173

>  <r_i_glide_esite>  (355) 
-0.121611

>  <r_i_glide_emodel>  (355) 
-46.4077

>  <r_i_glide_energy>  (355) 
-36.8752

>  <r_i_glide_einternal>  (355) 
2.57717

>  <r_i_glide_intrahb_reward>  (355) 
-0

>  <i_i_glide_confnum>  (355) 
6

>  <i_i_glide_posenum>  (355) 
22

>  <r_i_glide_eff_state_penalty>  (355) 
0

>  <ligand_id>  (355) 
105

>  <original_smiles>  (355) 
CC1(O)CCC(CN2C3CCC2CC(n2cnnn2)C3)CC1

>  <smiles>  (355) 
[H]OC1(C([H])([H])[H])C([H])([H])C([H])([H])C([H])(C([H])([H])[N+]2([H])C3([H])C([H])([H])C([H])([H])C2([H])C([H])([H])C([H])(n2nnnc2[H])C3([H])[H])C([H])([H])C1([H])[H]

$$$$
106:0:0
     RDKit          3D

 23 24  0  0  1  0  0  0  0  0999 V2000
    8.2723   -2.4980   -0.1279 C   0  0  0  0  0  0  0  0  0  0  0  0
    7.2499   -2.9167    0.7759 O   0  0  0  0  0  0  0  0  0  0  0  0
    6.1744   -2.0746    0.9836 C   0  0  0  0  0  0  0  0  0  0  0  0
    5.8110   -1.9498    2.2792 N   0  0  0  0  0  0  0  0  0  0  0  0
    4.7653   -1.1360    2.5569 C   0  0  0  0  0  0  0  0  0  0  0  0
    4.0632   -0.4603    1.5389 C   0  0  0  0  0  0  0  0  0  0  0  0
    4.4175   -0.5854    0.2449 N   0  0  0  0  0  0  0  0  0  0  0  0
    5.4527   -1.4040   -0.0448 C   0  0  0  0  0  0  0  0  0  0  0  0
    5.7465   -1.5378   -1.3789 O   0  0  0  0  0  0  0  0  0  0  0  0
    4.8196   -2.1306   -2.2132 C   0  0  0  0  0  0  0  0  0  0  0  0
    3.4751   -1.6968   -2.3428 C   0  0  0  0  0  0  0  0  0  0  0  0
    2.6196   -2.2810   -3.1992 N   0  0  0  0  0  0  0  0  0  0  0  0
    3.0833   -3.2837   -3.9213 C   0  0  0  0  0  0  0  0  0  0  0  0
    4.3311   -3.7563   -3.9249 N   0  0  0  0  0  0  0  0  0  0  0  0
    5.1958   -3.2013   -3.0553 C   0  0  0  0  0  0  0  0  0  0  0  0
    9.0076   -3.3015   -0.2239 H   0  0  0  0  0  0  0  0  0  0  0  0
    8.7868   -1.6133    0.2586 H   0  0  0  0  0  0  0  0  0  0  0  0
    7.9260   -2.2964   -1.1412 H   0  0  0  0  0  0  0  0  0  0  0  0
    4.5008   -1.0196    3.5941 H   0  0  0  0  0  0  0  0  0  0  0  0
    3.2148    0.1691    1.7628 H   0  0  0  0  0  0  0  0  0  0  0  0
    3.0680   -0.8567   -1.7980 H   0  0  0  0  0  0  0  0  0  0  0  0
    2.3716   -3.7354   -4.5895 H   0  0  0  0  0  0  0  0  0  0  0  0
    6.2059   -3.5965   -3.0644 H   0  0  0  0  0  0  0  0  0  0  0  0
  1  2  1  0
  1 16  1  0
  1 17  1  0
  1 18  1  0
  2  3  1  0
  3  8  2  0
  3  4  1  0
  4  5  2  0
  5  6  1  0
  5 19  1  0
  6  7  2  0
  6 20  1  0
  7  8  1  0
  8  9  1  0
  9 10  1  0
 10 15  1  0
 10 11  2  0
 11 12  1  0
 11 21  1  0
 12 13  2  0
 13 14  1  0
 13 22  1  0
 14 15  2  0
 15 23  1  0
M  END
>  <i_m_ct_stereo_status>  (356) 
1

>  <s_m_source_file>  (356) 
/var/tmp/pbs.5076255.sched01/tmpyj7ipo08/120az4jmrmy.sdf

>  <i_m_source_file_index>  (356) 
25

>  <i_lp_mmshare_version>  (356) 
48012

>  <i_f3d_flags>  (356) 
0

>  <s_epik_input>  (356) 
W0NIM11PYzFuW2NIXVtjSF1uYzFPYzJbY0hdbltjSF1uW2NIXTI=

>  <s_epik_cmdline>  (356) 
J2VwaWtfcHl0aG9uJywgJy1waHQnLCAnMi4wJywgJy1waCcsICc3LjAnLCAnLXRuJywgJzgnLCAnLW1hJywgJzIwMCcsICctaW1hZScsICc8aW5maWxlLm1hZT4nLCAnLW9tYWUnLCAnPG91dGZpbGUubWFlPic=

>  <r_lp_tautomer_probability>  (356) 
1

>  <r_epik_Ionization_Penalty>  (356) 
4.56617e-07

>  <r_epik_Ionization_Penalty_Charging>  (356) 
0

>  <r_epik_Ionization_Penalty_Neutral>  (356) 
4.56617e-07

>  <r_epik_State_Penalty>  (356) 
-0

>  <r_epik_Charging_Adjusted_Penalty>  (356) 
0

>  <i_epik_Tot_Q>  (356) 
0

>  <i_epik_Tot_abs_Q>  (356) 
0

>  <s_lp_Force_Field>  (356) 
OPLS3e

>  <r_lp_Energy>  (356) 
38.0629

>  <b_lp_Chiralities_Consistent>  (356) 
1

>  <s_lp_Variant>  (356) 
106:0-1

>  <s_i_glide_gridfile>  (356) 
pfpi4k_grid

>  <i_i_glide_lignum>  (356) 
25

>  <i_i_glide_rotatable_bonds>  (356) 
3

>  <r_i_docking_score>  (356) 
-3.29087

>  <r_i_glide_ligand_efficiency>  (356) 
-0.219391

>  <r_i_glide_ligand_efficiency_sa>  (356) 
-0.541065

>  <r_i_glide_ligand_efficiency_ln>  (356) 
-0.887493

>  <r_i_glide_gscore>  (356) 
-3.29087

>  <r_i_glide_lipo>  (356) 
-0.503343

>  <r_i_glide_hbond>  (356) 
-0.0525788

>  <r_i_glide_metal>  (356) 
-0

>  <r_i_glide_rewards>  (356) 
-2.15217

>  <r_i_glide_evdw>  (356) 
-24.8752

>  <r_i_glide_ecoul>  (356) 
-0.852876

>  <r_i_glide_erotb>  (356) 
0.78892

>  <r_i_glide_esite>  (356) 
0

>  <r_i_glide_emodel>  (356) 
-25.4581

>  <r_i_glide_energy>  (356) 
-25.7281

>  <r_i_glide_einternal>  (356) 
9.6464

>  <r_i_glide_intrahb_reward>  (356) 
-0

>  <i_i_glide_confnum>  (356) 
6

>  <i_i_glide_posenum>  (356) 
39

>  <r_i_glide_eff_state_penalty>  (356) 
0

>  <ligand_id>  (356) 
106

>  <original_smiles>  (356) 
COc1nccnc1Oc1cncnc1

>  <smiles>  (356) 
[H]c1nc([H])c(Oc2nc([H])c([H])nc2OC([H])([H])[H])c([H])n1

$$$$
106:0:1
     RDKit          3D

 23 24  0  0  1  0  0  0  0  0999 V2000
    8.7359   -2.3475    0.3692 C   0  0  0  0  0  0  0  0  0  0  0  0
    7.5737   -2.0030   -0.3786 O   0  0  0  0  0  0  0  0  0  0  0  0
    6.4440   -1.5917    0.3022 C   0  0  0  0  0  0  0  0  0  0  0  0
    6.4290   -1.6443    1.6544 N   0  0  0  0  0  0  0  0  0  0  0  0
    5.3103   -1.2115    2.2734 C   0  0  0  0  0  0  0  0  0  0  0  0
    4.1988   -0.7248    1.5499 C   0  0  0  0  0  0  0  0  0  0  0  0
    4.2074   -0.6664    0.2017 N   0  0  0  0  0  0  0  0  0  0  0  0
    5.3229   -1.1126   -0.4166 C   0  0  0  0  0  0  0  0  0  0  0  0
    5.3534   -1.0155   -1.7810 O   0  0  0  0  0  0  0  0  0  0  0  0
    4.5025   -1.8314   -2.4731 C   0  0  0  0  0  0  0  0  0  0  0  0
    3.1123   -1.6010   -2.5637 C   0  0  0  0  0  0  0  0  0  0  0  0
    2.3170   -2.4214   -3.2754 N   0  0  0  0  0  0  0  0  0  0  0  0
    2.8927   -3.4391   -3.9011 C   0  0  0  0  0  0  0  0  0  0  0  0
    4.1974   -3.7213   -3.9320 N   0  0  0  0  0  0  0  0  0  0  0  0
    5.0004   -2.9380   -3.1897 C   0  0  0  0  0  0  0  0  0  0  0  0
    9.5122   -2.7036   -0.3041 H   0  0  0  0  0  0  0  0  0  0  0  0
    8.5552   -3.1470    1.0900 H   0  0  0  0  0  0  0  0  0  0  0  0
    9.1416   -1.4716    0.8771 H   0  0  0  0  0  0  0  0  0  0  0  0
    5.2973   -1.2706    3.3475 H   0  0  0  0  0  0  0  0  0  0  0  0
    3.3049   -0.3841    2.0542 H   0  0  0  0  0  0  0  0  0  0  0  0
    2.6288   -0.7614   -2.0800 H   0  0  0  0  0  0  0  0  0  0  0  0
    2.2217   -4.0866   -4.4370 H   0  0  0  0  0  0  0  0  0  0  0  0
    6.0601   -3.1611   -3.2037 H   0  0  0  0  0  0  0  0  0  0  0  0
  1  2  1  0
  1 16  1  0
  1 17  1  0
  1 18  1  0
  2  3  1  0
  3  8  2  0
  3  4  1  0
  4  5  2  0
  5  6  1  0
  5 19  1  0
  6  7  2  0
  6 20  1  0
  7  8  1  0
  8  9  1  0
  9 10  1  0
 10 15  1  0
 10 11  2  0
 11 12  1  0
 11 21  1  0
 12 13  2  0
 13 14  1  0
 13 22  1  0
 14 15  2  0
 15 23  1  0
M  END
>  <i_m_ct_stereo_status>  (357) 
1

>  <s_m_source_file>  (357) 
/var/tmp/pbs.5076255.sched01/tmpyj7ipo08/120az4jmrmy.sdf

>  <i_m_source_file_index>  (357) 
25

>  <i_lp_mmshare_version>  (357) 
48012

>  <i_f3d_flags>  (357) 
0

>  <s_epik_input>  (357) 
W0NIM11PYzFuW2NIXVtjSF1uYzFPYzJbY0hdbltjSF1uW2NIXTI=

>  <s_epik_cmdline>  (357) 
J2VwaWtfcHl0aG9uJywgJy1waHQnLCAnMi4wJywgJy1waCcsICc3LjAnLCAnLXRuJywgJzgnLCAnLW1hJywgJzIwMCcsICctaW1hZScsICc8aW5maWxlLm1hZT4nLCAnLW9tYWUnLCAnPG91dGZpbGUubWFlPic=

>  <r_lp_tautomer_probability>  (357) 
1

>  <r_epik_Ionization_Penalty>  (357) 
4.56617e-07

>  <r_epik_Ionization_Penalty_Charging>  (357) 
0

>  <r_epik_Ionization_Penalty_Neutral>  (357) 
4.56617e-07

>  <r_epik_State_Penalty>  (357) 
-0

>  <r_epik_Charging_Adjusted_Penalty>  (357) 
0

>  <i_epik_Tot_Q>  (357) 
0

>  <i_epik_Tot_abs_Q>  (357) 
0

>  <s_lp_Force_Field>  (357) 
OPLS3e

>  <r_lp_Energy>  (357) 
38.0629

>  <b_lp_Chiralities_Consistent>  (357) 
1

>  <s_lp_Variant>  (357) 
106:0-1

>  <s_i_glide_gridfile>  (357) 
pfpi4k_grid

>  <i_i_glide_lignum>  (357) 
25

>  <i_i_glide_rotatable_bonds>  (357) 
3

>  <r_i_docking_score>  (357) 
-3.23883

>  <r_i_glide_ligand_efficiency>  (357) 
-0.215922

>  <r_i_glide_ligand_efficiency_sa>  (357) 
-0.532509

>  <r_i_glide_ligand_efficiency_ln>  (357) 
-0.873459

>  <r_i_glide_gscore>  (357) 
-3.23883

>  <r_i_glide_lipo>  (357) 
-0.344227

>  <r_i_glide_hbond>  (357) 
-0.159917

>  <r_i_glide_metal>  (357) 
-0

>  <r_i_glide_rewards>  (357) 
-2.1526

>  <r_i_glide_evdw>  (357) 
-22.5897

>  <r_i_glide_ecoul>  (357) 
-1.61011

>  <r_i_glide_erotb>  (357) 
0.78892

>  <r_i_glide_esite>  (357) 
0

>  <r_i_glide_emodel>  (357) 
-28.0421

>  <r_i_glide_energy>  (357) 
-24.1998

>  <r_i_glide_einternal>  (357) 
2.18904

>  <r_i_glide_intrahb_reward>  (357) 
-0

>  <i_i_glide_confnum>  (357) 
4

>  <i_i_glide_posenum>  (357) 
10

>  <r_i_glide_eff_state_penalty>  (357) 
0

>  <ligand_id>  (357) 
106

>  <original_smiles>  (357) 
COc1nccnc1Oc1cncnc1

>  <smiles>  (357) 
[H]c1nc([H])c(Oc2nc([H])c([H])nc2OC([H])([H])[H])c([H])n1

$$$$
106:0:2
     RDKit          3D

 23 24  0  0  1  0  0  0  0  0999 V2000
    2.1296   -5.7567    1.1895 C   0  0  0  0  0  0  0  0  0  0  0  0
    1.6793   -5.6552    2.5392 O   0  0  0  0  0  0  0  0  0  0  0  0
    0.6490   -6.4762    2.9600 C   0  0  0  0  0  0  0  0  0  0  0  0
   -0.0654   -7.1529    2.0236 N   0  0  0  0  0  0  0  0  0  0  0  0
   -1.0574   -7.9548    2.4724 C   0  0  0  0  0  0  0  0  0  0  0  0
   -1.3682   -8.0545    3.8459 C   0  0  0  0  0  0  0  0  0  0  0  0
   -0.6883   -7.3535    4.7773 N   0  0  0  0  0  0  0  0  0  0  0  0
    0.3253   -6.5641    4.3387 C   0  0  0  0  0  0  0  0  0  0  0  0
    1.0271   -5.8431    5.2786 O   0  0  0  0  0  0  0  0  0  0  0  0
    0.3894   -5.4576    6.4362 C   0  0  0  0  0  0  0  0  0  0  0  0
   -0.3507   -4.2608    6.5009 C   0  0  0  0  0  0  0  0  0  0  0  0
   -0.9814   -3.8626    7.6276 N   0  0  0  0  0  0  0  0  0  0  0  0
   -0.8521   -4.6642    8.6868 C   0  0  0  0  0  0  0  0  0  0  0  0
   -0.1838   -5.8186    8.7483 N   0  0  0  0  0  0  0  0  0  0  0  0
    0.4467   -6.2187    7.6243 C   0  0  0  0  0  0  0  0  0  0  0  0
    2.9204   -5.0259    1.0219 H   0  0  0  0  0  0  0  0  0  0  0  0
    1.3502   -5.5507    0.4555 H   0  0  0  0  0  0  0  0  0  0  0  0
    2.5465   -6.7429    0.9856 H   0  0  0  0  0  0  0  0  0  0  0  0
   -1.6228   -8.4959    1.7296 H   0  0  0  0  0  0  0  0  0  0  0  0
   -2.1813   -8.6799    4.1884 H   0  0  0  0  0  0  0  0  0  0  0  0
   -0.4434   -3.6220    5.6333 H   0  0  0  0  0  0  0  0  0  0  0  0
   -1.3515   -4.3432    9.5872 H   0  0  0  0  0  0  0  0  0  0  0  0
    0.9819   -7.1573    7.6798 H   0  0  0  0  0  0  0  0  0  0  0  0
  1  2  1  0
  1 16  1  0
  1 17  1  0
  1 18  1  0
  2  3  1  0
  3  8  2  0
  3  4  1  0
  4  5  2  0
  5  6  1  0
  5 19  1  0
  6  7  2  0
  6 20  1  0
  7  8  1  0
  8  9  1  0
  9 10  1  0
 10 15  1  0
 10 11  2  0
 11 12  1  0
 11 21  1  0
 12 13  2  0
 13 14  1  0
 13 22  1  0
 14 15  2  0
 15 23  1  0
M  END
>  <i_m_ct_stereo_status>  (358) 
1

>  <s_m_source_file>  (358) 
/var/tmp/pbs.5076255.sched01/tmpyj7ipo08/120az4jmrmy.sdf

>  <i_m_source_file_index>  (358) 
25

>  <i_lp_mmshare_version>  (358) 
48012

>  <i_f3d_flags>  (358) 
0

>  <s_epik_input>  (358) 
W0NIM11PYzFuW2NIXVtjSF1uYzFPYzJbY0hdbltjSF1uW2NIXTI=

>  <s_epik_cmdline>  (358) 
J2VwaWtfcHl0aG9uJywgJy1waHQnLCAnMi4wJywgJy1waCcsICc3LjAnLCAnLXRuJywgJzgnLCAnLW1hJywgJzIwMCcsICctaW1hZScsICc8aW5maWxlLm1hZT4nLCAnLW9tYWUnLCAnPG91dGZpbGUubWFlPic=

>  <r_lp_tautomer_probability>  (358) 
1

>  <r_epik_Ionization_Penalty>  (358) 
4.56617e-07

>  <r_epik_Ionization_Penalty_Charging>  (358) 
0

>  <r_epik_Ionization_Penalty_Neutral>  (358) 
4.56617e-07

>  <r_epik_State_Penalty>  (358) 
-0

>  <r_epik_Charging_Adjusted_Penalty>  (358) 
0

>  <i_epik_Tot_Q>  (358) 
0

>  <i_epik_Tot_abs_Q>  (358) 
0

>  <s_lp_Force_Field>  (358) 
OPLS3e

>  <r_lp_Energy>  (358) 
38.0629

>  <b_lp_Chiralities_Consistent>  (358) 
1

>  <s_lp_Variant>  (358) 
106:0-1

>  <s_i_glide_gridfile>  (358) 
pfpi4k_grid

>  <i_i_glide_lignum>  (358) 
25

>  <i_i_glide_rotatable_bonds>  (358) 
3

>  <r_i_docking_score>  (358) 
-2.74873

>  <r_i_glide_ligand_efficiency>  (358) 
-0.183249

>  <r_i_glide_ligand_efficiency_sa>  (358) 
-0.45193

>  <r_i_glide_ligand_efficiency_ln>  (358) 
-0.741287

>  <r_i_glide_gscore>  (358) 
-2.74873

>  <r_i_glide_lipo>  (358) 
0

>  <r_i_glide_hbond>  (358) 
-0.0739928

>  <r_i_glide_metal>  (358) 
-0

>  <r_i_glide_rewards>  (358) 
-2.01692

>  <r_i_glide_evdw>  (358) 
-17.7801

>  <r_i_glide_ecoul>  (358) 
-3.64282

>  <r_i_glide_erotb>  (358) 
0.78892

>  <r_i_glide_esite>  (358) 
-0.0113123

>  <r_i_glide_emodel>  (358) 
-24.4831

>  <r_i_glide_energy>  (358) 
-21.4229

>  <r_i_glide_einternal>  (358) 
2.21175

>  <r_i_glide_intrahb_reward>  (358) 
-0

>  <i_i_glide_confnum>  (358) 
3

>  <i_i_glide_posenum>  (358) 
30

>  <r_i_glide_eff_state_penalty>  (358) 
0

>  <ligand_id>  (358) 
106

>  <original_smiles>  (358) 
COc1nccnc1Oc1cncnc1

>  <smiles>  (358) 
[H]c1nc([H])c(Oc2nc([H])c([H])nc2OC([H])([H])[H])c([H])n1

$$$$
108:0:0
     RDKit          3D

 39 42  0  0  1  0  0  0  0  0999 V2000
    2.8597   -2.0583    4.0541 O   0  0  0  0  0  0  0  0  0  0  0  0
    2.9046   -1.6093    2.9106 C   0  0  0  0  0  0  0  0  0  0  0  0
    3.8655   -1.9361    2.0017 O   0  0  0  0  0  0  0  0  0  0  0  0
    3.7367   -1.8405    0.5946 C   0  0  2  0  0  0  0  0  0  0  0  0
    3.3723   -3.1927    0.0204 C   0  0  1  0  0  0  0  0  0  0  0  0
    3.0865   -2.9726   -1.4780 C   0  0  0  0  0  0  0  0  0  0  0  0
    4.3421   -2.4237   -2.1773 C   0  0  2  0  0  0  0  0  0  0  0  0
    5.4924   -3.4318   -1.9854 C   0  0  0  0  0  0  0  0  0  0  0  0
    5.7893   -3.6275   -0.4849 C   0  0  2  0  0  0  0  0  0  0  0  0
    4.5308   -4.1994    0.2131 C   0  0  0  0  0  0  0  0  0  0  0  0
    6.1968   -2.2676    0.1483 C   0  0  0  0  0  0  0  0  0  0  0  0
    5.0079   -1.2891   -0.0476 C   0  0  1  0  0  0  0  0  0  0  0  0
    4.7457   -1.0688   -1.5531 C   0  0  0  0  0  0  0  0  0  0  0  0
    1.9323   -0.7598    2.3696 N   0  0  0  0  0  0  0  0  0  0  0  0
    0.8943   -0.1285    3.1545 C   0  0  0  0  0  0  0  0  0  0  0  0
    0.8880    0.9909    2.1154 C   0  0  0  0  0  0  0  0  0  0  0  0
    0.8156    2.3551    2.5136 O   0  0  0  0  0  0  0  0  0  0  0  0
    2.2135    0.4746    1.6248 C   0  0  0  0  0  0  0  0  0  0  0  0
    2.9204   -1.2548    0.2288 H   0  0  0  0  0  0  0  0  0  0  0  0
    2.4784   -3.5475    0.5242 H   0  0  0  0  0  0  0  0  0  0  0  0
    2.7449   -3.8899   -1.9480 H   0  0  0  0  0  0  0  0  0  0  0  0
    2.2622   -2.2749   -1.6143 H   0  0  0  0  0  0  0  0  0  0  0  0
    4.1359   -2.2887   -3.2380 H   0  0  0  0  0  0  0  0  0  0  0  0
    5.2005   -4.3870   -2.4189 H   0  0  0  0  0  0  0  0  0  0  0  0
    6.3800   -3.0935   -2.5112 H   0  0  0  0  0  0  0  0  0  0  0  0
    6.6079   -4.3267   -0.3365 H   0  0  0  0  0  0  0  0  0  0  0  0
    4.7031   -4.3454    1.2892 H   0  0  0  0  0  0  0  0  0  0  0  0
    4.2345   -5.1743   -0.2152 H   0  0  0  0  0  0  0  0  0  0  0  0
    6.3722   -2.3801    1.2242 H   0  0  0  0  0  0  0  0  0  0  0  0
    7.1293   -1.8669   -0.2873 H   0  0  0  0  0  0  0  0  0  0  0  0
    5.2679   -0.3272    0.3930 H   0  0  0  0  0  0  0  0  0  0  0  0
    5.6135   -0.6569   -2.0711 H   0  0  0  0  0  0  0  0  0  0  0  0
    3.9415   -0.3464   -1.7034 H   0  0  0  0  0  0  0  0  0  0  0  0
   -0.0586   -0.6724    3.2320 H   0  0  0  0  0  0  0  0  0  0  0  0
    1.2261    0.2282    4.1443 H   0  0  0  0  0  0  0  0  0  0  0  0
    0.1161    0.8473    1.3495 H   0  0  0  0  0  0  0  0  0  0  0  0
    0.6395    2.8738    1.7520 H   0  0  0  0  0  0  0  0  0  0  0  0
    3.0981    1.0119    1.9892 H   0  0  0  0  0  0  0  0  0  0  0  0
    2.1550    0.4292    0.5360 H   0  0  0  0  0  0  0  0  0  0  0  0
  1  2  2  0
  2  3  1  0
  2 14  1  0
  3  4  1  0
  4 12  1  0
  4  5  1  0
  4 19  1  1
  5 10  1  0
  5  6  1  0
  5 20  1  1
  6  7  1  0
  6 21  1  0
  6 22  1  0
  7 13  1  0
  7  8  1  0
  7 23  1  6
  8  9  1  0
  8 24  1  0
  8 25  1  0
  9 10  1  0
  9 11  1  0
  9 26  1  6
 10 27  1  0
 10 28  1  0
 11 12  1  0
 11 29  1  0
 11 30  1  0
 12 13  1  0
 12 31  1  1
 13 32  1  0
 13 33  1  0
 14 18  1  0
 14 15  1  0
 15 16  1  0
 15 34  1  0
 15 35  1  0
 16 17  1  0
 16 18  1  0
 16 36  1  0
 17 37  1  0
 18 38  1  0
 18 39  1  0
M  END
>  <i_m_ct_stereo_status>  (359) 
1

>  <s_m_source_file>  (359) 
/var/tmp/pbs.5076255.sched01/tmpyj7ipo08/120az4jmrmy.sdf

>  <i_m_source_file_index>  (359) 
28

>  <i_lp_mmshare_version>  (359) 
48012

>  <i_f3d_flags>  (359) 
0

>  <s_epik_input>  (359) 
W09IXVtDSF0oW0NIMl0xKVtDSDJdTjFDKD1PKU9bQ0BIXShbQ0BASF0yMylbQ0BIXTRbQ0gyXVtDQEBIXShbQ0gyXTMpW0NIMl1bQ0BASF0oW0NIMl0yKVtDSDJdNA==

>  <s_epik_cmdline>  (359) 
J2VwaWtfcHl0aG9uJywgJy1waHQnLCAnMi4wJywgJy1waCcsICc3LjAnLCAnLXRuJywgJzgnLCAnLW1hJywgJzIwMCcsICctaW1hZScsICc8aW5maWxlLm1hZT4nLCAnLW9tYWUnLCAnPG91dGZpbGUubWFlPic=

>  <r_lp_tautomer_probability>  (359) 
1

>  <r_epik_Ionization_Penalty>  (359) 
1.99479e-06

>  <r_epik_Ionization_Penalty_Charging>  (359) 
0

>  <r_epik_Ionization_Penalty_Neutral>  (359) 
1.99479e-06

>  <r_epik_State_Penalty>  (359) 
-0

>  <r_epik_Charging_Adjusted_Penalty>  (359) 
0

>  <i_epik_Tot_Q>  (359) 
0

>  <i_epik_Tot_abs_Q>  (359) 
0

>  <s_epik_Chemistry_Notes>  (359) 
This compound has an ester and may undergo hydrolysis at high or low pH.

>  <s_lp_Force_Field>  (359) 
OPLS3e

>  <r_lp_Energy>  (359) 
7.96246

>  <b_lp_Chiralities_Consistent>  (359) 
1

>  <s_lp_Variant>  (359) 
108:0-1

>  <s_i_glide_gridfile>  (359) 
pfpi4k_grid

>  <i_i_glide_lignum>  (359) 
28

>  <i_i_glide_rotatable_bonds>  (359) 
4

>  <r_i_docking_score>  (359) 
-3.06418

>  <r_i_glide_ligand_efficiency>  (359) 
-0.170232

>  <r_i_glide_ligand_efficiency_sa>  (359) 
-0.446134

>  <r_i_glide_ligand_efficiency_ln>  (359) 
-0.787631

>  <r_i_glide_gscore>  (359) 
-3.06418

>  <r_i_glide_lipo>  (359) 
-0.307535

>  <r_i_glide_hbond>  (359) 
-0.16

>  <r_i_glide_metal>  (359) 
-0

>  <r_i_glide_rewards>  (359) 
-1.69554

>  <r_i_glide_evdw>  (359) 
-22.7119

>  <r_i_glide_ecoul>  (359) 
-3.77115

>  <r_i_glide_erotb>  (359) 
0.83244

>  <r_i_glide_esite>  (359) 
-0.032277

>  <r_i_glide_emodel>  (359) 
-29.4078

>  <r_i_glide_energy>  (359) 
-26.4831

>  <r_i_glide_einternal>  (359) 
4.10832

>  <r_i_glide_intrahb_reward>  (359) 
-0

>  <i_i_glide_confnum>  (359) 
4

>  <i_i_glide_posenum>  (359) 
16

>  <r_i_glide_eff_state_penalty>  (359) 
0

>  <ligand_id>  (359) 
108

>  <original_smiles>  (359) 
O=C(OC1C2CC3CC(C2)CC1C3)N1CC(O)C1

>  <smiles>  (359) 
[H]OC1([H])C([H])([H])N(C(=O)OC2([H])C3([H])C([H])([H])C4([H])C([H])([H])C([H])(C3([H])[H])C([H])([H])C2([H])C4([H])[H])C1([H])[H]

$$$$
108:0:1
     RDKit          3D

 39 42  0  0  1  0  0  0  0  0999 V2000
    2.1729   -0.9731    1.6404 O   0  0  0  0  0  0  0  0  0  0  0  0
    3.3946   -0.8528    1.6053 C   0  0  0  0  0  0  0  0  0  0  0  0
    4.1996   -1.1701    0.5705 O   0  0  0  0  0  0  0  0  0  0  0  0
    3.6673   -1.4199   -0.7233 C   0  0  2  0  0  0  0  0  0  0  0  0
    3.1561   -2.8654   -0.9253 C   0  0  1  0  0  0  0  0  0  0  0  0
    2.5363   -2.9603   -2.3426 C   0  0  0  0  0  0  0  0  0  0  0  0
    3.5953   -2.6290   -3.4155 C   0  0  2  0  0  0  0  0  0  0  0  0
    4.7561   -3.6347   -3.2928 C   0  0  0  0  0  0  0  0  0  0  0  0
    5.3851   -3.5433   -1.8817 C   0  0  2  0  0  0  0  0  0  0  0  0
    4.3250   -3.8692   -0.8100 C   0  0  0  0  0  0  0  0  0  0  0  0
    5.9152   -2.1262   -1.6313 C   0  0  0  0  0  0  0  0  0  0  0  0
    4.7539   -1.1157   -1.7739 C   0  0  1  0  0  0  0  0  0  0  0  0
    4.1272   -1.2028   -3.1828 C   0  0  0  0  0  0  0  0  0  0  0  0
    4.1636   -0.3730    2.6489 N   0  0  0  0  0  0  0  0  0  0  0  0
    3.6989   -0.1888    4.0098 C   0  0  0  0  0  0  0  0  0  0  0  0
    5.1638   -0.3219    4.4314 C   0  0  0  0  0  0  0  0  0  0  0  0
    5.4123   -1.1944    5.5135 O   0  0  0  0  0  0  0  0  0  0  0  0
    5.4801   -0.8542    3.0282 C   0  0  0  0  0  0  0  0  0  0  0  0
    2.8580   -0.7134   -0.8902 H   0  0  0  0  0  0  0  0  0  0  0  0
    2.3897   -3.1009   -0.1801 H   0  0  0  0  0  0  0  0  0  0  0  0
    2.1074   -3.9438   -2.5163 H   0  0  0  0  0  0  0  0  0  0  0  0
    1.7103   -2.2563   -2.4298 H   0  0  0  0  0  0  0  0  0  0  0  0
    3.1438   -2.6903   -4.4100 H   0  0  0  0  0  0  0  0  0  0  0  0
    4.3991   -4.6463   -3.4884 H   0  0  0  0  0  0  0  0  0  0  0  0
    5.5097   -3.4422   -4.0513 H   0  0  0  0  0  0  0  0  0  0  0  0
    6.2138   -4.2462   -1.8006 H   0  0  0  0  0  0  0  0  0  0  0  0
    4.7698   -3.8338    0.1848 H   0  0  0  0  0  0  0  0  0  0  0  0
    3.9616   -4.8843   -0.9554 H   0  0  0  0  0  0  0  0  0  0  0  0
    6.3518   -2.0600   -0.6305 H   0  0  0  0  0  0  0  0  0  0  0  0
    6.7194   -1.8977   -2.3189 H   0  0  0  0  0  0  0  0  0  0  0  0
    5.1309   -0.1176   -1.6170 H   0  0  0  0  0  0  0  0  0  0  0  0
    4.8610   -0.9526   -3.9501 H   0  0  0  0  0  0  0  0  0  0  0  0
    3.3214   -0.4716   -3.2779 H   0  0  0  0  0  0  0  0  0  0  0  0
    3.2834    0.7995    4.2144 H   0  0  0  0  0  0  0  0  0  0  0  0
    3.0519   -0.9898    4.3763 H   0  0  0  0  0  0  0  0  0  0  0  0
    5.6355    0.6463    4.6092 H   0  0  0  0  0  0  0  0  0  0  0  0
    5.0277   -0.8016    6.2819 H   0  0  0  0  0  0  0  0  0  0  0  0
    5.5849   -1.9393    2.9769 H   0  0  0  0  0  0  0  0  0  0  0  0
    6.3081   -0.3408    2.5374 H   0  0  0  0  0  0  0  0  0  0  0  0
  1  2  2  0
  2  3  1  0
  2 14  1  0
  3  4  1  0
  4 12  1  0
  4  5  1  0
  4 19  1  6
  5 10  1  0
  5  6  1  0
  5 20  1  1
  6  7  1  0
  6 21  1  0
  6 22  1  0
  7 13  1  0
  7  8  1  0
  7 23  1  6
  8  9  1  0
  8 24  1  0
  8 25  1  0
  9 10  1  0
  9 11  1  0
  9 26  1  6
 10 27  1  0
 10 28  1  0
 11 12  1  0
 11 29  1  0
 11 30  1  0
 12 13  1  0
 12 31  1  1
 13 32  1  0
 13 33  1  0
 14 18  1  0
 14 15  1  0
 15 16  1  0
 15 34  1  0
 15 35  1  0
 16 17  1  0
 16 18  1  0
 16 36  1  0
 17 37  1  0
 18 38  1  0
 18 39  1  0
M  END
>  <i_m_ct_stereo_status>  (360) 
1

>  <s_m_source_file>  (360) 
/var/tmp/pbs.5076255.sched01/tmpyj7ipo08/120az4jmrmy.sdf

>  <i_m_source_file_index>  (360) 
28

>  <i_lp_mmshare_version>  (360) 
48012

>  <i_f3d_flags>  (360) 
0

>  <s_epik_input>  (360) 
W09IXVtDSF0oW0NIMl0xKVtDSDJdTjFDKD1PKU9bQ0BIXShbQ0BASF0yMylbQ0BIXTRbQ0gyXVtDQEBIXShbQ0gyXTMpW0NIMl1bQ0BASF0oW0NIMl0yKVtDSDJdNA==

>  <s_epik_cmdline>  (360) 
J2VwaWtfcHl0aG9uJywgJy1waHQnLCAnMi4wJywgJy1waCcsICc3LjAnLCAnLXRuJywgJzgnLCAnLW1hJywgJzIwMCcsICctaW1hZScsICc8aW5maWxlLm1hZT4nLCAnLW9tYWUnLCAnPG91dGZpbGUubWFlPic=

>  <r_lp_tautomer_probability>  (360) 
1

>  <r_epik_Ionization_Penalty>  (360) 
1.99479e-06

>  <r_epik_Ionization_Penalty_Charging>  (360) 
0

>  <r_epik_Ionization_Penalty_Neutral>  (360) 
1.99479e-06

>  <r_epik_State_Penalty>  (360) 
-0

>  <r_epik_Charging_Adjusted_Penalty>  (360) 
0

>  <i_epik_Tot_Q>  (360) 
0

>  <i_epik_Tot_abs_Q>  (360) 
0

>  <s_epik_Chemistry_Notes>  (360) 
This compound has an ester and may undergo hydrolysis at high or low pH.

>  <s_lp_Force_Field>  (360) 
OPLS3e

>  <r_lp_Energy>  (360) 
7.96246

>  <b_lp_Chiralities_Consistent>  (360) 
1

>  <s_lp_Variant>  (360) 
108:0-1

>  <s_i_glide_gridfile>  (360) 
pfpi4k_grid

>  <i_i_glide_lignum>  (360) 
28

>  <i_i_glide_rotatable_bonds>  (360) 
4

>  <r_i_docking_score>  (360) 
-2.66134

>  <r_i_glide_ligand_efficiency>  (360) 
-0.147852

>  <r_i_glide_ligand_efficiency_sa>  (360) 
-0.387482

>  <r_i_glide_ligand_efficiency_ln>  (360) 
-0.684083

>  <r_i_glide_gscore>  (360) 
-2.66134

>  <r_i_glide_lipo>  (360) 
-0.668309

>  <r_i_glide_hbond>  (360) 
0

>  <r_i_glide_metal>  (360) 
-0

>  <r_i_glide_rewards>  (360) 
-1.77072

>  <r_i_glide_evdw>  (360) 
-22.2087

>  <r_i_glide_ecoul>  (360) 
0.49144

>  <r_i_glide_erotb>  (360) 
0.83244

>  <r_i_glide_esite>  (360) 
-0.0180233

>  <r_i_glide_emodel>  (360) 
-25.0633

>  <r_i_glide_energy>  (360) 
-21.7173

>  <r_i_glide_einternal>  (360) 
2.66722

>  <r_i_glide_intrahb_reward>  (360) 
-0

>  <i_i_glide_confnum>  (360) 
4

>  <i_i_glide_posenum>  (360) 
2

>  <r_i_glide_eff_state_penalty>  (360) 
0

>  <ligand_id>  (360) 
108

>  <original_smiles>  (360) 
O=C(OC1C2CC3CC(C2)CC1C3)N1CC(O)C1

>  <smiles>  (360) 
[H]OC1([H])C([H])([H])N(C(=O)OC2([H])C3([H])C([H])([H])C4([H])C([H])([H])C([H])(C3([H])[H])C([H])([H])C2([H])C4([H])[H])C1([H])[H]

$$$$
108:0:2
     RDKit          3D

 39 42  0  0  1  0  0  0  0  0999 V2000
    8.8374   -5.1123    1.1225 O   0  0  0  0  0  0  0  0  0  0  0  0
    7.8559   -5.4217    1.8038 C   0  0  0  0  0  0  0  0  0  0  0  0
    6.6861   -4.7547    1.8089 O   0  0  0  0  0  0  0  0  0  0  0  0
    6.5657   -3.4874    1.1796 C   0  0  2  0  0  0  0  0  0  0  0  0
    5.4069   -2.6750    1.7922 C   0  0  1  0  0  0  0  0  0  0  0  0
    5.3954   -1.2738    1.1356 C   0  0  0  0  0  0  0  0  0  0  0  0
    5.1882   -1.4218   -0.3920 C   0  0  2  0  0  0  0  0  0  0  0  0
    3.8397   -2.1251   -0.6614 C   0  0  0  0  0  0  0  0  0  0  0  0
    3.8460   -3.5261   -0.0078 C   0  0  2  0  0  0  0  0  0  0  0  0
    4.0521   -3.3739    1.5167 C   0  0  0  0  0  0  0  0  0  0  0  0
    4.9914   -4.3701   -0.5943 C   0  0  0  0  0  0  0  0  0  0  0  0
    6.3314   -3.6587   -0.3327 C   0  0  1  0  0  0  0  0  0  0  0  0
    6.3306   -2.2717   -0.9900 C   0  0  0  0  0  0  0  0  0  0  0  0
    7.7868   -6.4485    2.7285 N   0  0  0  0  0  0  0  0  0  0  0  0
    8.9196   -7.0727    3.3891 C   0  0  0  0  0  0  0  0  0  0  0  0
    7.9514   -7.4500    4.5106 C   0  0  0  0  0  0  0  0  0  0  0  0
    8.3701   -7.1808    5.8307 O   0  0  0  0  0  0  0  0  0  0  0  0
    6.9191   -6.4972    3.9039 C   0  0  0  0  0  0  0  0  0  0  0  0
    7.4890   -2.9315    1.3311 H   0  0  0  0  0  0  0  0  0  0  0  0
    5.5573   -2.5756    2.8682 H   0  0  0  0  0  0  0  0  0  0  0  0
    4.5980   -0.6655    1.5634 H   0  0  0  0  0  0  0  0  0  0  0  0
    6.3329   -0.7529    1.3413 H   0  0  0  0  0  0  0  0  0  0  0  0
    5.1770   -0.4350   -0.8631 H   0  0  0  0  0  0  0  0  0  0  0  0
    3.0184   -1.5289   -0.2569 H   0  0  0  0  0  0  0  0  0  0  0  0
    3.6677   -2.2094   -1.7357 H   0  0  0  0  0  0  0  0  0  0  0  0
    2.8927   -4.0250   -0.2061 H   0  0  0  0  0  0  0  0  0  0  0  0
    4.0161   -4.3511    2.0008 H   0  0  0  0  0  0  0  0  0  0  0  0
    3.2375   -2.7864    1.9413 H   0  0  0  0  0  0  0  0  0  0  0  0
    4.9986   -5.3611   -0.1402 H   0  0  0  0  0  0  0  0  0  0  0  0
    4.8488   -4.5255   -1.6622 H   0  0  0  0  0  0  0  0  0  0  0  0
    7.1542   -4.2492   -0.7441 H   0  0  0  0  0  0  0  0  0  0  0  0
    6.2190   -2.3644   -2.0720 H   0  0  0  0  0  0  0  0  0  0  0  0
    7.2981   -1.8048   -0.8019 H   0  0  0  0  0  0  0  0  0  0  0  0
    9.3277   -7.9455    2.8771 H   0  0  0  0  0  0  0  0  0  0  0  0
    9.7005   -6.3695    3.6836 H   0  0  0  0  0  0  0  0  0  0  0  0
    7.6267   -8.4952    4.4386 H   0  0  0  0  0  0  0  0  0  0  0  0
    8.6755   -6.2850    5.8475 H   0  0  0  0  0  0  0  0  0  0  0  0
    6.8323   -5.5470    4.4321 H   0  0  0  0  0  0  0  0  0  0  0  0
    5.9436   -6.9583    3.7423 H   0  0  0  0  0  0  0  0  0  0  0  0
  1  2  2  0
  2  3  1  0
  2 14  1  0
  3  4  1  0
  4 12  1  0
  4  5  1  0
  4 19  1  6
  5 10  1  0
  5  6  1  0
  5 20  1  1
  6  7  1  0
  6 21  1  0
  6 22  1  0
  7 13  1  0
  7  8  1  0
  7 23  1  6
  8  9  1  0
  8 24  1  0
  8 25  1  0
  9 10  1  0
  9 11  1  0
  9 26  1  1
 10 27  1  0
 10 28  1  0
 11 12  1  0
 11 29  1  0
 11 30  1  0
 12 13  1  0
 12 31  1  6
 13 32  1  0
 13 33  1  0
 14 18  1  0
 14 15  1  0
 15 16  1  0
 15 34  1  0
 15 35  1  0
 16 17  1  0
 16 18  1  0
 16 36  1  0
 17 37  1  0
 18 38  1  0
 18 39  1  0
M  END
>  <i_m_ct_stereo_status>  (361) 
1

>  <s_m_source_file>  (361) 
/var/tmp/pbs.5076255.sched01/tmpyj7ipo08/120az4jmrmy.sdf

>  <i_m_source_file_index>  (361) 
28

>  <i_lp_mmshare_version>  (361) 
48012

>  <i_f3d_flags>  (361) 
0

>  <s_epik_input>  (361) 
W09IXVtDSF0oW0NIMl0xKVtDSDJdTjFDKD1PKU9bQ0BIXShbQ0BASF0yMylbQ0BIXTRbQ0gyXVtDQEBIXShbQ0gyXTMpW0NIMl1bQ0BASF0oW0NIMl0yKVtDSDJdNA==

>  <s_epik_cmdline>  (361) 
J2VwaWtfcHl0aG9uJywgJy1waHQnLCAnMi4wJywgJy1waCcsICc3LjAnLCAnLXRuJywgJzgnLCAnLW1hJywgJzIwMCcsICctaW1hZScsICc8aW5maWxlLm1hZT4nLCAnLW9tYWUnLCAnPG91dGZpbGUubWFlPic=

>  <r_lp_tautomer_probability>  (361) 
1

>  <r_epik_Ionization_Penalty>  (361) 
1.99479e-06

>  <r_epik_Ionization_Penalty_Charging>  (361) 
0

>  <r_epik_Ionization_Penalty_Neutral>  (361) 
1.99479e-06

>  <r_epik_State_Penalty>  (361) 
-0

>  <r_epik_Charging_Adjusted_Penalty>  (361) 
0

>  <i_epik_Tot_Q>  (361) 
0

>  <i_epik_Tot_abs_Q>  (361) 
0

>  <s_epik_Chemistry_Notes>  (361) 
This compound has an ester and may undergo hydrolysis at high or low pH.

>  <s_lp_Force_Field>  (361) 
OPLS3e

>  <r_lp_Energy>  (361) 
7.96246

>  <b_lp_Chiralities_Consistent>  (361) 
1

>  <s_lp_Variant>  (361) 
108:0-1

>  <s_i_glide_gridfile>  (361) 
pfpi4k_grid

>  <i_i_glide_lignum>  (361) 
28

>  <i_i_glide_rotatable_bonds>  (361) 
4

>  <r_i_docking_score>  (361) 
-2.48952

>  <r_i_glide_ligand_efficiency>  (361) 
-0.138307

>  <r_i_glide_ligand_efficiency_sa>  (361) 
-0.362466

>  <r_i_glide_ligand_efficiency_ln>  (361) 
-0.639918

>  <r_i_glide_gscore>  (361) 
-2.48952

>  <r_i_glide_lipo>  (361) 
-0.3991

>  <r_i_glide_hbond>  (361) 
0

>  <r_i_glide_metal>  (361) 
-0

>  <r_i_glide_rewards>  (361) 
-1.78638

>  <r_i_glide_evdw>  (361) 
-19.2976

>  <r_i_glide_ecoul>  (361) 
-1.09179

>  <r_i_glide_erotb>  (361) 
0.83244

>  <r_i_glide_esite>  (361) 
-0.00783317

>  <r_i_glide_emodel>  (361) 
-24.714

>  <r_i_glide_energy>  (361) 
-20.3894

>  <r_i_glide_einternal>  (361) 
0.573163

>  <r_i_glide_intrahb_reward>  (361) 
-0

>  <i_i_glide_confnum>  (361) 
6

>  <i_i_glide_posenum>  (361) 
1

>  <r_i_glide_eff_state_penalty>  (361) 
0

>  <ligand_id>  (361) 
108

>  <original_smiles>  (361) 
O=C(OC1C2CC3CC(C2)CC1C3)N1CC(O)C1

>  <smiles>  (361) 
[H]OC1([H])C([H])([H])N(C(=O)OC2([H])C3([H])C([H])([H])C4([H])C([H])([H])C([H])(C3([H])[H])C([H])([H])C2([H])C4([H])[H])C1([H])[H]

$$$$
109:0:0
     RDKit          3D

 29 31  0  0  1  0  0  0  0  0999 V2000
    2.9202   -4.0496    1.1994 N   0  0  0  0  0  0  0  0  0  0  0  0
    3.9500   -3.8274    0.1681 C   0  0  2  0  0  0  0  0  0  0  0  0
    5.3684   -4.1669    0.6622 C   0  0  2  0  0  0  0  0  0  0  0  0
    5.6539   -3.4901    2.0121 C   0  0  0  0  0  0  0  0  0  0  0  0
    5.7169   -2.0028    1.6307 C   0  0  0  0  0  0  0  0  0  0  0  0
    5.5311   -2.0277    0.1001 C   0  0  1  0  0  0  0  0  0  0  0  0
    6.2262   -3.3305   -0.2822 C   0  0  0  0  0  0  0  0  0  0  0  0
    4.0547   -2.3345   -0.2622 C   0  0  1  0  0  0  0  0  0  0  0  0
    3.7535   -2.1091   -1.7221 C   0  0  0  0  0  0  0  0  0  0  0  0
    3.0467   -2.9027   -2.5922 C   0  0  0  0  0  0  0  0  0  0  0  0
    3.0031   -2.3981   -3.9224 C   0  0  0  0  0  0  0  0  0  0  0  0
    3.6407   -1.1934   -4.0586 C   0  0  0  0  0  0  0  0  0  0  0  0
    4.2843   -0.6546   -2.5350 S   0  0  0  0  0  0  0  0  0  0  0  0
    3.1115   -3.4635    2.0002 H   0  0  0  0  0  0  0  0  0  0  0  0
    2.9353   -5.0190    1.4819 H   0  0  0  0  0  0  0  0  0  0  0  0
    3.7306   -4.5060   -0.6599 H   0  0  0  0  0  0  0  0  0  0  0  0
    5.5902   -5.2349    0.6457 H   0  0  0  0  0  0  0  0  0  0  0  0
    4.9230   -3.6985    2.7903 H   0  0  0  0  0  0  0  0  0  0  0  0
    6.6158   -3.8387    2.3849 H   0  0  0  0  0  0  0  0  0  0  0  0
    4.9553   -1.4042    2.1340 H   0  0  0  0  0  0  0  0  0  0  0  0
    6.6890   -1.5794    1.8888 H   0  0  0  0  0  0  0  0  0  0  0  0
    5.9423   -1.1267   -0.3589 H   0  0  0  0  0  0  0  0  0  0  0  0
    7.2899   -3.3421   -0.0359 H   0  0  0  0  0  0  0  0  0  0  0  0
    6.1048   -3.5914   -1.3359 H   0  0  0  0  0  0  0  0  0  0  0  0
    3.3921   -1.6909    0.3209 H   0  0  0  0  0  0  0  0  0  0  0  0
    2.5623   -3.8331   -2.3535 H   0  0  0  0  0  0  0  0  0  0  0  0
    2.4980   -2.9315   -4.7126 H   0  0  0  0  0  0  0  0  0  0  0  0
    3.7433   -0.5734   -4.9422 H   0  0  0  0  0  0  0  0  0  0  0  0
    2.0159   -3.8093    0.8242 H   0  0  0  0  0  0  0  0  0  0  0  0
  1  2  1  0
  1 14  1  0
  1 15  1  0
  1 29  1  0
  2  8  1  0
  2  3  1  0
  2 16  1  6
  3  7  1  0
  3  4  1  0
  3 17  1  1
  4  5  1  0
  4 18  1  0
  4 19  1  0
  5  6  1  0
  5 20  1  0
  5 21  1  0
  6  7  1  0
  6  8  1  0
  6 22  1  6
  7 23  1  0
  7 24  1  0
  8  9  1  0
  8 25  1  1
  9 13  1  0
  9 10  2  0
 10 11  1  0
 10 26  1  0
 11 12  2  0
 11 27  1  0
 12 13  1  0
 12 28  1  0
M  CHG  1   1   1
M  END
>  <i_m_ct_stereo_status>  (362) 
1

>  <s_m_source_file>  (362) 
/var/tmp/pbs.5076255.sched01/tmpyj7ipo08/120az4jmrmy.sdf

>  <i_m_source_file_index>  (362) 
29

>  <i_lp_mmshare_version>  (362) 
48012

>  <i_f3d_flags>  (362) 
0

>  <s_epik_input>  (362) 
W0NIMl0xW0NIMl1bQ0BASF0oW0NIMl0yKVtDQEhdKFtDQEhdKFtOSDJdKVtDQEhdMTIpYzNbY0hdW2NIXVtjSF1zMw==

>  <s_epik_cmdline>  (362) 
J2VwaWtfcHl0aG9uJywgJy1waHQnLCAnMi4wJywgJy1waCcsICc3LjAnLCAnLXRuJywgJzgnLCAnLW1hJywgJzIwMCcsICctaW1hZScsICc8aW5maWxlLm1hZT4nLCAnLW9tYWUnLCAnPG91dGZpbGUubWFlPic=

>  <r_epik_Ionization_Penalty>  (362) 
0.000632903

>  <r_epik_Ionization_Penalty_Charging>  (362) 
0.000632903

>  <r_epik_Ionization_Penalty_Neutral>  (362) 
0

>  <r_epik_State_Penalty>  (362) 
0.000400055

>  <r_epik_Charging_Adjusted_Penalty>  (362) 
0.00103296

>  <i_epik_Tot_Q>  (362) 
1

>  <i_epik_Tot_abs_Q>  (362) 
1

>  <s_lp_Force_Field>  (362) 
OPLS3e

>  <r_lp_Energy>  (362) 
39.1388

>  <b_lp_Chiralities_Consistent>  (362) 
1

>  <s_lp_Variant>  (362) 
109:0-1

>  <s_i_glide_gridfile>  (362) 
pfpi4k_grid

>  <i_i_glide_lignum>  (362) 
29

>  <i_i_glide_rotatable_bonds>  (362) 
1

>  <r_i_docking_score>  (362) 
-3.67546

>  <r_i_glide_ligand_efficiency>  (362) 
-0.282728

>  <r_i_glide_ligand_efficiency_sa>  (362) 
-0.664787

>  <r_i_glide_ligand_efficiency_ln>  (362) 
-1.031

>  <r_i_glide_gscore>  (362) 
-3.67546

>  <r_i_glide_lipo>  (362) 
-0.550506

>  <r_i_glide_hbond>  (362) 
0

>  <r_i_glide_metal>  (362) 
-0

>  <r_i_glide_rewards>  (362) 
-2.0842

>  <r_i_glide_evdw>  (362) 
-19.5593

>  <r_i_glide_ecoul>  (362) 
-3.21923

>  <r_i_glide_erotb>  (362) 
0.428389

>  <r_i_glide_esite>  (362) 
-0.00829324

>  <r_i_glide_emodel>  (362) 
-26.2684

>  <r_i_glide_energy>  (362) 
-22.7785

>  <r_i_glide_einternal>  (362) 
1.35636

>  <r_i_glide_intrahb_reward>  (362) 
-0

>  <i_i_glide_confnum>  (362) 
5

>  <i_i_glide_posenum>  (362) 
15

>  <r_i_glide_eff_state_penalty>  (362) 
0

>  <ligand_id>  (362) 
109

>  <original_smiles>  (362) 
NC1C2CCC(C2)C1c1cccs1

>  <smiles>  (362) 
[H]c1sc(C2([H])C3([H])C([H])([H])C([H])([H])C([H])(C3([H])[H])C2([H])[N+]([H])([H])[H])c([H])c1[H]

$$$$
109:0:1
     RDKit          3D

 29 31  0  0  1  0  0  0  0  0999 V2000
    3.0913   -4.3101   -0.3128 N   0  0  0  0  0  0  0  0  0  0  0  0
    4.1314   -3.5544   -1.0260 C   0  0  2  0  0  0  0  0  0  0  0  0
    5.5233   -3.6117   -0.3580 C   0  0  2  0  0  0  0  0  0  0  0  0
    5.4196   -3.2969    1.1439 C   0  0  0  0  0  0  0  0  0  0  0  0
    5.0506   -1.7995    1.1282 C   0  0  0  0  0  0  0  0  0  0  0  0
    5.0852   -1.4414   -0.3785 C   0  0  1  0  0  0  0  0  0  0  0  0
    6.2249   -2.3400   -0.8589 C   0  0  0  0  0  0  0  0  0  0  0  0
    3.8390   -2.0415   -1.0834 C   0  0  1  0  0  0  0  0  0  0  0  0
    3.6310   -1.5436   -2.4942 C   0  0  0  0  0  0  0  0  0  0  0  0
    2.7947   -0.5664   -2.9411 C   0  0  0  0  0  0  0  0  0  0  0  0
    2.8774   -0.2209   -4.3136 C   0  0  0  0  0  0  0  0  0  0  0  0
    3.8052   -0.9893   -4.9285 C   0  0  0  0  0  0  0  0  0  0  0  0
    4.4689   -2.2171   -3.8588 S   0  0  0  0  0  0  0  0  0  0  0  0
    2.9824   -3.9661    0.6239 H   0  0  0  0  0  0  0  0  0  0  0  0
    3.3828   -5.2769   -0.3041 H   0  0  0  0  0  0  0  0  0  0  0  0
    4.1612   -4.0507   -1.9933 H   0  0  0  0  0  0  0  0  0  0  0  0
    6.0492   -4.5341   -0.5975 H   0  0  0  0  0  0  0  0  0  0  0  0
    4.7052   -3.9142    1.6923 H   0  0  0  0  0  0  0  0  0  0  0  0
    6.3979   -3.4515    1.5991 H   0  0  0  0  0  0  0  0  0  0  0  0
    4.0849   -1.6017    1.6028 H   0  0  0  0  0  0  0  0  0  0  0  0
    5.8067   -1.2287    1.6694 H   0  0  0  0  0  0  0  0  0  0  0  0
    5.1963   -0.3637   -0.5405 H   0  0  0  0  0  0  0  0  0  0  0  0
    7.1579   -2.1399   -0.3148 H   0  0  0  0  0  0  0  0  0  0  0  0
    6.4097   -2.3275   -1.9366 H   0  0  0  0  0  0  0  0  0  0  0  0
    2.9508   -1.7606   -0.5148 H   0  0  0  0  0  0  0  0  0  0  0  0
    2.0737   -0.0417   -2.3263 H   0  0  0  0  0  0  0  0  0  0  0  0
    2.2573    0.5478   -4.7712 H   0  0  0  0  0  0  0  0  0  0  0  0
    4.0410   -0.9147   -5.9785 H   0  0  0  0  0  0  0  0  0  0  0  0
    2.2167   -4.2428   -0.8277 H   0  0  0  0  0  0  0  0  0  0  0  0
  1  2  1  0
  1 14  1  0
  1 15  1  0
  1 29  1  0
  2  8  1  0
  2  3  1  0
  2 16  1  6
  3  7  1  0
  3  4  1  0
  3 17  1  1
  4  5  1  0
  4 18  1  0
  4 19  1  0
  5  6  1  0
  5 20  1  0
  5 21  1  0
  6  7  1  0
  6  8  1  0
  6 22  1  1
  7 23  1  0
  7 24  1  0
  8  9  1  0
  8 25  1  1
  9 13  1  0
  9 10  2  0
 10 11  1  0
 10 26  1  0
 11 12  2  0
 11 27  1  0
 12 13  1  0
 12 28  1  0
M  CHG  1   1   1
M  END
>  <i_m_ct_stereo_status>  (363) 
1

>  <s_m_source_file>  (363) 
/var/tmp/pbs.5076255.sched01/tmpyj7ipo08/120az4jmrmy.sdf

>  <i_m_source_file_index>  (363) 
29

>  <i_lp_mmshare_version>  (363) 
48012

>  <i_f3d_flags>  (363) 
0

>  <s_epik_input>  (363) 
W0NIMl0xW0NIMl1bQ0BASF0oW0NIMl0yKVtDQEhdKFtDQEhdKFtOSDJdKVtDQEhdMTIpYzNbY0hdW2NIXVtjSF1zMw==

>  <s_epik_cmdline>  (363) 
J2VwaWtfcHl0aG9uJywgJy1waHQnLCAnMi4wJywgJy1waCcsICc3LjAnLCAnLXRuJywgJzgnLCAnLW1hJywgJzIwMCcsICctaW1hZScsICc8aW5maWxlLm1hZT4nLCAnLW9tYWUnLCAnPG91dGZpbGUubWFlPic=

>  <r_epik_Ionization_Penalty>  (363) 
0.000632903

>  <r_epik_Ionization_Penalty_Charging>  (363) 
0.000632903

>  <r_epik_Ionization_Penalty_Neutral>  (363) 
0

>  <r_epik_State_Penalty>  (363) 
0.000400055

>  <r_epik_Charging_Adjusted_Penalty>  (363) 
0.00103296

>  <i_epik_Tot_Q>  (363) 
1

>  <i_epik_Tot_abs_Q>  (363) 
1

>  <s_lp_Force_Field>  (363) 
OPLS3e

>  <r_lp_Energy>  (363) 
39.1388

>  <b_lp_Chiralities_Consistent>  (363) 
1

>  <s_lp_Variant>  (363) 
109:0-1

>  <s_i_glide_gridfile>  (363) 
pfpi4k_grid

>  <i_i_glide_lignum>  (363) 
29

>  <i_i_glide_rotatable_bonds>  (363) 
1

>  <r_i_docking_score>  (363) 
-2.7616

>  <r_i_glide_ligand_efficiency>  (363) 
-0.212431

>  <r_i_glide_ligand_efficiency_sa>  (363) 
-0.499496

>  <r_i_glide_ligand_efficiency_ln>  (363) 
-0.774654

>  <r_i_glide_gscore>  (363) 
-2.7616

>  <r_i_glide_lipo>  (363) 
-0.389745

>  <r_i_glide_hbond>  (363) 
0

>  <r_i_glide_metal>  (363) 
-0

>  <r_i_glide_rewards>  (363) 
-2.0842

>  <r_i_glide_evdw>  (363) 
-4.62973

>  <r_i_glide_ecoul>  (363) 
-2.98368

>  <r_i_glide_erotb>  (363) 
0.428389

>  <r_i_glide_esite>  (363) 
-0.0370098

>  <r_i_glide_emodel>  (363) 
-9.02188

>  <r_i_glide_energy>  (363) 
-7.61341

>  <r_i_glide_einternal>  (363) 
1.68459

>  <r_i_glide_intrahb_reward>  (363) 
-0

>  <i_i_glide_confnum>  (363) 
5

>  <i_i_glide_posenum>  (363) 
12

>  <r_i_glide_eff_state_penalty>  (363) 
0

>  <ligand_id>  (363) 
109

>  <original_smiles>  (363) 
NC1C2CCC(C2)C1c1cccs1

>  <smiles>  (363) 
[H]c1sc(C2([H])C3([H])C([H])([H])C([H])([H])C([H])(C3([H])[H])C2([H])[N+]([H])([H])[H])c([H])c1[H]

$$$$
111:0:0
     RDKit          3D

 38 41  0  0  1  0  0  0  0  0999 V2000
   -0.0907   -7.0912    1.5258 C   0  0  0  0  0  0  0  0  0  0  0  0
   -0.8151   -7.5316    2.5999 C   0  0  0  0  0  0  0  0  0  0  0  0
   -0.1697   -6.9391    4.1026 S   0  0  0  0  0  0  0  0  0  0  0  0
    1.0269   -6.0069    3.1968 C   0  0  0  0  0  0  0  0  0  0  0  0
    2.0859   -5.1478    3.8435 C   0  0  0  0  0  0  0  0  0  0  0  0
    1.6699   -3.8324    4.3583 N   0  0  0  0  0  0  0  0  0  0  0  0
    0.6843   -3.9727    5.4322 C   0  0  0  0  0  0  0  0  0  0  0  0
    0.4427   -2.7002    6.2618 C   0  0  0  0  0  0  0  0  0  0  0  0
   -0.2938   -1.5980    5.5627 C   0  0  0  0  0  0  0  0  0  0  0  0
   -1.4070   -1.0470    6.0486 N   0  0  0  0  0  0  0  0  0  0  0  0
   -1.7869   -0.0971    5.1333 N   0  0  0  0  0  0  0  0  0  0  0  0
   -0.8565   -0.1306    4.1717 C   0  0  0  0  0  0  0  0  0  0  0  0
   -0.9178    0.7653    2.9527 C   0  0  0  0  0  0  0  0  0  0  0  0
   -1.0469    2.1655    3.3016 N   0  0  0  0  0  0  0  0  0  0  0  0
   -2.1081    2.9828    3.2896 C   0  0  0  0  0  0  0  0  0  0  0  0
   -1.8344    4.2219    3.6814 N   0  0  0  0  0  0  0  0  0  0  0  0
   -0.4886    4.0918    3.9023 C   0  0  0  0  0  0  0  0  0  0  0  0
    0.0259    2.8762    3.7226 N   0  0  0  0  0  0  0  0  0  0  0  0
    0.0983   -1.0693    4.3928 N   0  0  0  0  0  0  0  0  0  0  0  0
    1.2706   -1.4504    3.6324 C   0  0  0  0  0  0  0  0  0  0  0  0
    1.2491   -2.9460    3.2733 C   0  0  0  0  0  0  0  0  0  0  0  0
    0.9428   -6.2142    1.8747 N   0  0  0  0  0  0  0  0  0  0  0  0
   -0.2499   -7.3470    0.4854 H   0  0  0  0  0  0  0  0  0  0  0  0
   -1.6580   -8.2056    2.6096 H   0  0  0  0  0  0  0  0  0  0  0  0
    2.5466   -5.7149    4.6541 H   0  0  0  0  0  0  0  0  0  0  0  0
    2.8848   -5.0020    3.1155 H   0  0  0  0  0  0  0  0  0  0  0  0
   -0.2634   -4.3415    5.0501 H   0  0  0  0  0  0  0  0  0  0  0  0
    1.0679   -4.7379    6.1078 H   0  0  0  0  0  0  0  0  0  0  0  0
   -0.1578   -2.9966    7.1242 H   0  0  0  0  0  0  0  0  0  0  0  0
    1.3804   -2.3142    6.6589 H   0  0  0  0  0  0  0  0  0  0  0  0
   -0.0441    0.6655    2.3093 H   0  0  0  0  0  0  0  0  0  0  0  0
   -1.7789    0.4906    2.3416 H   0  0  0  0  0  0  0  0  0  0  0  0
   -3.0938    2.6606    2.9785 H   0  0  0  0  0  0  0  0  0  0  0  0
    0.1239    4.9143    4.2416 H   0  0  0  0  0  0  0  0  0  0  0  0
    1.3229   -0.8760    2.7097 H   0  0  0  0  0  0  0  0  0  0  0  0
    2.1600   -1.1897    4.2068 H   0  0  0  0  0  0  0  0  0  0  0  0
    1.9537   -3.0688    2.4532 H   0  0  0  0  0  0  0  0  0  0  0  0
    0.2722   -3.2446    2.9030 H   0  0  0  0  0  0  0  0  0  0  0  0
  1 22  1  0
  1  2  2  0
  1 23  1  0
  2  3  1  0
  2 24  1  0
  3  4  1  0
  4  5  1  0
  4 22  2  0
  5  6  1  0
  5 25  1  0
  5 26  1  0
  6 21  1  0
  6  7  1  0
  7  8  1  0
  7 27  1  0
  7 28  1  0
  8  9  1  0
  8 29  1  0
  8 30  1  0
  9 19  1  0
  9 10  2  0
 10 11  1  0
 11 12  2  0
 12 13  1  0
 12 19  1  0
 13 14  1  0
 13 31  1  0
 13 32  1  0
 14 18  1  0
 14 15  1  0
 15 16  2  0
 15 33  1  0
 16 17  1  0
 17 18  2  0
 17 34  1  0
 19 20  1  0
 20 21  1  0
 20 35  1  0
 20 36  1  0
 21 37  1  0
 21 38  1  0
M  END
>  <i_m_ct_stereo_status>  (364) 
1

>  <s_m_source_file>  (364) 
/var/tmp/pbs.5076255.sched01/tmpyj7ipo08/120az4jmrmy.sdf

>  <i_m_source_file_index>  (364) 
31

>  <i_lp_mmshare_version>  (364) 
48012

>  <i_f3d_flags>  (364) 
0

>  <s_epik_input>  (364) 
bjFbY0hdW2NIXXNjMVtDSDJdTihbQ0gyXVtDSDJdMilbQ0gyXVtDSDJdbihjMjMpYyhubjMpW0NIMl1uNFtjSF1uW2NIXW40

>  <s_epik_cmdline>  (364) 
J2VwaWtfcHl0aG9uJywgJy1waHQnLCAnMi4wJywgJy1waCcsICc3LjAnLCAnLXRuJywgJzgnLCAnLW1hJywgJzIwMCcsICctaW1hZScsICc8aW5maWxlLm1hZT4nLCAnLW9tYWUnLCAnPG91dGZpbGUubWFlPic=

>  <r_lp_tautomer_probability>  (364) 
1

>  <r_epik_Ionization_Penalty>  (364) 
0.00939578

>  <r_epik_Ionization_Penalty_Charging>  (364) 
0

>  <r_epik_Ionization_Penalty_Neutral>  (364) 
0.00939578

>  <r_epik_State_Penalty>  (364) 
0.00686284

>  <r_epik_Charging_Adjusted_Penalty>  (364) 
0.00686284

>  <i_epik_Tot_Q>  (364) 
0

>  <i_epik_Tot_abs_Q>  (364) 
0

>  <s_lp_Force_Field>  (364) 
OPLS3e

>  <r_lp_Energy>  (364) 
8.55223

>  <b_lp_Chiralities_Consistent>  (364) 
1

>  <s_lp_Variant>  (364) 
111:0-1

>  <s_i_glide_gridfile>  (364) 
pfpi4k_grid

>  <i_i_glide_lignum>  (364) 
31

>  <i_i_glide_rotatable_bonds>  (364) 
4

>  <r_i_docking_score>  (364) 
-3.82723

>  <r_i_glide_ligand_efficiency>  (364) 
-0.173965

>  <r_i_glide_ligand_efficiency_sa>  (364) 
-0.487456

>  <r_i_glide_ligand_efficiency_ln>  (364) 
-0.935514

>  <r_i_glide_gscore>  (364) 
-3.82723

>  <r_i_glide_lipo>  (364) 
-0.0481305

>  <r_i_glide_hbond>  (364) 
-0.180062

>  <r_i_glide_metal>  (364) 
-0

>  <r_i_glide_rewards>  (364) 
-1.25192

>  <r_i_glide_evdw>  (364) 
-25.1475

>  <r_i_glide_ecoul>  (364) 
-9.70052

>  <r_i_glide_erotb>  (364) 
0.743898

>  <r_i_glide_esite>  (364) 
-0.378564

>  <r_i_glide_emodel>  (364) 
-43.2066

>  <r_i_glide_energy>  (364) 
-34.848

>  <r_i_glide_einternal>  (364) 
2.23208

>  <r_i_glide_intrahb_reward>  (364) 
-0

>  <i_i_glide_confnum>  (364) 
3

>  <i_i_glide_posenum>  (364) 
2

>  <r_i_glide_eff_state_penalty>  (364) 
0

>  <ligand_id>  (364) 
111

>  <original_smiles>  (364) 
c1csc(CN2CCc3nnc(Cn4cncn4)n3CC2)n1

>  <smiles>  (364) 
[H]c1nc([H])n(C([H])([H])c2nnc3n2C([H])([H])C([H])([H])N(C([H])([H])c2nc([H])c([H])s2)C([H])([H])C3([H])[H])n1

$$$$
111:0:1
     RDKit          3D

 38 41  0  0  1  0  0  0  0  0999 V2000
    5.7281   -2.7972   -2.1589 C   0  0  0  0  0  0  0  0  0  0  0  0
    4.6311   -3.4725   -1.7255 C   0  0  0  0  0  0  0  0  0  0  0  0
    4.1314   -2.9680   -0.1469 S   0  0  0  0  0  0  0  0  0  0  0  0
    5.4854   -1.8079   -0.1011 C   0  0  0  0  0  0  0  0  0  0  0  0
    5.8265   -0.8685    1.0472 C   0  0  0  0  0  0  0  0  0  0  0  0
    4.7742   -0.4588    1.9846 N   0  0  0  0  0  0  0  0  0  0  0  0
    4.3704   -1.5771    2.8447 C   0  0  0  0  0  0  0  0  0  0  0  0
    3.4932   -1.1991    4.0467 C   0  0  0  0  0  0  0  0  0  0  0  0
    2.0983   -0.7585    3.7170 C   0  0  0  0  0  0  0  0  0  0  0  0
    1.0072   -1.3287    4.2598 N   0  0  0  0  0  0  0  0  0  0  0  0
   -0.0480   -0.6272    3.7443 N   0  0  0  0  0  0  0  0  0  0  0  0
    0.4912    0.2897    2.9137 C   0  0  0  0  0  0  0  0  0  0  0  0
   -0.3572    1.2441    2.1262 C   0  0  0  0  0  0  0  0  0  0  0  0
   -0.8960    2.3155    2.9498 N   0  0  0  0  0  0  0  0  0  0  0  0
   -2.0629    2.9556    2.9004 C   0  0  0  0  0  0  0  0  0  0  0  0
   -2.1834    3.9526    3.7722 N   0  0  0  0  0  0  0  0  0  0  0  0
   -0.9649    3.8527    4.3890 C   0  0  0  0  0  0  0  0  0  0  0  0
   -0.1522    2.9061    3.9234 N   0  0  0  0  0  0  0  0  0  0  0  0
    1.8347    0.2540    2.8814 N   0  0  0  0  0  0  0  0  0  0  0  0
    2.7994    1.0683    2.1617 C   0  0  0  0  0  0  0  0  0  0  0  0
    3.6876    0.2061    1.2574 C   0  0  0  0  0  0  0  0  0  0  0  0
    6.2115   -1.8553   -1.2278 N   0  0  0  0  0  0  0  0  0  0  0  0
    6.2333   -2.9237   -3.1167 H   0  0  0  0  0  0  0  0  0  0  0  0
    4.0633   -4.2524   -2.2102 H   0  0  0  0  0  0  0  0  0  0  0  0
    6.6589   -1.2972    1.6068 H   0  0  0  0  0  0  0  0  0  0  0  0
    6.2437    0.0292    0.5912 H   0  0  0  0  0  0  0  0  0  0  0  0
    3.8106   -2.3400    2.3236 H   0  0  0  0  0  0  0  0  0  0  0  0
    5.2886   -2.0524    3.2041 H   0  0  0  0  0  0  0  0  0  0  0  0
    3.4089   -2.1061    4.6537 H   0  0  0  0  0  0  0  0  0  0  0  0
    3.9801   -0.4337    4.6544 H   0  0  0  0  0  0  0  0  0  0  0  0
    0.1659    1.6888    1.2785 H   0  0  0  0  0  0  0  0  0  0  0  0
   -1.1893    0.6884    1.7014 H   0  0  0  0  0  0  0  0  0  0  0  0
   -2.8511    2.7117    2.2006 H   0  0  0  0  0  0  0  0  0  0  0  0
   -0.6743    4.4968    5.2138 H   0  0  0  0  0  0  0  0  0  0  0  0
    2.2752    1.8037    1.5631 H   0  0  0  0  0  0  0  0  0  0  0  0
    3.3819    1.6327    2.8851 H   0  0  0  0  0  0  0  0  0  0  0  0
    4.1658    0.8959    0.5718 H   0  0  0  0  0  0  0  0  0  0  0  0
    3.1062   -0.4799    0.6444 H   0  0  0  0  0  0  0  0  0  0  0  0
  1 22  1  0
  1  2  2  0
  1 23  1  0
  2  3  1  0
  2 24  1  0
  3  4  1  0
  4  5  1  0
  4 22  2  0
  5  6  1  0
  5 25  1  0
  5 26  1  0
  6 21  1  0
  6  7  1  0
  7  8  1  0
  7 27  1  0
  7 28  1  0
  8  9  1  0
  8 29  1  0
  8 30  1  0
  9 19  1  0
  9 10  2  0
 10 11  1  0
 11 12  2  0
 12 13  1  0
 12 19  1  0
 13 14  1  0
 13 31  1  0
 13 32  1  0
 14 18  1  0
 14 15  1  0
 15 16  2  0
 15 33  1  0
 16 17  1  0
 17 18  2  0
 17 34  1  0
 19 20  1  0
 20 21  1  0
 20 35  1  0
 20 36  1  0
 21 37  1  0
 21 38  1  0
M  END
>  <i_m_ct_stereo_status>  (365) 
1

>  <s_m_source_file>  (365) 
/var/tmp/pbs.5076255.sched01/tmpyj7ipo08/120az4jmrmy.sdf

>  <i_m_source_file_index>  (365) 
31

>  <i_lp_mmshare_version>  (365) 
48012

>  <i_f3d_flags>  (365) 
0

>  <s_epik_input>  (365) 
bjFbY0hdW2NIXXNjMVtDSDJdTihbQ0gyXVtDSDJdMilbQ0gyXVtDSDJdbihjMjMpYyhubjMpW0NIMl1uNFtjSF1uW2NIXW40

>  <s_epik_cmdline>  (365) 
J2VwaWtfcHl0aG9uJywgJy1waHQnLCAnMi4wJywgJy1waCcsICc3LjAnLCAnLXRuJywgJzgnLCAnLW1hJywgJzIwMCcsICctaW1hZScsICc8aW5maWxlLm1hZT4nLCAnLW9tYWUnLCAnPG91dGZpbGUubWFlPic=

>  <r_lp_tautomer_probability>  (365) 
1

>  <r_epik_Ionization_Penalty>  (365) 
0.00939578

>  <r_epik_Ionization_Penalty_Charging>  (365) 
0

>  <r_epik_Ionization_Penalty_Neutral>  (365) 
0.00939578

>  <r_epik_State_Penalty>  (365) 
0.00686284

>  <r_epik_Charging_Adjusted_Penalty>  (365) 
0.00686284

>  <i_epik_Tot_Q>  (365) 
0

>  <i_epik_Tot_abs_Q>  (365) 
0

>  <s_lp_Force_Field>  (365) 
OPLS3e

>  <r_lp_Energy>  (365) 
8.55223

>  <b_lp_Chiralities_Consistent>  (365) 
1

>  <s_lp_Variant>  (365) 
111:0-1

>  <s_i_glide_gridfile>  (365) 
pfpi4k_grid

>  <i_i_glide_lignum>  (365) 
31

>  <i_i_glide_rotatable_bonds>  (365) 
4

>  <r_i_docking_score>  (365) 
-3.44672

>  <r_i_glide_ligand_efficiency>  (365) 
-0.156669

>  <r_i_glide_ligand_efficiency_sa>  (365) 
-0.438993

>  <r_i_glide_ligand_efficiency_ln>  (365) 
-0.842504

>  <r_i_glide_gscore>  (365) 
-3.44672

>  <r_i_glide_lipo>  (365) 
-0.271138

>  <r_i_glide_hbond>  (365) 
-0.163632

>  <r_i_glide_metal>  (365) 
-0

>  <r_i_glide_rewards>  (365) 
-1.25192

>  <r_i_glide_evdw>  (365) 
-28.1094

>  <r_i_glide_ecoul>  (365) 
-5.75107

>  <r_i_glide_erotb>  (365) 
0.743898

>  <r_i_glide_esite>  (365) 
-0.2358

>  <r_i_glide_emodel>  (365) 
-40.8413

>  <r_i_glide_energy>  (365) 
-33.8605

>  <r_i_glide_einternal>  (365) 
2.57771

>  <r_i_glide_intrahb_reward>  (365) 
-0

>  <i_i_glide_confnum>  (365) 
3

>  <i_i_glide_posenum>  (365) 
12

>  <r_i_glide_eff_state_penalty>  (365) 
0

>  <ligand_id>  (365) 
111

>  <original_smiles>  (365) 
c1csc(CN2CCc3nnc(Cn4cncn4)n3CC2)n1

>  <smiles>  (365) 
[H]c1nc([H])n(C([H])([H])c2nnc3n2C([H])([H])C([H])([H])N(C([H])([H])c2nc([H])c([H])s2)C([H])([H])C3([H])[H])n1

$$$$
111:0:2
     RDKit          3D

 38 41  0  0  1  0  0  0  0  0999 V2000
    3.3841   -0.7552   -3.7781 C   0  0  0  0  0  0  0  0  0  0  0  0
    3.1259   -2.0861   -3.9416 C   0  0  0  0  0  0  0  0  0  0  0  0
    3.9596   -3.0550   -2.7933 S   0  0  0  0  0  0  0  0  0  0  0  0
    4.6201   -1.6082   -2.0484 C   0  0  0  0  0  0  0  0  0  0  0  0
    5.5394   -1.5705   -0.8481 C   0  0  0  0  0  0  0  0  0  0  0  0
    5.4667   -2.6590    0.1382 N   0  0  0  0  0  0  0  0  0  0  0  0
    6.0401   -3.9026   -0.3921 C   0  0  0  0  0  0  0  0  0  0  0  0
    6.2995   -4.9993    0.6466 C   0  0  0  0  0  0  0  0  0  0  0  0
    5.0767   -5.6481    1.2208 C   0  0  0  0  0  0  0  0  0  0  0  0
    4.8784   -6.9624    1.1949 N   0  0  0  0  0  0  0  0  0  0  0  0
    3.6788   -7.1575    1.8317 N   0  0  0  0  0  0  0  0  0  0  0  0
    3.2378   -5.9448    2.1724 C   0  0  0  0  0  0  0  0  0  0  0  0
    1.9323   -5.7002    2.8891 C   0  0  0  0  0  0  0  0  0  0  0  0
    0.9705   -6.7928    2.7383 N   0  0  0  0  0  0  0  0  0  0  0  0
    0.9866   -8.0379    3.2370 C   0  0  0  0  0  0  0  0  0  0  0  0
   -0.0668   -8.7686    2.9066 N   0  0  0  0  0  0  0  0  0  0  0  0
   -0.7418   -7.8634    2.1394 C   0  0  0  0  0  0  0  0  0  0  0  0
   -0.1794   -6.6603    2.0228 N   0  0  0  0  0  0  0  0  0  0  0  0
    4.0909   -4.9483    1.8242 N   0  0  0  0  0  0  0  0  0  0  0  0
    4.0311   -3.5164    2.0163 C   0  0  0  0  0  0  0  0  0  0  0  0
    4.1091   -2.7605    0.6806 C   0  0  0  0  0  0  0  0  0  0  0  0
    4.2514   -0.5057   -2.7094 N   0  0  0  0  0  0  0  0  0  0  0  0
    2.9884    0.0660   -4.3689 H   0  0  0  0  0  0  0  0  0  0  0  0
    2.5017   -2.5754   -4.6709 H   0  0  0  0  0  0  0  0  0  0  0  0
    6.5635   -1.5067   -1.2135 H   0  0  0  0  0  0  0  0  0  0  0  0
    5.3691   -0.6217   -0.3366 H   0  0  0  0  0  0  0  0  0  0  0  0
    5.4284   -4.3541   -1.1603 H   0  0  0  0  0  0  0  0  0  0  0  0
    6.9902   -3.6449   -0.8660 H   0  0  0  0  0  0  0  0  0  0  0  0
    6.8543   -5.7893    0.1303 H   0  0  0  0  0  0  0  0  0  0  0  0
    6.9282   -4.6315    1.4565 H   0  0  0  0  0  0  0  0  0  0  0  0
    2.1348   -5.5732    3.9528 H   0  0  0  0  0  0  0  0  0  0  0  0
    1.4685   -4.7801    2.5324 H   0  0  0  0  0  0  0  0  0  0  0  0
    1.7827   -8.4196    3.8605 H   0  0  0  0  0  0  0  0  0  0  0  0
   -1.6901   -8.1077    1.6849 H   0  0  0  0  0  0  0  0  0  0  0  0
    3.1040   -3.2573    2.5223 H   0  0  0  0  0  0  0  0  0  0  0  0
    4.8391   -3.2157    2.6818 H   0  0  0  0  0  0  0  0  0  0  0  0
    3.7774   -1.7474    0.8788 H   0  0  0  0  0  0  0  0  0  0  0  0
    3.4108   -3.1651   -0.0521 H   0  0  0  0  0  0  0  0  0  0  0  0
  1 22  1  0
  1  2  2  0
  1 23  1  0
  2  3  1  0
  2 24  1  0
  3  4  1  0
  4  5  1  0
  4 22  2  0
  5  6  1  0
  5 25  1  0
  5 26  1  0
  6 21  1  0
  6  7  1  0
  7  8  1  0
  7 27  1  0
  7 28  1  0
  8  9  1  0
  8 29  1  0
  8 30  1  0
  9 19  1  0
  9 10  2  0
 10 11  1  0
 11 12  2  0
 12 13  1  0
 12 19  1  0
 13 14  1  0
 13 31  1  0
 13 32  1  0
 14 18  1  0
 14 15  1  0
 15 16  2  0
 15 33  1  0
 16 17  1  0
 17 18  2  0
 17 34  1  0
 19 20  1  0
 20 21  1  0
 20 35  1  0
 20 36  1  0
 21 37  1  0
 21 38  1  0
M  END
>  <i_m_ct_stereo_status>  (366) 
1

>  <s_m_source_file>  (366) 
/var/tmp/pbs.5076255.sched01/tmpyj7ipo08/120az4jmrmy.sdf

>  <i_m_source_file_index>  (366) 
31

>  <i_lp_mmshare_version>  (366) 
48012

>  <i_f3d_flags>  (366) 
0

>  <s_epik_input>  (366) 
bjFbY0hdW2NIXXNjMVtDSDJdTihbQ0gyXVtDSDJdMilbQ0gyXVtDSDJdbihjMjMpYyhubjMpW0NIMl1uNFtjSF1uW2NIXW40

>  <s_epik_cmdline>  (366) 
J2VwaWtfcHl0aG9uJywgJy1waHQnLCAnMi4wJywgJy1waCcsICc3LjAnLCAnLXRuJywgJzgnLCAnLW1hJywgJzIwMCcsICctaW1hZScsICc8aW5maWxlLm1hZT4nLCAnLW9tYWUnLCAnPG91dGZpbGUubWFlPic=

>  <r_lp_tautomer_probability>  (366) 
1

>  <r_epik_Ionization_Penalty>  (366) 
0.00939578

>  <r_epik_Ionization_Penalty_Charging>  (366) 
0

>  <r_epik_Ionization_Penalty_Neutral>  (366) 
0.00939578

>  <r_epik_State_Penalty>  (366) 
0.00686284

>  <r_epik_Charging_Adjusted_Penalty>  (366) 
0.00686284

>  <i_epik_Tot_Q>  (366) 
0

>  <i_epik_Tot_abs_Q>  (366) 
0

>  <s_lp_Force_Field>  (366) 
OPLS3e

>  <r_lp_Energy>  (366) 
8.55223

>  <b_lp_Chiralities_Consistent>  (366) 
1

>  <s_lp_Variant>  (366) 
111:0-1

>  <s_i_glide_gridfile>  (366) 
pfpi4k_grid

>  <i_i_glide_lignum>  (366) 
31

>  <i_i_glide_rotatable_bonds>  (366) 
4

>  <r_i_docking_score>  (366) 
-3.40527

>  <r_i_glide_ligand_efficiency>  (366) 
-0.154785

>  <r_i_glide_ligand_efficiency_sa>  (366) 
-0.433714

>  <r_i_glide_ligand_efficiency_ln>  (366) 
-0.832372

>  <r_i_glide_gscore>  (366) 
-3.40527

>  <r_i_glide_lipo>  (366) 
-0.495297

>  <r_i_glide_hbond>  (366) 
-0.177153

>  <r_i_glide_metal>  (366) 
-0

>  <r_i_glide_rewards>  (366) 
-1.36813

>  <r_i_glide_evdw>  (366) 
-30.5295

>  <r_i_glide_ecoul>  (366) 
-2.9792

>  <r_i_glide_erotb>  (366) 
0.743898

>  <r_i_glide_esite>  (366) 
-0.135232

>  <r_i_glide_emodel>  (366) 
-40.6734

>  <r_i_glide_energy>  (366) 
-33.5087

>  <r_i_glide_einternal>  (366) 
2.12014

>  <r_i_glide_intrahb_reward>  (366) 
-0

>  <i_i_glide_confnum>  (366) 
3

>  <i_i_glide_posenum>  (366) 
17

>  <r_i_glide_eff_state_penalty>  (366) 
0

>  <ligand_id>  (366) 
111

>  <original_smiles>  (366) 
c1csc(CN2CCc3nnc(Cn4cncn4)n3CC2)n1

>  <smiles>  (366) 
[H]c1nc([H])n(C([H])([H])c2nnc3n2C([H])([H])C([H])([H])N(C([H])([H])c2nc([H])c([H])s2)C([H])([H])C3([H])[H])n1

$$$$
111:1:0
     RDKit          3D

 39 42  0  0  1  0  0  0  0  0999 V2000
    3.4108   -1.1285   -4.2712 C   0  0  0  0  0  0  0  0  0  0  0  0
    3.7358   -0.2630   -3.2687 C   0  0  0  0  0  0  0  0  0  0  0  0
    4.6298   -1.0286   -2.0104 S   0  0  0  0  0  0  0  0  0  0  0  0
    4.6205   -2.5323   -2.9508 C   0  0  0  0  0  0  0  0  0  0  0  0
    5.3234   -3.8099   -2.5355 C   0  0  0  0  0  0  0  0  0  0  0  0
    5.0185   -4.1009   -1.1056 N   0  0  1  0  0  0  0  0  0  0  0  0
    5.9501   -3.4351   -0.1425 C   0  0  0  0  0  0  0  0  0  0  0  0
    5.3885   -3.3124    1.2932 C   0  0  0  0  0  0  0  0  0  0  0  0
    4.9822   -4.6080    1.9099 C   0  0  0  0  0  0  0  0  0  0  0  0
    5.5661   -5.1200    2.9904 N   0  0  0  0  0  0  0  0  0  0  0  0
    4.8870   -6.2909    3.2377 N   0  0  0  0  0  0  0  0  0  0  0  0
    3.9647   -6.3980    2.2729 C   0  0  0  0  0  0  0  0  0  0  0  0
    3.0358   -7.5859    2.1740 C   0  0  0  0  0  0  0  0  0  0  0  0
    1.6203   -7.2592    2.1116 N   0  0  0  0  0  0  0  0  0  0  0  0
    0.7222   -7.0503    3.0841 C   0  0  0  0  0  0  0  0  0  0  0  0
   -0.4659   -6.6916    2.6155 N   0  0  0  0  0  0  0  0  0  0  0  0
   -0.2217   -6.7629    1.2768 C   0  0  0  0  0  0  0  0  0  0  0  0
    1.0077   -7.1079    0.9186 N   0  0  0  0  0  0  0  0  0  0  0  0
    3.9953   -5.3686    1.3944 N   0  0  0  0  0  0  0  0  0  0  0  0
    3.1568   -5.1273    0.2281 C   0  0  0  0  0  0  0  0  0  0  0  0
    3.5755   -4.0270   -0.7546 C   0  0  0  0  0  0  0  0  0  0  0  0
    3.9099   -2.4168   -4.0838 N   0  0  0  0  0  0  0  0  0  0  0  0
    2.8015   -0.9130   -5.1259 H   0  0  0  0  0  0  0  0  0  0  0  0
    3.4294    0.7565   -3.1978 H   0  0  0  0  0  0  0  0  0  0  0  0
    4.9484   -4.6150   -3.1583 H   0  0  0  0  0  0  0  0  0  0  0  0
    6.3941   -3.7336   -2.7227 H   0  0  0  0  0  0  0  0  0  0  0  0
    6.9074   -3.9670   -0.1464 H   0  0  0  0  0  0  0  0  0  0  0  0
    6.2032   -2.4126   -0.4283 H   0  0  0  0  0  0  0  0  0  0  0  0
    6.1856   -2.8965    1.9165 H   0  0  0  0  0  0  0  0  0  0  0  0
    4.5463   -2.6069    1.3628 H   0  0  0  0  0  0  0  0  0  0  0  0
    3.3106   -8.1856    1.3032 H   0  0  0  0  0  0  0  0  0  0  0  0
    3.2067   -8.2016    3.0553 H   0  0  0  0  0  0  0  0  0  0  0  0
    0.9431   -7.1608    4.1363 H   0  0  0  0  0  0  0  0  0  0  0  0
   -0.9367   -6.4235    0.5498 H   0  0  0  0  0  0  0  0  0  0  0  0
    3.0761   -6.0714   -0.3151 H   0  0  0  0  0  0  0  0  0  0  0  0
    2.1757   -4.8200    0.5892 H   0  0  0  0  0  0  0  0  0  0  0  0
    3.2637   -3.0389   -0.3994 H   0  0  0  0  0  0  0  0  0  0  0  0
    2.9574   -4.2056   -1.6378 H   0  0  0  0  0  0  0  0  0  0  0  0
    5.2233   -5.0865   -1.0105 H   0  0  0  0  0  0  0  0  0  0  0  0
  1 22  1  0
  1  2  2  0
  1 23  1  0
  2  3  1  0
  2 24  1  0
  3  4  1  0
  4  5  1  0
  4 22  2  0
  5  6  1  0
  5 25  1  0
  5 26  1  0
  6 21  1  0
  6  7  1  0
  6 39  1  6
  7  8  1  0
  7 27  1  0
  7 28  1  0
  8  9  1  0
  8 29  1  0
  8 30  1  0
  9 19  1  0
  9 10  2  0
 10 11  1  0
 11 12  2  0
 12 13  1  0
 12 19  1  0
 13 14  1  0
 13 31  1  0
 13 32  1  0
 14 18  1  0
 14 15  1  0
 15 16  2  0
 15 33  1  0
 16 17  1  0
 17 18  2  0
 17 34  1  0
 19 20  1  0
 20 21  1  0
 20 35  1  0
 20 36  1  0
 21 37  1  0
 21 38  1  0
M  CHG  1   6   1
M  END
>  <i_m_ct_stereo_status>  (367) 
1

>  <s_m_source_file>  (367) 
/var/tmp/pbs.5076255.sched01/tmpyj7ipo08/120az4jmrmy.sdf

>  <i_m_source_file_index>  (367) 
32

>  <i_lp_mmshare_version>  (367) 
48012

>  <i_f3d_flags>  (367) 
0

>  <s_epik_input>  (367) 
bjFbY0hdW2NIXXNjMVtDSDJdTihbQ0gyXVtDSDJdMilbQ0gyXVtDSDJdbihjMjMpYyhubjMpW0NIMl1uNFtjSF1uW2NIXW40

>  <s_epik_cmdline>  (367) 
J2VwaWtfcHl0aG9uJywgJy1waHQnLCAnMi4wJywgJy1waCcsICc3LjAnLCAnLXRuJywgJzgnLCAnLW1hJywgJzIwMCcsICctaW1hZScsICc8aW5maWxlLm1hZT4nLCAnLW9tYWUnLCAnPG91dGZpbGUubWFlPic=

>  <r_lp_tautomer_probability>  (367) 
1

>  <r_epik_Ionization_Penalty>  (367) 
2.48123

>  <r_epik_Ionization_Penalty_Charging>  (367) 
2.48122

>  <r_epik_Ionization_Penalty_Neutral>  (367) 
1.06377e-05

>  <r_epik_State_Penalty>  (367) 
2.64485

>  <r_epik_Charging_Adjusted_Penalty>  (367) 
5.12607

>  <i_epik_Tot_Q>  (367) 
1

>  <i_epik_Tot_abs_Q>  (367) 
1

>  <s_lp_Force_Field>  (367) 
OPLS3e

>  <r_lp_Energy>  (367) 
19.226

>  <b_lp_Chiralities_Consistent>  (367) 
1

>  <s_lp_Variant>  (367) 
111:0-2

>  <s_i_glide_gridfile>  (367) 
pfpi4k_grid

>  <i_i_glide_lignum>  (367) 
32

>  <i_i_glide_rotatable_bonds>  (367) 
4

>  <r_i_docking_score>  (367) 
-4.16309

>  <r_i_glide_ligand_efficiency>  (367) 
-0.189231

>  <r_i_glide_ligand_efficiency_sa>  (367) 
-0.530234

>  <r_i_glide_ligand_efficiency_ln>  (367) 
-1.01761

>  <r_i_glide_gscore>  (367) 
-4.16309

>  <r_i_glide_lipo>  (367) 
-0.498873

>  <r_i_glide_hbond>  (367) 
-0.447191

>  <r_i_glide_metal>  (367) 
-0

>  <r_i_glide_rewards>  (367) 
-1.32086

>  <r_i_glide_evdw>  (367) 
-24.3223

>  <r_i_glide_ecoul>  (367) 
-8.35543

>  <r_i_glide_erotb>  (367) 
0.739745

>  <r_i_glide_esite>  (367) 
-0.166484

>  <r_i_glide_emodel>  (367) 
-43.1331

>  <r_i_glide_energy>  (367) 
-32.6777

>  <r_i_glide_einternal>  (367) 
2.17704

>  <r_i_glide_intrahb_reward>  (367) 
-0

>  <i_i_glide_confnum>  (367) 
4

>  <i_i_glide_posenum>  (367) 
20

>  <r_i_glide_eff_state_penalty>  (367) 
0

>  <ligand_id>  (367) 
111

>  <original_smiles>  (367) 
c1csc(CN2CCc3nnc(Cn4cncn4)n3CC2)n1

>  <smiles>  (367) 
[H]c1nc([H])n(C([H])([H])c2nnc3n2C([H])([H])C([H])([H])[N+]([H])(C([H])([H])c2nc([H])c([H])s2)C([H])([H])C3([H])[H])n1

$$$$
111:1:1
     RDKit          3D

 39 42  0  0  1  0  0  0  0  0999 V2000
    7.2209   -2.3368    0.0672 C   0  0  0  0  0  0  0  0  0  0  0  0
    7.5162   -2.6769   -1.2282 C   0  0  0  0  0  0  0  0  0  0  0  0
    6.0712   -3.0257   -2.1459 S   0  0  0  0  0  0  0  0  0  0  0  0
    5.0818   -2.6742   -0.7166 C   0  0  0  0  0  0  0  0  0  0  0  0
    3.5550   -2.6944   -0.7481 C   0  0  0  0  0  0  0  0  0  0  0  0
    3.0183   -2.0110    0.4734 N   0  0  1  0  0  0  0  0  0  0  0  0
    3.0179   -2.9198    1.6588 C   0  0  0  0  0  0  0  0  0  0  0  0
    2.9432   -2.1966    3.0124 C   0  0  0  0  0  0  0  0  0  0  0  0
    1.8114   -1.2425    3.1367 C   0  0  0  0  0  0  0  0  0  0  0  0
    0.8376   -1.4322    4.0113 N   0  0  0  0  0  0  0  0  0  0  0  0
    0.0014   -0.3660    3.8303 N   0  0  0  0  0  0  0  0  0  0  0  0
    0.5350    0.3903    2.8645 C   0  0  0  0  0  0  0  0  0  0  0  0
   -0.0747    1.6785    2.3227 C   0  0  0  0  0  0  0  0  0  0  0  0
   -0.8689    2.4628    3.2863 N   0  0  0  0  0  0  0  0  0  0  0  0
   -0.9500    3.7902    3.4843 C   0  0  0  0  0  0  0  0  0  0  0  0
   -1.7719    4.1473    4.4636 N   0  0  0  0  0  0  0  0  0  0  0  0
   -2.2216    2.9191    4.8499 C   0  0  0  0  0  0  0  0  0  0  0  0
   -1.7748    1.8963    4.1196 N   0  0  0  0  0  0  0  0  0  0  0  0
    1.6736   -0.1417    2.3542 N   0  0  0  0  0  0  0  0  0  0  0  0
    2.5026    0.3443    1.2791 C   0  0  0  0  0  0  0  0  0  0  0  0
    3.5482   -0.6356    0.7326 C   0  0  0  0  0  0  0  0  0  0  0  0
    5.8586   -2.4157    0.3475 N   0  0  0  0  0  0  0  0  0  0  0  0
    7.9018   -2.0397    0.8577 H   0  0  0  0  0  0  0  0  0  0  0  0
    8.4924   -2.7510   -1.6853 H   0  0  0  0  0  0  0  0  0  0  0  0
    3.1937   -2.1917   -1.6421 H   0  0  0  0  0  0  0  0  0  0  0  0
    3.2176   -3.7276   -0.8205 H   0  0  0  0  0  0  0  0  0  0  0  0
    2.2028   -3.6342    1.5624 H   0  0  0  0  0  0  0  0  0  0  0  0
    3.9134   -3.5323    1.6977 H   0  0  0  0  0  0  0  0  0  0  0  0
    2.7869   -2.9559    3.7827 H   0  0  0  0  0  0  0  0  0  0  0  0
    3.8758   -1.6933    3.2891 H   0  0  0  0  0  0  0  0  0  0  0  0
    0.7097    2.3226    1.9250 H   0  0  0  0  0  0  0  0  0  0  0  0
   -0.7087    1.4284    1.4747 H   0  0  0  0  0  0  0  0  0  0  0  0
   -0.4084    4.5071    2.8860 H   0  0  0  0  0  0  0  0  0  0  0  0
   -2.8908    2.7513    5.6813 H   0  0  0  0  0  0  0  0  0  0  0  0
    1.8225    0.6348    0.4782 H   0  0  0  0  0  0  0  0  0  0  0  0
    3.0269    1.2356    1.6234 H   0  0  0  0  0  0  0  0  0  0  0  0
    4.3778   -0.6096    1.4258 H   0  0  0  0  0  0  0  0  0  0  0  0
    3.9188   -0.2414   -0.2048 H   0  0  0  0  0  0  0  0  0  0  0  0
    2.0481   -1.8259    0.2405 H   0  0  0  0  0  0  0  0  0  0  0  0
  1 22  1  0
  1  2  2  0
  1 23  1  0
  2  3  1  0
  2 24  1  0
  3  4  1  0
  4  5  1  0
  4 22  2  0
  5  6  1  0
  5 25  1  0
  5 26  1  0
  6 21  1  0
  6  7  1  0
  6 39  1  6
  7  8  1  0
  7 27  1  0
  7 28  1  0
  8  9  1  0
  8 29  1  0
  8 30  1  0
  9 19  1  0
  9 10  2  0
 10 11  1  0
 11 12  2  0
 12 13  1  0
 12 19  1  0
 13 14  1  0
 13 31  1  0
 13 32  1  0
 14 18  1  0
 14 15  1  0
 15 16  2  0
 15 33  1  0
 16 17  1  0
 17 18  2  0
 17 34  1  0
 19 20  1  0
 20 21  1  0
 20 35  1  0
 20 36  1  0
 21 37  1  0
 21 38  1  0
M  CHG  1   6   1
M  END
>  <i_m_ct_stereo_status>  (368) 
1

>  <s_m_source_file>  (368) 
/var/tmp/pbs.5076255.sched01/tmpyj7ipo08/120az4jmrmy.sdf

>  <i_m_source_file_index>  (368) 
32

>  <i_lp_mmshare_version>  (368) 
48012

>  <i_f3d_flags>  (368) 
0

>  <s_epik_input>  (368) 
bjFbY0hdW2NIXXNjMVtDSDJdTihbQ0gyXVtDSDJdMilbQ0gyXVtDSDJdbihjMjMpYyhubjMpW0NIMl1uNFtjSF1uW2NIXW40

>  <s_epik_cmdline>  (368) 
J2VwaWtfcHl0aG9uJywgJy1waHQnLCAnMi4wJywgJy1waCcsICc3LjAnLCAnLXRuJywgJzgnLCAnLW1hJywgJzIwMCcsICctaW1hZScsICc8aW5maWxlLm1hZT4nLCAnLW9tYWUnLCAnPG91dGZpbGUubWFlPic=

>  <r_lp_tautomer_probability>  (368) 
1

>  <r_epik_Ionization_Penalty>  (368) 
2.48123

>  <r_epik_Ionization_Penalty_Charging>  (368) 
2.48122

>  <r_epik_Ionization_Penalty_Neutral>  (368) 
1.06377e-05

>  <r_epik_State_Penalty>  (368) 
2.64485

>  <r_epik_Charging_Adjusted_Penalty>  (368) 
5.12607

>  <i_epik_Tot_Q>  (368) 
1

>  <i_epik_Tot_abs_Q>  (368) 
1

>  <s_lp_Force_Field>  (368) 
OPLS3e

>  <r_lp_Energy>  (368) 
19.226

>  <b_lp_Chiralities_Consistent>  (368) 
1

>  <s_lp_Variant>  (368) 
111:0-2

>  <s_i_glide_gridfile>  (368) 
pfpi4k_grid

>  <i_i_glide_lignum>  (368) 
32

>  <i_i_glide_rotatable_bonds>  (368) 
4

>  <r_i_docking_score>  (368) 
-3.94378

>  <r_i_glide_ligand_efficiency>  (368) 
-0.179263

>  <r_i_glide_ligand_efficiency_sa>  (368) 
-0.502301

>  <r_i_glide_ligand_efficiency_ln>  (368) 
-0.964003

>  <r_i_glide_gscore>  (368) 
-3.94378

>  <r_i_glide_lipo>  (368) 
-0.179539

>  <r_i_glide_hbond>  (368) 
-0.223232

>  <r_i_glide_metal>  (368) 
-0

>  <r_i_glide_rewards>  (368) 
-1.24504

>  <r_i_glide_evdw>  (368) 
-27.4924

>  <r_i_glide_ecoul>  (368) 
-8.84545

>  <r_i_glide_erotb>  (368) 
0.739745

>  <r_i_glide_esite>  (368) 
-0.334273

>  <r_i_glide_emodel>  (368) 
-45.029

>  <r_i_glide_energy>  (368) 
-36.3378

>  <r_i_glide_einternal>  (368) 
4.94768

>  <r_i_glide_intrahb_reward>  (368) 
-0

>  <i_i_glide_confnum>  (368) 
3

>  <i_i_glide_posenum>  (368) 
14

>  <r_i_glide_eff_state_penalty>  (368) 
0

>  <ligand_id>  (368) 
111

>  <original_smiles>  (368) 
c1csc(CN2CCc3nnc(Cn4cncn4)n3CC2)n1

>  <smiles>  (368) 
[H]c1nc([H])n(C([H])([H])c2nnc3n2C([H])([H])C([H])([H])[N+]([H])(C([H])([H])c2nc([H])c([H])s2)C([H])([H])C3([H])[H])n1

$$$$
111:1:2
     RDKit          3D

 39 42  0  0  1  0  0  0  0  0999 V2000
    4.0893   -0.6294   -3.0128 C   0  0  0  0  0  0  0  0  0  0  0  0
    3.2830   -1.2848   -3.9027 C   0  0  0  0  0  0  0  0  0  0  0  0
    3.3497   -3.0091   -3.6867 S   0  0  0  0  0  0  0  0  0  0  0  0
    4.5003   -2.7735   -2.3705 C   0  0  0  0  0  0  0  0  0  0  0  0
    5.1512   -3.9116   -1.6387 C   0  0  0  0  0  0  0  0  0  0  0  0
    4.5161   -3.9669   -0.2892 N   0  0  1  0  0  0  0  0  0  0  0  0
    4.4290   -5.3745    0.2009 C   0  0  0  0  0  0  0  0  0  0  0  0
    4.2950   -5.5343    1.7329 C   0  0  0  0  0  0  0  0  0  0  0  0
    3.2035   -4.7244    2.3553 C   0  0  0  0  0  0  0  0  0  0  0  0
    2.1591   -5.2684    2.9824 N   0  0  0  0  0  0  0  0  0  0  0  0
    1.4098   -4.2053    3.4278 N   0  0  0  0  0  0  0  0  0  0  0  0
    2.0532   -3.1052    3.0184 C   0  0  0  0  0  0  0  0  0  0  0  0
    1.5409   -1.7066    3.2612 C   0  0  0  0  0  0  0  0  0  0  0  0
    0.8778   -1.5561    4.5492 N   0  0  0  0  0  0  0  0  0  0  0  0
   -0.4208   -1.4562    4.8623 C   0  0  0  0  0  0  0  0  0  0  0  0
   -0.6558   -1.3308    6.1622 N   0  0  0  0  0  0  0  0  0  0  0  0
    0.6308   -1.3529    6.6250 C   0  0  0  0  0  0  0  0  0  0  0  0
    1.5867   -1.4761    5.7027 N   0  0  0  0  0  0  0  0  0  0  0  0
    3.1801   -3.3751    2.3154 N   0  0  0  0  0  0  0  0  0  0  0  0
    4.1223   -2.4418    1.7040 C   0  0  0  0  0  0  0  0  0  0  0  0
    5.1392   -3.0378    0.6995 C   0  0  0  0  0  0  0  0  0  0  0  0
    4.7957   -1.4840   -2.1626 N   0  0  0  0  0  0  0  0  0  0  0  0
    4.2146    0.4405   -2.9160 H   0  0  0  0  0  0  0  0  0  0  0  0
    2.6328   -0.8497   -4.6440 H   0  0  0  0  0  0  0  0  0  0  0  0
    5.0003   -4.8269   -2.2142 H   0  0  0  0  0  0  0  0  0  0  0  0
    6.2254   -3.7512   -1.5786 H   0  0  0  0  0  0  0  0  0  0  0  0
    3.6001   -5.8676   -0.3078 H   0  0  0  0  0  0  0  0  0  0  0  0
    5.3246   -5.9208   -0.0955 H   0  0  0  0  0  0  0  0  0  0  0  0
    4.0786   -6.5830    1.9362 H   0  0  0  0  0  0  0  0  0  0  0  0
    5.2362   -5.3339    2.2551 H   0  0  0  0  0  0  0  0  0  0  0  0
    2.3487   -0.9747    3.2046 H   0  0  0  0  0  0  0  0  0  0  0  0
    0.8378   -1.4619    2.4645 H   0  0  0  0  0  0  0  0  0  0  0  0
   -1.2085   -1.4662    4.1220 H   0  0  0  0  0  0  0  0  0  0  0  0
    0.8650   -1.2774    7.6765 H   0  0  0  0  0  0  0  0  0  0  0  0
    3.5367   -1.6736    1.1995 H   0  0  0  0  0  0  0  0  0  0  0  0
    4.6693   -1.9443    2.5060 H   0  0  0  0  0  0  0  0  0  0  0  0
    5.9846   -3.5064    1.2016 H   0  0  0  0  0  0  0  0  0  0  0  0
    5.5815   -2.1863    0.1911 H   0  0  0  0  0  0  0  0  0  0  0  0
    3.5636   -3.6552   -0.4211 H   0  0  0  0  0  0  0  0  0  0  0  0
  1 22  1  0
  1  2  2  0
  1 23  1  0
  2  3  1  0
  2 24  1  0
  3  4  1  0
  4  5  1  0
  4 22  2  0
  5  6  1  0
  5 25  1  0
  5 26  1  0
  6 21  1  0
  6  7  1  0
  6 39  1  6
  7  8  1  0
  7 27  1  0
  7 28  1  0
  8  9  1  0
  8 29  1  0
  8 30  1  0
  9 19  1  0
  9 10  2  0
 10 11  1  0
 11 12  2  0
 12 13  1  0
 12 19  1  0
 13 14  1  0
 13 31  1  0
 13 32  1  0
 14 18  1  0
 14 15  1  0
 15 16  2  0
 15 33  1  0
 16 17  1  0
 17 18  2  0
 17 34  1  0
 19 20  1  0
 20 21  1  0
 20 35  1  0
 20 36  1  0
 21 37  1  0
 21 38  1  0
M  CHG  1   6   1
M  END
>  <i_m_ct_stereo_status>  (369) 
1

>  <s_m_source_file>  (369) 
/var/tmp/pbs.5076255.sched01/tmpyj7ipo08/120az4jmrmy.sdf

>  <i_m_source_file_index>  (369) 
32

>  <i_lp_mmshare_version>  (369) 
48012

>  <i_f3d_flags>  (369) 
0

>  <s_epik_input>  (369) 
bjFbY0hdW2NIXXNjMVtDSDJdTihbQ0gyXVtDSDJdMilbQ0gyXVtDSDJdbihjMjMpYyhubjMpW0NIMl1uNFtjSF1uW2NIXW40

>  <s_epik_cmdline>  (369) 
J2VwaWtfcHl0aG9uJywgJy1waHQnLCAnMi4wJywgJy1waCcsICc3LjAnLCAnLXRuJywgJzgnLCAnLW1hJywgJzIwMCcsICctaW1hZScsICc8aW5maWxlLm1hZT4nLCAnLW9tYWUnLCAnPG91dGZpbGUubWFlPic=

>  <r_lp_tautomer_probability>  (369) 
1

>  <r_epik_Ionization_Penalty>  (369) 
2.48123

>  <r_epik_Ionization_Penalty_Charging>  (369) 
2.48122

>  <r_epik_Ionization_Penalty_Neutral>  (369) 
1.06377e-05

>  <r_epik_State_Penalty>  (369) 
2.64485

>  <r_epik_Charging_Adjusted_Penalty>  (369) 
5.12607

>  <i_epik_Tot_Q>  (369) 
1

>  <i_epik_Tot_abs_Q>  (369) 
1

>  <s_lp_Force_Field>  (369) 
OPLS3e

>  <r_lp_Energy>  (369) 
19.226

>  <b_lp_Chiralities_Consistent>  (369) 
1

>  <s_lp_Variant>  (369) 
111:0-2

>  <s_i_glide_gridfile>  (369) 
pfpi4k_grid

>  <i_i_glide_lignum>  (369) 
32

>  <i_i_glide_rotatable_bonds>  (369) 
4

>  <r_i_docking_score>  (369) 
-3.63259

>  <r_i_glide_ligand_efficiency>  (369) 
-0.165118

>  <r_i_glide_ligand_efficiency_sa>  (369) 
-0.462666

>  <r_i_glide_ligand_efficiency_ln>  (369) 
-0.887937

>  <r_i_glide_gscore>  (369) 
-3.63259

>  <r_i_glide_lipo>  (369) 
-0.630702

>  <r_i_glide_hbond>  (369) 
0

>  <r_i_glide_metal>  (369) 
-0

>  <r_i_glide_rewards>  (369) 
-1.24554

>  <r_i_glide_evdw>  (369) 
-26.9724

>  <r_i_glide_ecoul>  (369) 
-7.28889

>  <r_i_glide_erotb>  (369) 
0.739745

>  <r_i_glide_esite>  (369) 
-0.0541322

>  <r_i_glide_emodel>  (369) 
-44.0555

>  <r_i_glide_energy>  (369) 
-34.2613

>  <r_i_glide_einternal>  (369) 
2.2809

>  <r_i_glide_intrahb_reward>  (369) 
-0

>  <i_i_glide_confnum>  (369) 
6

>  <i_i_glide_posenum>  (369) 
4

>  <r_i_glide_eff_state_penalty>  (369) 
0

>  <ligand_id>  (369) 
111

>  <original_smiles>  (369) 
c1csc(CN2CCc3nnc(Cn4cncn4)n3CC2)n1

>  <smiles>  (369) 
[H]c1nc([H])n(C([H])([H])c2nnc3n2C([H])([H])C([H])([H])[N+]([H])(C([H])([H])c2nc([H])c([H])s2)C([H])([H])C3([H])[H])n1

$$$$
112:0:0
     RDKit          3D

 65 69  0  0  1  0  0  0  0  0999 V2000
   -0.1088   -7.3783    1.2487 C   0  0  0  0  0  0  0  0  0  0  0  0
    0.4840   -7.5981    2.6463 C   0  0  2  0  0  0  0  0  0  0  0  0
    1.1440   -6.3749    3.3058 C   0  0  0  0  0  0  0  0  0  0  0  0
    2.7071   -6.1780    3.0158 C   0  0  1  0  0  0  0  0  0  0  0  0
    3.3018   -5.9215    4.4396 C   0  0  0  0  0  0  0  0  0  0  0  0
    3.3692   -7.4929    2.5185 C   0  0  0  0  0  0  0  0  0  0  0  0
    2.7392   -8.6863    2.5289 C   0  0  0  0  0  0  0  0  0  0  0  0
    1.4285   -8.7123    2.7233 C   0  0  0  0  0  0  0  0  0  0  0  0
    0.4461   -9.4959    3.1575 C   0  0  0  0  0  0  0  0  0  0  0  0
   -0.4337   -8.4022    3.4168 O   0  0  0  0  0  0  0  0  0  0  0  0
    4.8599   -7.3807    2.2707 C   0  0  0  0  0  0  0  0  0  0  0  0
    5.1279   -6.2823    1.2592 C   0  0  0  0  0  0  0  0  0  0  0  0
    4.5949   -4.8643    1.6860 C   0  0  1  0  0  0  0  0  0  0  0  0
    5.0253   -3.7537    0.6132 C   0  0  2  0  0  0  0  0  0  0  0  0
    6.5594   -3.9280    0.4186 C   0  0  0  0  0  0  0  0  0  0  0  0
    4.8302   -2.2772    1.0828 C   0  0  0  0  0  0  0  0  0  0  0  0
    5.1314   -1.2144    0.0069 C   0  0  0  0  0  0  0  0  0  0  0  0
    4.3253   -1.4585   -1.2828 C   0  0  1  0  0  0  0  0  0  0  0  0
    4.7358   -0.5161   -2.2532 O   0  0  0  0  0  0  0  0  0  0  0  0
    4.4765   -2.8943   -1.8565 C   0  0  0  0  0  0  0  0  0  0  0  0
    3.4715   -3.0500   -3.0284 C   0  0  0  0  0  0  0  0  0  0  0  0
    5.8748   -3.1014   -2.4975 C   0  0  0  0  0  0  0  0  0  0  0  0
    4.1949   -3.9495   -0.7135 C   0  0  2  0  0  0  0  0  0  0  0  0
    2.6815   -4.0457   -0.3614 C   0  0  0  0  0  0  0  0  0  0  0  0
    2.3394   -5.1151    0.6948 C   0  0  0  0  0  0  0  0  0  0  0  0
    3.0523   -4.9527    2.0525 C   0  0  1  0  0  0  0  0  0  0  0  0
    2.5462   -3.6692    2.7807 C   0  0  0  0  0  0  0  0  0  0  0  0
    0.6676   -7.2920    0.4948 H   0  0  0  0  0  0  0  0  0  0  0  0
   -0.7399   -6.4892    1.2332 H   0  0  0  0  0  0  0  0  0  0  0  0
   -0.7395   -8.2196    0.9764 H   0  0  0  0  0  0  0  0  0  0  0  0
    0.5625   -5.4858    3.0547 H   0  0  0  0  0  0  0  0  0  0  0  0
    0.9825   -6.4797    4.3840 H   0  0  0  0  0  0  0  0  0  0  0  0
    2.7687   -5.1515    4.9920 H   0  0  0  0  0  0  0  0  0  0  0  0
    4.3460   -5.6239    4.4242 H   0  0  0  0  0  0  0  0  0  0  0  0
    3.2414   -6.8164    5.0645 H   0  0  0  0  0  0  0  0  0  0  0  0
    3.2820   -9.6297    2.5224 H   0  0  0  0  0  0  0  0  0  0  0  0
    0.2016  -10.4622    3.5827 H   0  0  0  0  0  0  0  0  0  0  0  0
    5.3574   -7.1637    3.2085 H   0  0  0  0  0  0  0  0  0  0  0  0
    5.2441   -8.3332    1.9196 H   0  0  0  0  0  0  0  0  0  0  0  0
    6.1981   -6.2961    1.0975 H   0  0  0  0  0  0  0  0  0  0  0  0
    4.6813   -6.5964    0.3159 H   0  0  0  0  0  0  0  0  0  0  0  0
    5.1261   -4.6120    2.6023 H   0  0  0  0  0  0  0  0  0  0  0  0
    7.0737   -3.0316    0.0948 H   0  0  0  0  0  0  0  0  0  0  0  0
    6.7909   -4.7007   -0.3067 H   0  0  0  0  0  0  0  0  0  0  0  0
    7.0477   -4.1850    1.3641 H   0  0  0  0  0  0  0  0  0  0  0  0
    3.7984   -2.0760    1.3341 H   0  0  0  0  0  0  0  0  0  0  0  0
    5.4103   -2.0814    1.9831 H   0  0  0  0  0  0  0  0  0  0  0  0
    4.8611   -0.2307    0.4025 H   0  0  0  0  0  0  0  0  0  0  0  0
    6.1960   -1.1450   -0.2058 H   0  0  0  0  0  0  0  0  0  0  0  0
    3.2717   -1.2653   -1.0669 H   0  0  0  0  0  0  0  0  0  0  0  0
    4.6134    0.3542   -1.8905 H   0  0  0  0  0  0  0  0  0  0  0  0
    3.4201   -4.0755   -3.3782 H   0  0  0  0  0  0  0  0  0  0  0  0
    3.7465   -2.4400   -3.8887 H   0  0  0  0  0  0  0  0  0  0  0  0
    2.4679   -2.7299   -2.7435 H   0  0  0  0  0  0  0  0  0  0  0  0
    6.1095   -4.1592   -2.5836 H   0  0  0  0  0  0  0  0  0  0  0  0
    6.6777   -2.6221   -1.9446 H   0  0  0  0  0  0  0  0  0  0  0  0
    5.9298   -2.6893   -3.5021 H   0  0  0  0  0  0  0  0  0  0  0  0
    4.4599   -4.9158   -1.1364 H   0  0  0  0  0  0  0  0  0  0  0  0
    2.2979   -3.0740   -0.0556 H   0  0  0  0  0  0  0  0  0  0  0  0
    2.1038   -4.3093   -1.2416 H   0  0  0  0  0  0  0  0  0  0  0  0
    1.2803   -5.1025    0.8636 H   0  0  0  0  0  0  0  0  0  0  0  0
    2.5478   -6.0956    0.2663 H   0  0  0  0  0  0  0  0  0  0  0  0
    2.0807   -2.9591    2.1054 H   0  0  0  0  0  0  0  0  0  0  0  0
    3.3602   -3.1714    3.3093 H   0  0  0  0  0  0  0  0  0  0  0  0
    1.7822   -3.8420    3.5336 H   0  0  0  0  0  0  0  0  0  0  0  0
  2  1  1  6
  1 28  1  0
  1 29  1  0
  1 30  1  0
  2  8  1  0
  2 10  1  0
  2  3  1  0
  3  4  1  0
  3 31  1  0
  3 32  1  0
  4 26  1  0
  4  5  1  1
  4  6  1  0
  5 33  1  0
  5 34  1  0
  5 35  1  0
  6  7  2  0
  6 11  1  0
  7  8  1  0
  7 36  1  0
  8  9  2  0
  9 10  1  0
  9 37  1  0
 11 12  1  0
 11 38  1  0
 11 39  1  0
 12 13  1  0
 12 40  1  0
 12 41  1  0
 13 26  1  0
 13 14  1  0
 13 42  1  1
 14 23  1  0
 14 15  1  6
 14 16  1  0
 15 43  1  0
 15 44  1  0
 15 45  1  0
 16 17  1  0
 16 46  1  0
 16 47  1  0
 17 18  1  0
 17 48  1  0
 17 49  1  0
 18 19  1  0
 18 20  1  0
 18 50  1  1
 19 51  1  0
 20 21  1  0
 20 22  1  0
 20 23  1  0
 21 52  1  0
 21 53  1  0
 21 54  1  0
 22 55  1  0
 22 56  1  0
 22 57  1  0
 23 24  1  0
 23 58  1  6
 24 25  1  0
 24 59  1  0
 24 60  1  0
 25 26  1  0
 25 61  1  0
 25 62  1  0
 26 27  1  1
 27 63  1  0
 27 64  1  0
 27 65  1  0
M  END
>  <i_m_ct_stereo_status>  (370) 
1

>  <s_m_source_file>  (370) 
/var/tmp/pbs.5076255.sched01/tmpyj7ipo08/120az4jmrmy.sdf

>  <i_m_source_file_index>  (370) 
33

>  <i_lp_mmshare_version>  (370) 
48012

>  <i_f3d_flags>  (370) 
0

>  <s_epik_input>  (370) 
W0NIM11bQ0BAXTEyQyg9W0NIXU8yKVtDSF09QzNbQ0BAXShbQ0gyXTEpKFtDSDNdKVtDQEBdNChbQ0gzXSlbQ0BASF0oW0NIMl1bQ0gyXTMpW0NAQF01KFtDSDNdKVtDQEBIXShbQ0gyXVtDSDJdNClDKFtDSDNdKShbQ0gzXSlbQ0BIXShbT0hdKVtDSDJdW0NIMl01

>  <s_epik_cmdline>  (370) 
J2VwaWtfcHl0aG9uJywgJy1waHQnLCAnMi4wJywgJy1waCcsICc3LjAnLCAnLXRuJywgJzgnLCAnLW1hJywgJzIwMCcsICctaW1hZScsICc8aW5maWxlLm1hZT4nLCAnLW9tYWUnLCAnPG91dGZpbGUubWFlPic=

>  <r_lp_tautomer_probability>  (370) 
1

>  <r_epik_Ionization_Penalty>  (370) 
2.93318e-06

>  <r_epik_Ionization_Penalty_Charging>  (370) 
0

>  <r_epik_Ionization_Penalty_Neutral>  (370) 
2.93318e-06

>  <r_epik_State_Penalty>  (370) 
-0

>  <r_epik_Charging_Adjusted_Penalty>  (370) 
0

>  <i_epik_Tot_Q>  (370) 
0

>  <i_epik_Tot_abs_Q>  (370) 
0

>  <s_lp_Force_Field>  (370) 
OPLS3e

>  <r_lp_Energy>  (370) 
85.741

>  <b_lp_Chiralities_Consistent>  (370) 
1

>  <s_lp_Variant>  (370) 
112:0-1

>  <s_i_glide_gridfile>  (370) 
pfpi4k_grid

>  <i_i_glide_lignum>  (370) 
33

>  <i_i_glide_rotatable_bonds>  (370) 
1

>  <r_i_docking_score>  (370) 
-3.19368

>  <r_i_glide_ligand_efficiency>  (370) 
-0.118284

>  <r_i_glide_ligand_efficiency_sa>  (370) 
-0.354853

>  <r_i_glide_ligand_efficiency_ln>  (370) 
-0.743436

>  <r_i_glide_gscore>  (370) 
-3.19368

>  <r_i_glide_lipo>  (370) 
-0.548068

>  <r_i_glide_hbond>  (370) 
-0.293403

>  <r_i_glide_metal>  (370) 
-0

>  <r_i_glide_rewards>  (370) 
-0.882491

>  <r_i_glide_evdw>  (370) 
-24.1757

>  <r_i_glide_ecoul>  (370) 
-1.73954

>  <r_i_glide_erotb>  (370) 
0

>  <r_i_glide_esite>  (370) 
0

>  <r_i_glide_emodel>  (370) 
-30.4226

>  <r_i_glide_energy>  (370) 
-25.9153

>  <r_i_glide_einternal>  (370) 
0.349097

>  <r_i_glide_intrahb_reward>  (370) 
-0

>  <i_i_glide_confnum>  (370) 
2

>  <i_i_glide_posenum>  (370) 
13

>  <r_i_glide_eff_state_penalty>  (370) 
0

>  <ligand_id>  (370) 
112

>  <original_smiles>  (370) 
CC12CC3(C)C(=CC1=CO2)CCC1C2(C)CCC(O)C(C)(C)C2CCC13C

>  <smiles>  (370) 
[H]OC1([H])C([H])([H])C([H])([H])C2(C([H])([H])[H])C([H])(C([H])([H])C([H])([H])C3(C([H])([H])[H])C2([H])C([H])([H])C([H])([H])C2=C([H])C4=C([H])OC4(C([H])([H])[H])C([H])([H])C23C([H])([H])[H])C1(C([H])([H])[H])C([H])([H])[H]

$$$$
112:0:1
     RDKit          3D

 65 69  0  0  1  0  0  0  0  0999 V2000
    2.3494   -3.0249   -2.2402 C   0  0  0  0  0  0  0  0  0  0  0  0
    3.7925   -2.6524   -1.8496 C   0  0  2  0  0  0  0  0  0  0  0  0
    4.6516   -3.7432   -1.2113 C   0  0  0  0  0  0  0  0  0  0  0  0
    4.5726   -3.8564    0.3790 C   0  0  1  0  0  0  0  0  0  0  0  0
    6.0760   -3.9313    0.8061 C   0  0  0  0  0  0  0  0  0  0  0  0
    4.0240   -2.5531    1.0316 C   0  0  0  0  0  0  0  0  0  0  0  0
    3.8476   -1.4218    0.3291 C   0  0  0  0  0  0  0  0  0  0  0  0
    3.8822   -1.4689   -0.9937 C   0  0  0  0  0  0  0  0  0  0  0  0
    4.1216   -0.7216   -2.0772 C   0  0  0  0  0  0  0  0  0  0  0  0
    4.3641   -1.8372   -2.9094 O   0  0  0  0  0  0  0  0  0  0  0  0
    3.9759   -2.5876    2.5408 C   0  0  0  0  0  0  0  0  0  0  0  0
    3.1224   -3.7574    2.9997 C   0  0  0  0  0  0  0  0  0  0  0  0
    3.6231   -5.1590    2.4997 C   0  0  1  0  0  0  0  0  0  0  0  0
    2.7348   -6.3308    3.1302 C   0  0  2  0  0  0  0  0  0  0  0  0
    2.7122   -6.0714    4.6653 C   0  0  0  0  0  0  0  0  0  0  0  0
    3.3322   -7.7670    2.9646 C   0  0  0  0  0  0  0  0  0  0  0  0
    2.4240   -8.9112    3.4697 C   0  0  0  0  0  0  0  0  0  0  0  0
    1.0225   -8.8586    2.8373 C   0  0  1  0  0  0  0  0  0  0  0  0
    0.2196   -9.8974    3.3687 O   0  0  0  0  0  0  0  0  0  0  0  0
    0.3302   -7.4718    2.9692 C   0  0  0  0  0  0  0  0  0  0  0  0
   -0.9537   -7.5073    2.1068 C   0  0  0  0  0  0  0  0  0  0  0  0
   -0.1581   -7.2210    4.4225 C   0  0  0  0  0  0  0  0  0  0  0  0
    1.3026   -6.3210    2.4749 C   0  0  2  0  0  0  0  0  0  0  0  0
    1.4465   -6.2946    0.9245 C   0  0  0  0  0  0  0  0  0  0  0  0
    2.3472   -5.1791    0.3703 C   0  0  0  0  0  0  0  0  0  0  0  0
    3.7899   -5.1444    0.9152 C   0  0  1  0  0  0  0  0  0  0  0  0
    4.5878   -6.3841    0.4107 C   0  0  0  0  0  0  0  0  0  0  0  0
    1.7162   -3.1618   -1.3700 H   0  0  0  0  0  0  0  0  0  0  0  0
    2.3226   -3.9198   -2.8516 H   0  0  0  0  0  0  0  0  0  0  0  0
    1.8852   -2.2387   -2.8409 H   0  0  0  0  0  0  0  0  0  0  0  0
    4.4239   -4.6683   -1.7077 H   0  0  0  0  0  0  0  0  0  0  0  0
    5.6825   -3.5449   -1.5167 H   0  0  0  0  0  0  0  0  0  0  0  0
    6.6392   -4.6826    0.2513 H   0  0  0  0  0  0  0  0  0  0  0  0
    6.2229   -4.1567    1.8630 H   0  0  0  0  0  0  0  0  0  0  0  0
    6.5932   -2.9876    0.6161 H   0  0  0  0  0  0  0  0  0  0  0  0
    3.7919   -0.4479    0.8133 H   0  0  0  0  0  0  0  0  0  0  0  0
    4.3908    0.2608   -2.4290 H   0  0  0  0  0  0  0  0  0  0  0  0
    4.9810   -2.6752    2.9342 H   0  0  0  0  0  0  0  0  0  0  0  0
    3.5721   -1.6465    2.9180 H   0  0  0  0  0  0  0  0  0  0  0  0
    3.0922   -3.6831    4.0851 H   0  0  0  0  0  0  0  0  0  0  0  0
    2.1050   -3.5650    2.6628 H   0  0  0  0  0  0  0  0  0  0  0  0
    4.6201   -5.2820    2.9223 H   0  0  0  0  0  0  0  0  0  0  0  0
    2.5543   -6.9574    5.2687 H   0  0  0  0  0  0  0  0  0  0  0  0
    1.9405   -5.3574    4.9508 H   0  0  0  0  0  0  0  0  0  0  0  0
    3.6692   -5.6838    5.0158 H   0  0  0  0  0  0  0  0  0  0  0  0
    3.4781   -8.0190    1.9263 H   0  0  0  0  0  0  0  0  0  0  0  0
    4.3163   -7.8324    3.4334 H   0  0  0  0  0  0  0  0  0  0  0  0
    2.8823   -9.8642    3.2014 H   0  0  0  0  0  0  0  0  0  0  0  0
    2.3590   -8.9267    4.5564 H   0  0  0  0  0  0  0  0  0  0  0  0
    1.1356   -9.0909    1.7768 H   0  0  0  0  0  0  0  0  0  0  0  0
    0.0776   -9.7603    4.2970 H   0  0  0  0  0  0  0  0  0  0  0  0
   -1.3836   -6.5177    2.0244 H   0  0  0  0  0  0  0  0  0  0  0  0
   -1.7182   -8.1637    2.5261 H   0  0  0  0  0  0  0  0  0  0  0  0
   -0.7628   -7.8707    1.0975 H   0  0  0  0  0  0  0  0  0  0  0  0
   -0.3193   -6.1615    4.6206 H   0  0  0  0  0  0  0  0  0  0  0  0
    0.5400   -7.5936    5.1653 H   0  0  0  0  0  0  0  0  0  0  0  0
   -1.0967   -7.7341    4.6384 H   0  0  0  0  0  0  0  0  0  0  0  0
    0.8177   -5.3830    2.7416 H   0  0  0  0  0  0  0  0  0  0  0  0
    1.8057   -7.2596    0.5915 H   0  0  0  0  0  0  0  0  0  0  0  0
    0.4802   -6.1794    0.4390 H   0  0  0  0  0  0  0  0  0  0  0  0
    2.3703   -5.2831   -0.7103 H   0  0  0  0  0  0  0  0  0  0  0  0
    1.8689   -4.2242    0.5542 H   0  0  0  0  0  0  0  0  0  0  0  0
    3.9396   -7.1886    0.0832 H   0  0  0  0  0  0  0  0  0  0  0  0
    5.2657   -6.7646    1.1751 H   0  0  0  0  0  0  0  0  0  0  0  0
    5.2080   -6.1887   -0.4608 H   0  0  0  0  0  0  0  0  0  0  0  0
  2  1  1  6
  1 28  1  0
  1 29  1  0
  1 30  1  0
  2  8  1  0
  2 10  1  0
  2  3  1  0
  3  4  1  0
  3 31  1  0
  3 32  1  0
  4 26  1  0
  4  5  1  1
  4  6  1  0
  5 33  1  0
  5 34  1  0
  5 35  1  0
  6  7  2  0
  6 11  1  0
  7  8  1  0
  7 36  1  0
  8  9  2  0
  9 10  1  0
  9 37  1  0
 11 12  1  0
 11 38  1  0
 11 39  1  0
 12 13  1  0
 12 40  1  0
 12 41  1  0
 13 26  1  0
 13 14  1  0
 13 42  1  1
 14 23  1  0
 14 15  1  1
 14 16  1  0
 15 43  1  0
 15 44  1  0
 15 45  1  0
 16 17  1  0
 16 46  1  0
 16 47  1  0
 17 18  1  0
 17 48  1  0
 17 49  1  0
 18 19  1  0
 18 20  1  0
 18 50  1  6
 19 51  1  0
 20 21  1  0
 20 22  1  0
 20 23  1  0
 21 52  1  0
 21 53  1  0
 21 54  1  0
 22 55  1  0
 22 56  1  0
 22 57  1  0
 23 24  1  0
 23 58  1  1
 24 25  1  0
 24 59  1  0
 24 60  1  0
 25 26  1  0
 25 61  1  0
 25 62  1  0
 26 27  1  6
 27 63  1  0
 27 64  1  0
 27 65  1  0
M  END
>  <i_m_ct_stereo_status>  (371) 
1

>  <s_m_source_file>  (371) 
/var/tmp/pbs.5076255.sched01/tmpyj7ipo08/120az4jmrmy.sdf

>  <i_m_source_file_index>  (371) 
33

>  <i_lp_mmshare_version>  (371) 
48012

>  <i_f3d_flags>  (371) 
0

>  <s_epik_input>  (371) 
W0NIM11bQ0BAXTEyQyg9W0NIXU8yKVtDSF09QzNbQ0BAXShbQ0gyXTEpKFtDSDNdKVtDQEBdNChbQ0gzXSlbQ0BASF0oW0NIMl1bQ0gyXTMpW0NAQF01KFtDSDNdKVtDQEBIXShbQ0gyXVtDSDJdNClDKFtDSDNdKShbQ0gzXSlbQ0BIXShbT0hdKVtDSDJdW0NIMl01

>  <s_epik_cmdline>  (371) 
J2VwaWtfcHl0aG9uJywgJy1waHQnLCAnMi4wJywgJy1waCcsICc3LjAnLCAnLXRuJywgJzgnLCAnLW1hJywgJzIwMCcsICctaW1hZScsICc8aW5maWxlLm1hZT4nLCAnLW9tYWUnLCAnPG91dGZpbGUubWFlPic=

>  <r_lp_tautomer_probability>  (371) 
1

>  <r_epik_Ionization_Penalty>  (371) 
2.93318e-06

>  <r_epik_Ionization_Penalty_Charging>  (371) 
0

>  <r_epik_Ionization_Penalty_Neutral>  (371) 
2.93318e-06

>  <r_epik_State_Penalty>  (371) 
-0

>  <r_epik_Charging_Adjusted_Penalty>  (371) 
0

>  <i_epik_Tot_Q>  (371) 
0

>  <i_epik_Tot_abs_Q>  (371) 
0

>  <s_lp_Force_Field>  (371) 
OPLS3e

>  <r_lp_Energy>  (371) 
85.741

>  <b_lp_Chiralities_Consistent>  (371) 
1

>  <s_lp_Variant>  (371) 
112:0-1

>  <s_i_glide_gridfile>  (371) 
pfpi4k_grid

>  <i_i_glide_lignum>  (371) 
33

>  <i_i_glide_rotatable_bonds>  (371) 
1

>  <r_i_docking_score>  (371) 
-2.57749

>  <r_i_glide_ligand_efficiency>  (371) 
-0.0954624

>  <r_i_glide_ligand_efficiency_sa>  (371) 
-0.286387

>  <r_i_glide_ligand_efficiency_ln>  (371) 
-0.599996

>  <r_i_glide_gscore>  (371) 
-2.57749

>  <r_i_glide_lipo>  (371) 
-0.321653

>  <r_i_glide_hbond>  (371) 
0

>  <r_i_glide_metal>  (371) 
-0

>  <r_i_glide_rewards>  (371) 
-0.882491

>  <r_i_glide_evdw>  (371) 
-23.8761

>  <r_i_glide_ecoul>  (371) 
-1.19691

>  <r_i_glide_erotb>  (371) 
0

>  <r_i_glide_esite>  (371) 
0

>  <r_i_glide_emodel>  (371) 
-28.8199

>  <r_i_glide_energy>  (371) 
-25.073

>  <r_i_glide_einternal>  (371) 
0.00168202

>  <r_i_glide_intrahb_reward>  (371) 
-0

>  <i_i_glide_confnum>  (371) 
2

>  <i_i_glide_posenum>  (371) 
27

>  <r_i_glide_eff_state_penalty>  (371) 
0

>  <ligand_id>  (371) 
112

>  <original_smiles>  (371) 
CC12CC3(C)C(=CC1=CO2)CCC1C2(C)CCC(O)C(C)(C)C2CCC13C

>  <smiles>  (371) 
[H]OC1([H])C([H])([H])C([H])([H])C2(C([H])([H])[H])C([H])(C([H])([H])C([H])([H])C3(C([H])([H])[H])C2([H])C([H])([H])C([H])([H])C2=C([H])C4=C([H])OC4(C([H])([H])[H])C([H])([H])C23C([H])([H])[H])C1(C([H])([H])[H])C([H])([H])[H]

$$$$
112:0:2
     RDKit          3D

 65 69  0  0  1  0  0  0  0  0999 V2000
    2.5943   -2.9610   -2.3459 C   0  0  0  0  0  0  0  0  0  0  0  0
    4.0257   -2.5774   -1.9374 C   0  0  2  0  0  0  0  0  0  0  0  0
    4.8707   -3.6445   -1.2277 C   0  0  0  0  0  0  0  0  0  0  0  0
    4.7575   -3.6735    0.3724 C   0  0  1  0  0  0  0  0  0  0  0  0
    6.2503   -3.7109    0.8396 C   0  0  0  0  0  0  0  0  0  0  0  0
    4.1865   -2.3429    0.9379 C   0  0  0  0  0  0  0  0  0  0  0  0
    4.0158   -1.2409    0.1838 C   0  0  0  0  0  0  0  0  0  0  0  0
    4.0839   -1.3614   -1.1387 C   0  0  0  0  0  0  0  0  0  0  0  0
    4.3200   -0.6718   -2.2540 C   0  0  0  0  0  0  0  0  0  0  0  0
    4.6252   -1.8293   -3.0149 O   0  0  0  0  0  0  0  0  0  0  0  0
    4.0935   -2.2929    2.4488 C   0  0  0  0  0  0  0  0  0  0  0  0
    3.2356   -3.4420    2.9414 C   0  0  0  0  0  0  0  0  0  0  0  0
    3.7560   -4.8648    2.5231 C   0  0  1  0  0  0  0  0  0  0  0  0
    2.8562   -6.0090    3.1859 C   0  0  2  0  0  0  0  0  0  0  0  0
    2.7869   -5.6755    4.7041 C   0  0  0  0  0  0  0  0  0  0  0  0
    3.4654   -7.4466    3.1074 C   0  0  0  0  0  0  0  0  0  0  0  0
    2.5485   -8.5683    3.6369 C   0  0  0  0  0  0  0  0  0  0  0  0
    1.1708   -8.5522    2.9522 C   0  0  1  0  0  0  0  0  0  0  0  0
    0.3629   -9.5408    3.5575 O   0  0  0  0  0  0  0  0  0  0  0  0
    0.4603   -7.1656    3.0049 C   0  0  0  0  0  0  0  0  0  0  0  0
   -0.7998   -7.2510    2.1089 C   0  0  0  0  0  0  0  0  0  0  0  0
   -0.0705   -6.8513    4.4330 C   0  0  0  0  0  0  0  0  0  0  0  0
    1.4436   -6.0391    2.4874 C   0  0  2  0  0  0  0  0  0  0  0  0
    1.6319   -6.0868    0.9429 C   0  0  0  0  0  0  0  0  0  0  0  0
    2.5424   -4.9934    0.3533 C   0  0  0  0  0  0  0  0  0  0  0  0
    3.9664   -4.9339    0.9497 C   0  0  1  0  0  0  0  0  0  0  0  0
    4.7799   -6.1889    0.5196 C   0  0  0  0  0  0  0  0  0  0  0  0
    1.9385   -3.0634   -1.4843 H   0  0  0  0  0  0  0  0  0  0  0  0
    2.5990   -3.8761   -2.9263 H   0  0  0  0  0  0  0  0  0  0  0  0
    2.1594   -2.2020   -2.9949 H   0  0  0  0  0  0  0  0  0  0  0  0
    4.6572   -4.6129   -1.6796 H   0  0  0  0  0  0  0  0  0  0  0  0
    5.9132   -3.4539   -1.5106 H   0  0  0  0  0  0  0  0  0  0  0  0
    6.8292   -4.4820    0.3381 H   0  0  0  0  0  0  0  0  0  0  0  0
    6.3642   -3.8809    1.9063 H   0  0  0  0  0  0  0  0  0  0  0  0
    6.7653   -2.7734    0.6174 H   0  0  0  0  0  0  0  0  0  0  0  0
    3.9583   -0.2418    0.6029 H   0  0  0  0  0  0  0  0  0  0  0  0
    4.5880    0.2971   -2.6469 H   0  0  0  0  0  0  0  0  0  0  0  0
    5.0897   -2.3559    2.8677 H   0  0  0  0  0  0  0  0  0  0  0  0
    3.6783   -1.3380    2.7631 H   0  0  0  0  0  0  0  0  0  0  0  0
    3.1753   -3.3165    4.0176 H   0  0  0  0  0  0  0  0  0  0  0  0
    2.2284   -3.2735    2.5654 H   0  0  0  0  0  0  0  0  0  0  0  0
    4.7393   -4.9630    2.9787 H   0  0  0  0  0  0  0  0  0  0  0  0
    2.6154   -6.5319    5.3447 H   0  0  0  0  0  0  0  0  0  0  0  0
    2.0057   -4.9527    4.9325 H   0  0  0  0  0  0  0  0  0  0  0  0
    3.7330   -5.2660    5.0611 H   0  0  0  0  0  0  0  0  0  0  0  0
    3.6388   -7.7481    2.0849 H   0  0  0  0  0  0  0  0  0  0  0  0
    4.4336   -7.4847    3.6072 H   0  0  0  0  0  0  0  0  0  0  0  0
    3.0229   -9.5333    3.4360 H   0  0  0  0  0  0  0  0  0  0  0  0
    2.4421   -8.5312    4.7205 H   0  0  0  0  0  0  0  0  0  0  0  0
    1.3082   -8.8453    1.9075 H   0  0  0  0  0  0  0  0  0  0  0  0
    0.7744  -10.3903    3.4527 H   0  0  0  0  0  0  0  0  0  0  0  0
   -1.2248   -6.2720    1.9339 H   0  0  0  0  0  0  0  0  0  0  0  0
   -1.5730   -7.8845    2.5482 H   0  0  0  0  0  0  0  0  0  0  0  0
   -0.5763   -7.6853    1.1348 H   0  0  0  0  0  0  0  0  0  0  0  0
   -0.2403   -5.7846    4.5786 H   0  0  0  0  0  0  0  0  0  0  0  0
    0.6071   -7.1865    5.2121 H   0  0  0  0  0  0  0  0  0  0  0  0
   -1.0092   -7.3610    4.6505 H   0  0  0  0  0  0  0  0  0  0  0  0
    0.9456   -5.0948    2.6978 H   0  0  0  0  0  0  0  0  0  0  0  0
    2.0156   -7.0593    0.6593 H   0  0  0  0  0  0  0  0  0  0  0  0
    0.6816   -5.9969    0.4238 H   0  0  0  0  0  0  0  0  0  0  0  0
    2.5982   -5.1439   -0.7244 H   0  0  0  0  0  0  0  0  0  0  0  0
    2.0545   -4.0303    0.4899 H   0  0  0  0  0  0  0  0  0  0  0  0
    4.1464   -7.0092    0.2047 H   0  0  0  0  0  0  0  0  0  0  0  0
    5.4338   -6.5288    1.3221 H   0  0  0  0  0  0  0  0  0  0  0  0
    5.4302   -6.0289   -0.3344 H   0  0  0  0  0  0  0  0  0  0  0  0
  2  1  1  6
  1 28  1  0
  1 29  1  0
  1 30  1  0
  2  8  1  0
  2 10  1  0
  2  3  1  0
  3  4  1  0
  3 31  1  0
  3 32  1  0
  4 26  1  0
  4  5  1  1
  4  6  1  0
  5 33  1  0
  5 34  1  0
  5 35  1  0
  6  7  2  0
  6 11  1  0
  7  8  1  0
  7 36  1  0
  8  9  2  0
  9 10  1  0
  9 37  1  0
 11 12  1  0
 11 38  1  0
 11 39  1  0
 12 13  1  0
 12 40  1  0
 12 41  1  0
 13 26  1  0
 13 14  1  0
 13 42  1  1
 14 23  1  0
 14 15  1  1
 14 16  1  0
 15 43  1  0
 15 44  1  0
 15 45  1  0
 16 17  1  0
 16 46  1  0
 16 47  1  0
 17 18  1  0
 17 48  1  0
 17 49  1  0
 18 19  1  0
 18 20  1  0
 18 50  1  6
 19 51  1  0
 20 21  1  0
 20 22  1  0
 20 23  1  0
 21 52  1  0
 21 53  1  0
 21 54  1  0
 22 55  1  0
 22 56  1  0
 22 57  1  0
 23 24  1  0
 23 58  1  6
 24 25  1  0
 24 59  1  0
 24 60  1  0
 25 26  1  0
 25 61  1  0
 25 62  1  0
 26 27  1  1
 27 63  1  0
 27 64  1  0
 27 65  1  0
M  END
>  <i_m_ct_stereo_status>  (372) 
1

>  <s_m_source_file>  (372) 
/var/tmp/pbs.5076255.sched01/tmpyj7ipo08/120az4jmrmy.sdf

>  <i_m_source_file_index>  (372) 
33

>  <i_lp_mmshare_version>  (372) 
48012

>  <i_f3d_flags>  (372) 
0

>  <s_epik_input>  (372) 
W0NIM11bQ0BAXTEyQyg9W0NIXU8yKVtDSF09QzNbQ0BAXShbQ0gyXTEpKFtDSDNdKVtDQEBdNChbQ0gzXSlbQ0BASF0oW0NIMl1bQ0gyXTMpW0NAQF01KFtDSDNdKVtDQEBIXShbQ0gyXVtDSDJdNClDKFtDSDNdKShbQ0gzXSlbQ0BIXShbT0hdKVtDSDJdW0NIMl01

>  <s_epik_cmdline>  (372) 
J2VwaWtfcHl0aG9uJywgJy1waHQnLCAnMi4wJywgJy1waCcsICc3LjAnLCAnLXRuJywgJzgnLCAnLW1hJywgJzIwMCcsICctaW1hZScsICc8aW5maWxlLm1hZT4nLCAnLW9tYWUnLCAnPG91dGZpbGUubWFlPic=

>  <r_lp_tautomer_probability>  (372) 
1

>  <r_epik_Ionization_Penalty>  (372) 
2.93318e-06

>  <r_epik_Ionization_Penalty_Charging>  (372) 
0

>  <r_epik_Ionization_Penalty_Neutral>  (372) 
2.93318e-06

>  <r_epik_State_Penalty>  (372) 
-0

>  <r_epik_Charging_Adjusted_Penalty>  (372) 
0

>  <i_epik_Tot_Q>  (372) 
0

>  <i_epik_Tot_abs_Q>  (372) 
0

>  <s_lp_Force_Field>  (372) 
OPLS3e

>  <r_lp_Energy>  (372) 
85.741

>  <b_lp_Chiralities_Consistent>  (372) 
1

>  <s_lp_Variant>  (372) 
112:0-1

>  <s_i_glide_gridfile>  (372) 
pfpi4k_grid

>  <i_i_glide_lignum>  (372) 
33

>  <i_i_glide_rotatable_bonds>  (372) 
1

>  <r_i_docking_score>  (372) 
-2.53769

>  <r_i_glide_ligand_efficiency>  (372) 
-0.0939884

>  <r_i_glide_ligand_efficiency_sa>  (372) 
-0.281965

>  <r_i_glide_ligand_efficiency_ln>  (372) 
-0.590732

>  <r_i_glide_gscore>  (372) 
-2.53769

>  <r_i_glide_lipo>  (372) 
-0.292827

>  <r_i_glide_hbond>  (372) 
0

>  <r_i_glide_metal>  (372) 
-0

>  <r_i_glide_rewards>  (372) 
-0.882491

>  <r_i_glide_evdw>  (372) 
-24.8039

>  <r_i_glide_ecoul>  (372) 
-0.814497

>  <r_i_glide_erotb>  (372) 
0

>  <r_i_glide_esite>  (372) 
0

>  <r_i_glide_emodel>  (372) 
-29.1023

>  <r_i_glide_energy>  (372) 
-25.6184

>  <r_i_glide_einternal>  (372) 
0.331198

>  <r_i_glide_intrahb_reward>  (372) 
-0

>  <i_i_glide_confnum>  (372) 
2

>  <i_i_glide_posenum>  (372) 
21

>  <r_i_glide_eff_state_penalty>  (372) 
0

>  <ligand_id>  (372) 
112

>  <original_smiles>  (372) 
CC12CC3(C)C(=CC1=CO2)CCC1C2(C)CCC(O)C(C)(C)C2CCC13C

>  <smiles>  (372) 
[H]OC1([H])C([H])([H])C([H])([H])C2(C([H])([H])[H])C([H])(C([H])([H])C([H])([H])C3(C([H])([H])[H])C2([H])C([H])([H])C([H])([H])C2=C([H])C4=C([H])OC4(C([H])([H])[H])C([H])([H])C23C([H])([H])[H])C1(C([H])([H])[H])C([H])([H])[H]

$$$$
113:1:0
     RDKit          3D

 55 58  0  0  1  0  0  0  0  0999 V2000
    3.2959   -0.3172    0.5780 C   0  0  0  0  0  0  0  0  0  0  0  0
    3.7950   -1.4077   -0.1715 O   0  0  0  0  0  0  0  0  0  0  0  0
    3.4247   -2.6724    0.1373 C   0  0  0  0  0  0  0  0  0  0  0  0
    2.4968   -2.9746    0.8754 O   0  0  0  0  0  0  0  0  0  0  0  0
    4.3429   -3.7674   -0.4836 C   0  0  1  0  0  0  0  0  0  0  0  0
    5.1812   -3.2020   -1.6483 C   0  0  0  0  0  0  0  0  0  0  0  0
    4.4046   -3.0472   -2.9388 C   0  0  0  0  0  0  0  0  0  0  0  0
    6.4290   -2.8875   -1.5865 N   0  0  0  0  0  0  0  0  0  0  0  0
    7.1381   -2.9830   -0.3725 C   0  0  0  0  0  0  0  0  0  0  0  0
    8.4323   -2.7069   -0.3364 C   0  0  0  0  0  0  0  0  0  0  0  0
    6.4362   -3.4629    0.9031 C   0  0  1  0  0  0  0  0  0  0  0  0
    6.0384   -2.2474    1.7903 C   0  0  0  0  0  0  0  0  0  0  0  0
    6.2858   -1.0806    1.4852 O   0  0  0  0  0  0  0  0  0  0  0  0
    5.4145   -2.6232    2.9141 O   0  0  0  0  0  0  0  0  0  0  0  0
    4.8921   -1.6549    3.8031 C   0  0  0  0  0  0  0  0  0  0  0  0
    5.2883   -4.4321    0.5417 C   0  0  1  0  0  0  0  0  0  0  0  0
    4.6214   -5.2241    1.7179 C   0  0  2  0  0  0  0  0  0  0  0  0
    5.6784   -5.8202    2.6972 C   0  0  1  0  0  0  0  0  0  0  0  0
    4.9718   -6.4726    3.8916 C   0  0  0  0  0  0  0  0  0  0  0  0
    4.0790   -7.6240    3.3955 C   0  0  2  0  0  0  0  0  0  0  0  0
    4.9331   -8.6644    2.6351 C   0  0  0  0  0  0  0  0  0  0  0  0
    5.6248   -7.9925    1.4281 C   0  0  2  0  0  0  0  0  0  0  0  0
    6.5431   -6.8640    1.9524 C   0  0  0  0  0  0  0  0  0  0  0  0
    4.5280   -7.4479    0.4794 C   0  0  0  0  0  0  0  0  0  0  0  0
    3.6945   -6.3787    1.2337 C   0  0  1  0  0  0  0  0  0  0  0  0
    3.0098   -7.0402    2.4489 C   0  0  0  0  0  0  0  0  0  0  0  0
    3.8343    0.5646    0.2376 H   0  0  0  0  0  0  0  0  0  0  0  0
    3.5491   -0.4595    1.6230 H   0  0  0  0  0  0  0  0  0  0  0  0
    2.2181   -0.1615    0.4786 H   0  0  0  0  0  0  0  0  0  0  0  0
    4.0211   -3.9989   -3.3016 H   0  0  0  0  0  0  0  0  0  0  0  0
    5.0118   -2.6069   -3.7200 H   0  0  0  0  0  0  0  0  0  0  0  0
    3.5480   -2.3949   -2.7880 H   0  0  0  0  0  0  0  0  0  0  0  0
    8.9733   -2.3971   -1.2219 H   0  0  0  0  0  0  0  0  0  0  0  0
    3.6774   -4.5445   -0.9095 H   0  0  0  0  0  0  0  0  0  0  0  0
    8.9878   -2.8075    0.5910 H   0  0  0  0  0  0  0  0  0  0  0  0
    7.1853   -4.0315    1.4657 H   0  0  0  0  0  0  0  0  0  0  0  0
    4.5378   -2.1540    4.7109 H   0  0  0  0  0  0  0  0  0  0  0  0
    4.0406   -1.1609    3.3420 H   0  0  0  0  0  0  0  0  0  0  0  0
    5.6432   -0.9049    4.0761 H   0  0  0  0  0  0  0  0  0  0  0  0
    5.7818   -5.1642   -0.0695 H   0  0  0  0  0  0  0  0  0  0  0  0
    3.9911   -4.5414    2.2891 H   0  0  0  0  0  0  0  0  0  0  0  0
    6.3160   -5.0390    3.1097 H   0  0  0  0  0  0  0  0  0  0  0  0
    5.7103   -6.8388    4.6007 H   0  0  0  0  0  0  0  0  0  0  0  0
    4.3764   -5.7317    4.4324 H   0  0  0  0  0  0  0  0  0  0  0  0
    3.5988   -8.1027    4.2543 H   0  0  0  0  0  0  0  0  0  0  0  0
    5.6826   -9.1046    3.2950 H   0  0  0  0  0  0  0  0  0  0  0  0
    4.2982   -9.4799    2.2832 H   0  0  0  0  0  0  0  0  0  0  0  0
    6.2316   -8.7260    0.8961 H   0  0  0  0  0  0  0  0  0  0  0  0
    7.0979   -6.4080    1.1299 H   0  0  0  0  0  0  0  0  0  0  0  0
    7.2925   -7.2627    2.6394 H   0  0  0  0  0  0  0  0  0  0  0  0
    4.9562   -7.0194   -0.4248 H   0  0  0  0  0  0  0  0  0  0  0  0
    3.8737   -8.2755    0.1835 H   0  0  0  0  0  0  0  0  0  0  0  0
    2.9077   -5.9837    0.5807 H   0  0  0  0  0  0  0  0  0  0  0  0
    2.3428   -7.8337    2.1199 H   0  0  0  0  0  0  0  0  0  0  0  0
    2.3831   -6.3237    2.9866 H   0  0  0  0  0  0  0  0  0  0  0  0
  1  2  1  0
  1 27  1  0
  1 28  1  0
  1 29  1  0
  2  3  1  0
  3  4  2  0
  3  5  1  0
  5 16  1  0
  5 34  1  6
  5  6  1  0
  6  7  1  0
  6  8  2  0
  7 30  1  0
  7 31  1  0
  7 32  1  0
  8  9  1  0
  9 11  1  0
  9 10  2  0
 10 33  1  0
 10 35  1  0
 11 12  1  0
 11 16  1  0
 11 36  1  1
 12 13  2  0
 12 14  1  0
 14 15  1  0
 15 37  1  0
 15 38  1  0
 15 39  1  0
 16 17  1  0
 16 40  1  6
 17 25  1  0
 17 18  1  0
 17 41  1  1
 18 23  1  0
 18 19  1  0
 18 42  1  1
 19 20  1  0
 19 43  1  0
 19 44  1  0
 20 26  1  0
 20 21  1  0
 20 45  1  1
 21 22  1  0
 21 46  1  0
 21 47  1  0
 22 23  1  0
 22 24  1  0
 22 48  1  6
 23 49  1  0
 23 50  1  0
 24 25  1  0
 24 51  1  0
 24 52  1  0
 25 26  1  0
 25 53  1  6
 26 54  1  0
 26 55  1  0
M  END
>  <i_m_ct_stereo_status>  (373) 
1

>  <s_m_source_file>  (373) 
/var/tmp/pbs.5076255.sched01/tmpyj7ipo08/120az4jmrmy.sdf

>  <i_m_source_file_index>  (373) 
35

>  <i_lp_mmshare_version>  (373) 
48012

>  <i_f3d_flags>  (373) 
0

>  <s_epik_input>  (373) 
W0NIM11PQyg9TylDMT1DKFtDSDNdKU49QyhbQ0gzXSlbQ0BASF0oQyg9TylPW0NIM10pW0NASF0xW0NASF0oW0NASF0yMylbQ0BASF00W0NIMl1bQ0BIXShbQ0gyXTMpW0NIMl1bQ0BIXShbQ0gyXTIpW0NIMl00

>  <s_epik_cmdline>  (373) 
J2VwaWtfcHl0aG9uJywgJy1waHQnLCAnMi4wJywgJy1waCcsICc3LjAnLCAnLXRuJywgJzgnLCAnLW1hJywgJzIwMCcsICctaW1hZScsICc8aW5maWxlLm1hZT4nLCAnLW9tYWUnLCAnPG91dGZpbGUubWFlPic=

>  <r_lp_tautomer_probability>  (373) 
0.499993

>  <r_epik_Ionization_Penalty>  (373) 
0

>  <r_epik_Ionization_Penalty_Charging>  (373) 
0

>  <r_epik_Ionization_Penalty_Neutral>  (373) 
0

>  <r_epik_State_Penalty>  (373) 
0.41068

>  <r_epik_Charging_Adjusted_Penalty>  (373) 
0.41068

>  <i_epik_Tot_Q>  (373) 
0

>  <i_epik_Tot_abs_Q>  (373) 
0

>  <s_epik_Chemistry_Notes>  (373) 
This compound has an ester and may undergo hydrolysis at high or low pH. This compound has an imine and may undergo hydrolysis.

>  <s_lp_Force_Field>  (373) 
OPLS3e

>  <r_lp_Energy>  (373) 
12.7814

>  <b_lp_Chiralities_Consistent>  (373) 
1

>  <s_lp_Variant>  (373) 
113:0-2

>  <s_i_glide_gridfile>  (373) 
pfpi4k_grid

>  <i_i_glide_lignum>  (373) 
35

>  <i_i_glide_rotatable_bonds>  (373) 
5

>  <r_i_docking_score>  (373) 
-2.74375

>  <r_i_glide_ligand_efficiency>  (373) 
-0.105529

>  <r_i_glide_ligand_efficiency_sa>  (373) 
-0.312629

>  <r_i_glide_ligand_efficiency_ln>  (373) 
-0.644362

>  <r_i_glide_gscore>  (373) 
-2.74375

>  <r_i_glide_lipo>  (373) 
-0.703176

>  <r_i_glide_hbond>  (373) 
0

>  <r_i_glide_metal>  (373) 
-0

>  <r_i_glide_rewards>  (373) 
-1.17681

>  <r_i_glide_evdw>  (373) 
-22.9601

>  <r_i_glide_ecoul>  (373) 
-0.874531

>  <r_i_glide_erotb>  (373) 
0.445031

>  <r_i_glide_esite>  (373) 
-0.0296164

>  <r_i_glide_emodel>  (373) 
-25.6187

>  <r_i_glide_energy>  (373) 
-23.8347

>  <r_i_glide_einternal>  (373) 
3.87151

>  <r_i_glide_intrahb_reward>  (373) 
-0

>  <i_i_glide_confnum>  (373) 
2

>  <i_i_glide_posenum>  (373) 
36

>  <r_i_glide_eff_state_penalty>  (373) 
0

>  <ligand_id>  (373) 
113

>  <original_smiles>  (373) 
COC(=O)C1=C(C)N=C(C)C(C(=O)OC)C1C1C2CC3CC(C2)CC1C3

>  <smiles>  (373) 
[H]C([H])=C1N=C(C([H])([H])[H])C([H])(C(=O)OC([H])([H])[H])C([H])(C2([H])C3([H])C([H])([H])C4([H])C([H])([H])C([H])(C3([H])[H])C([H])([H])C2([H])C4([H])[H])C1([H])C(=O)OC([H])([H])[H]

$$$$
114:0:0
     RDKit          3D

 46 50  0  0  1  0  0  0  0  0999 V2000
    5.3829   -7.7070    4.4058 C   0  0  0  0  0  0  0  0  0  0  0  0
    5.2613   -6.5942    3.6769 C   0  0  0  0  0  0  0  0  0  0  0  0
    5.6518   -5.2685    4.1572 C   0  0  0  0  0  0  0  0  0  0  0  0
    5.8976   -4.9393    5.3163 O   0  0  0  0  0  0  0  0  0  0  0  0
    5.6516   -4.4532    3.1046 O   0  0  0  0  0  0  0  0  0  0  0  0
    5.6041   -5.1441    1.8640 C   0  0  1  0  0  0  0  0  0  0  0  0
    4.8456   -6.4469    2.2353 C   0  0  2  0  0  0  0  0  0  0  0  0
    3.2833   -6.3954    2.1397 C   0  0  0  0  0  0  0  0  0  0  0  0
    2.6994   -5.5106    1.0180 C   0  0  0  0  0  0  0  0  0  0  0  0
    3.4574   -4.1821    1.0079 C   0  0  2  0  0  0  0  0  0  0  0  0
    2.8550   -3.0159    0.1956 C   0  0  1  0  0  0  0  0  0  0  0  0
    3.4100   -1.6904    0.6875 C   0  0  0  0  0  0  0  0  0  0  0  0
    4.6058   -2.0436   -0.1955 C   0  0  2  0  0  0  0  0  0  0  0  0
    3.6097   -2.7401   -1.1060 C   0  0  2  0  0  0  0  0  0  0  0  0
    3.4567   -2.0392   -2.4174 C   0  0  0  0  0  0  0  0  0  0  0  0
    4.8345   -1.9854   -2.8968 O   0  0  0  0  0  0  0  0  0  0  0  0
    5.7804   -3.0647   -2.5955 C   0  0  0  0  0  0  0  0  0  0  0  0
    6.5107   -3.0789   -1.1800 C   0  0  0  0  0  0  0  0  0  0  0  0
    5.6875   -3.0233    0.1661 C   0  0  1  0  0  0  0  0  0  0  0  0
    6.5722   -2.3821    1.2462 C   0  0  0  0  0  0  0  0  0  0  0  0
    4.9871   -4.3776    0.6868 C   0  0  1  0  0  0  0  0  0  0  0  0
    5.1586   -5.3443   -0.3404 O   0  0  0  0  0  0  0  0  0  0  0  0
    5.1303   -8.6839    4.0107 H   0  0  0  0  0  0  0  0  0  0  0  0
    5.7501   -7.6575    5.4249 H   0  0  0  0  0  0  0  0  0  0  0  0
    6.6343   -5.3927    1.6166 H   0  0  0  0  0  0  0  0  0  0  0  0
    5.2202   -7.2844    1.6443 H   0  0  0  0  0  0  0  0  0  0  0  0
    2.8863   -7.4071    2.0401 H   0  0  0  0  0  0  0  0  0  0  0  0
    2.8838   -6.0156    3.0838 H   0  0  0  0  0  0  0  0  0  0  0  0
    2.7581   -6.0038    0.0497 H   0  0  0  0  0  0  0  0  0  0  0  0
    1.6402   -5.3396    1.2123 H   0  0  0  0  0  0  0  0  0  0  0  0
    3.3930   -3.8458    2.0425 H   0  0  0  0  0  0  0  0  0  0  0  0
    1.7848   -3.0031    0.0878 H   0  0  0  0  0  0  0  0  0  0  0  0
    2.8330   -0.8297    0.3337 H   0  0  0  0  0  0  0  0  0  0  0  0
    3.6320   -1.6416    1.7577 H   0  0  0  0  0  0  0  0  0  0  0  0
    4.9838   -1.1029   -0.6053 H   0  0  0  0  0  0  0  0  0  0  0  0
    3.7754   -3.7633   -1.3976 H   0  0  0  0  0  0  0  0  0  0  0  0
    2.8241   -2.6103   -3.1005 H   0  0  0  0  0  0  0  0  0  0  0  0
    3.0397   -1.0334   -2.3214 H   0  0  0  0  0  0  0  0  0  0  0  0
    5.3578   -4.0377   -2.8470 H   0  0  0  0  0  0  0  0  0  0  0  0
    6.5784   -2.9528   -3.3231 H   0  0  0  0  0  0  0  0  0  0  0  0
    7.2022   -3.9083   -1.1157 H   0  0  0  0  0  0  0  0  0  0  0  0
    7.1805   -2.2210   -1.1992 H   0  0  0  0  0  0  0  0  0  0  0  0
    7.3797   -3.0602    1.5199 H   0  0  0  0  0  0  0  0  0  0  0  0
    5.9987   -2.1471    2.1462 H   0  0  0  0  0  0  0  0  0  0  0  0
    7.0224   -1.4447    0.9151 H   0  0  0  0  0  0  0  0  0  0  0  0
    4.5517   -5.1744   -1.0366 H   0  0  0  0  0  0  0  0  0  0  0  0
  1  2  2  0
  1 23  1  0
  1 24  1  0
  2  7  1  0
  2  3  1  0
  3  4  2  0
  3  5  1  0
  5  6  1  0
  6 21  1  0
  6  7  1  0
  6 25  1  6
  7  8  1  0
  7 26  1  6
  8  9  1  0
  8 27  1  0
  8 28  1  0
  9 10  1  0
  9 29  1  0
  9 30  1  0
 10 21  1  0
 10 11  1  0
 10 31  1  1
 11 14  1  0
 11 12  1  0
 11 32  1  6
 12 13  1  0
 12 33  1  0
 12 34  1  0
 13 19  1  0
 13 14  1  0
 13 35  1  6
 14 15  1  0
 14 36  1  6
 15 16  1  0
 15 37  1  0
 15 38  1  0
 16 17  1  0
 17 18  1  0
 17 39  1  0
 17 40  1  0
 18 19  1  0
 18 41  1  0
 18 42  1  0
 19 20  1  1
 19 21  1  0
 20 43  1  0
 20 44  1  0
 20 45  1  0
 21 22  1  6
 22 46  1  0
M  END
>  <i_m_ct_stereo_status>  (374) 
1

>  <s_m_source_file>  (374) 
/var/tmp/pbs.5076255.sched01/tmpyj7ipo08/120az4jmrmy.sdf

>  <i_m_source_file_index>  (374) 
37

>  <i_lp_mmshare_version>  (374) 
48012

>  <i_f3d_flags>  (374) 
0

>  <s_epik_input>  (374) 
Tz1DKE8xKUMoPVtDSDJdKVtDQEBIXShbQ0gyXVtDSDJdMilbQ0BIXTFbQ0BAXTMoW09IXSlbQ0BIXTJbQ0BASF0oW0NIMl00KVtDSF0oW0NAQEhdNFtDQEBdMzVbQ0gzXSlbQ0gyXU9bQ0gyXVtDSDJdNQ==

>  <s_epik_cmdline>  (374) 
J2VwaWtfcHl0aG9uJywgJy1waHQnLCAnMi4wJywgJy1waCcsICc3LjAnLCAnLXRuJywgJzgnLCAnLW1hJywgJzIwMCcsICctaW1hZScsICc8aW5maWxlLm1hZT4nLCAnLW9tYWUnLCAnPG91dGZpbGUubWFlPic=

>  <r_lp_tautomer_probability>  (374) 
1

>  <r_epik_Ionization_Penalty>  (374) 
4.43489e-08

>  <r_epik_Ionization_Penalty_Charging>  (374) 
0

>  <r_epik_Ionization_Penalty_Neutral>  (374) 
4.43489e-08

>  <r_epik_State_Penalty>  (374) 
-0

>  <r_epik_Charging_Adjusted_Penalty>  (374) 
0

>  <i_epik_Tot_Q>  (374) 
0

>  <i_epik_Tot_abs_Q>  (374) 
0

>  <s_epik_Chemistry_Notes>  (374) 
This compound has an ester and may undergo hydrolysis at high or low pH.

>  <s_lp_Force_Field>  (374) 
OPLS3e

>  <r_lp_Energy>  (374) 
101.386

>  <b_lp_Chiralities_Consistent>  (374) 
1

>  <s_lp_Variant>  (374) 
114:0-1

>  <s_i_glide_gridfile>  (374) 
pfpi4k_grid

>  <i_i_glide_lignum>  (374) 
37

>  <i_i_glide_rotatable_bonds>  (374) 
1

>  <r_i_docking_score>  (374) 
-3.31975

>  <r_i_glide_ligand_efficiency>  (374) 
-0.150898

>  <r_i_glide_ligand_efficiency_sa>  (374) 
-0.422821

>  <r_i_glide_ligand_efficiency_ln>  (374) 
-0.811467

>  <r_i_glide_gscore>  (374) 
-3.31975

>  <r_i_glide_lipo>  (374) 
-0.49822

>  <r_i_glide_hbond>  (374) 
-0.0147949

>  <r_i_glide_metal>  (374) 
-0

>  <r_i_glide_rewards>  (374) 
-1.33511

>  <r_i_glide_evdw>  (374) 
-21.5972

>  <r_i_glide_ecoul>  (374) 
-2.61179

>  <r_i_glide_erotb>  (374) 
0

>  <r_i_glide_esite>  (374) 
0

>  <r_i_glide_emodel>  (374) 
-28.4722

>  <r_i_glide_energy>  (374) 
-24.2089

>  <r_i_glide_einternal>  (374) 
0.153823

>  <r_i_glide_intrahb_reward>  (374) 
-0

>  <i_i_glide_confnum>  (374) 
1

>  <i_i_glide_posenum>  (374) 
37

>  <r_i_glide_eff_state_penalty>  (374) 
0

>  <ligand_id>  (374) 
114

>  <original_smiles>  (374) 
C=C1C(=O)OC2C1CCC1C3CC4C3COCCC4(C)C12O

>  <smiles>  (374) 
[H]OC12C3([H])OC(=O)C(=C([H])[H])C3([H])C([H])([H])C([H])([H])C1([H])C1([H])C([H])([H])C3([H])C1([H])C([H])([H])OC([H])([H])C([H])([H])C32C([H])([H])[H]

$$$$
114:0:1
     RDKit          3D

 46 50  0  0  1  0  0  0  0  0999 V2000
    4.7074   -4.3962    7.2091 C   0  0  0  0  0  0  0  0  0  0  0  0
    4.2867   -4.1937    5.9378 C   0  0  0  0  0  0  0  0  0  0  0  0
    2.9061   -3.9258    5.5814 C   0  0  0  0  0  0  0  0  0  0  0  0
    1.8981   -4.0925    6.2838 O   0  0  0  0  0  0  0  0  0  0  0  0
    2.8940   -3.5019    4.3199 O   0  0  0  0  0  0  0  0  0  0  0  0
    4.1919   -3.1595    3.8439 C   0  0  1  0  0  0  0  0  0  0  0  0
    5.1187   -4.0656    4.6969 C   0  0  2  0  0  0  0  0  0  0  0  0
    5.4318   -5.4857    4.1175 C   0  0  0  0  0  0  0  0  0  0  0  0
    5.5338   -5.5949    2.5811 C   0  0  0  0  0  0  0  0  0  0  0  0
    4.3725   -4.8188    1.9659 C   0  0  2  0  0  0  0  0  0  0  0  0
    4.0652   -5.0529    0.4654 C   0  0  1  0  0  0  0  0  0  0  0  0
    2.6366   -4.6371    0.1731 C   0  0  0  0  0  0  0  0  0  0  0  0
    3.2118   -3.2204    0.1282 C   0  0  2  0  0  0  0  0  0  0  0  0
    4.4777   -3.8616   -0.4069 C   0  0  2  0  0  0  0  0  0  0  0  0
    4.7515   -3.4925   -1.8314 C   0  0  0  0  0  0  0  0  0  0  0  0
    4.7435   -2.0352   -1.7860 O   0  0  0  0  0  0  0  0  0  0  0  0
    5.2206   -1.3071   -0.6079 C   0  0  0  0  0  0  0  0  0  0  0  0
    4.2643   -1.1303    0.6511 C   0  0  0  0  0  0  0  0  0  0  0  0
    3.5545   -2.3762    1.3302 C   0  0  1  0  0  0  0  0  0  0  0  0
    2.2377   -1.8985    1.9765 C   0  0  0  0  0  0  0  0  0  0  0  0
    4.4270   -3.2822    2.3282 C   0  0  1  0  0  0  0  0  0  0  0  0
    5.7544   -2.7835    2.2356 O   0  0  0  0  0  0  0  0  0  0  0  0
    5.7476   -4.5344    7.4531 H   0  0  0  0  0  0  0  0  0  0  0  0
    3.9874   -4.4042    8.0121 H   0  0  0  0  0  0  0  0  0  0  0  0
    4.3472   -2.1234    4.1317 H   0  0  0  0  0  0  0  0  0  0  0  0
    6.0515   -3.5497    4.9225 H   0  0  0  0  0  0  0  0  0  0  0  0
    6.3548   -5.8682    4.5570 H   0  0  0  0  0  0  0  0  0  0  0  0
    4.6466   -6.1752    4.4368 H   0  0  0  0  0  0  0  0  0  0  0  0
    6.4863   -5.2168    2.2155 H   0  0  0  0  0  0  0  0  0  0  0  0
    5.4806   -6.6449    2.2854 H   0  0  0  0  0  0  0  0  0  0  0  0
    3.5042   -5.2257    2.4790 H   0  0  0  0  0  0  0  0  0  0  0  0
    4.3005   -6.0323    0.0622 H   0  0  0  0  0  0  0  0  0  0  0  0
    2.2647   -5.0011   -0.7871 H   0  0  0  0  0  0  0  0  0  0  0  0
    1.9281   -4.8011    0.9860 H   0  0  0  0  0  0  0  0  0  0  0  0
    2.6547   -2.6796   -0.6373 H   0  0  0  0  0  0  0  0  0  0  0  0
    5.4123   -3.6566    0.0786 H   0  0  0  0  0  0  0  0  0  0  0  0
    5.7243   -3.8670   -2.1580 H   0  0  0  0  0  0  0  0  0  0  0  0
    3.9877   -3.8568   -2.5205 H   0  0  0  0  0  0  0  0  0  0  0  0
    6.2109   -1.6543   -0.3099 H   0  0  0  0  0  0  0  0  0  0  0  0
    5.3990   -0.2990   -0.9773 H   0  0  0  0  0  0  0  0  0  0  0  0
    4.7801   -0.5508    1.4144 H   0  0  0  0  0  0  0  0  0  0  0  0
    3.4763   -0.4595    0.3080 H   0  0  0  0  0  0  0  0  0  0  0  0
    2.4280   -1.2696    2.8443 H   0  0  0  0  0  0  0  0  0  0  0  0
    1.6198   -2.7386    2.2902 H   0  0  0  0  0  0  0  0  0  0  0  0
    1.6309   -1.3203    1.2776 H   0  0  0  0  0  0  0  0  0  0  0  0
    6.0728   -2.9246    1.3587 H   0  0  0  0  0  0  0  0  0  0  0  0
  1  2  2  0
  1 23  1  0
  1 24  1  0
  2  7  1  0
  2  3  1  0
  3  4  2  0
  3  5  1  0
  5  6  1  0
  6 21  1  0
  6  7  1  0
  6 25  1  1
  7  8  1  0
  7 26  1  1
  8  9  1  0
  8 27  1  0
  8 28  1  0
  9 10  1  0
  9 29  1  0
  9 30  1  0
 10 21  1  0
 10 11  1  0
 10 31  1  1
 11 14  1  0
 11 12  1  0
 11 32  1  6
 12 13  1  0
 12 33  1  0
 12 34  1  0
 13 19  1  0
 13 14  1  0
 13 35  1  6
 14 15  1  0
 14 36  1  1
 15 16  1  0
 15 37  1  0
 15 38  1  0
 16 17  1  0
 17 18  1  0
 17 39  1  0
 17 40  1  0
 18 19  1  0
 18 41  1  0
 18 42  1  0
 19 20  1  1
 19 21  1  0
 20 43  1  0
 20 44  1  0
 20 45  1  0
 21 22  1  1
 22 46  1  0
M  END
>  <i_m_ct_stereo_status>  (375) 
1

>  <s_m_source_file>  (375) 
/var/tmp/pbs.5076255.sched01/tmpyj7ipo08/120az4jmrmy.sdf

>  <i_m_source_file_index>  (375) 
37

>  <i_lp_mmshare_version>  (375) 
48012

>  <i_f3d_flags>  (375) 
0

>  <s_epik_input>  (375) 
Tz1DKE8xKUMoPVtDSDJdKVtDQEBIXShbQ0gyXVtDSDJdMilbQ0BIXTFbQ0BAXTMoW09IXSlbQ0BIXTJbQ0BASF0oW0NIMl00KVtDSF0oW0NAQEhdNFtDQEBdMzVbQ0gzXSlbQ0gyXU9bQ0gyXVtDSDJdNQ==

>  <s_epik_cmdline>  (375) 
J2VwaWtfcHl0aG9uJywgJy1waHQnLCAnMi4wJywgJy1waCcsICc3LjAnLCAnLXRuJywgJzgnLCAnLW1hJywgJzIwMCcsICctaW1hZScsICc8aW5maWxlLm1hZT4nLCAnLW9tYWUnLCAnPG91dGZpbGUubWFlPic=

>  <r_lp_tautomer_probability>  (375) 
1

>  <r_epik_Ionization_Penalty>  (375) 
4.43489e-08

>  <r_epik_Ionization_Penalty_Charging>  (375) 
0

>  <r_epik_Ionization_Penalty_Neutral>  (375) 
4.43489e-08

>  <r_epik_State_Penalty>  (375) 
-0

>  <r_epik_Charging_Adjusted_Penalty>  (375) 
0

>  <i_epik_Tot_Q>  (375) 
0

>  <i_epik_Tot_abs_Q>  (375) 
0

>  <s_epik_Chemistry_Notes>  (375) 
This compound has an ester and may undergo hydrolysis at high or low pH.

>  <s_lp_Force_Field>  (375) 
OPLS3e

>  <r_lp_Energy>  (375) 
101.386

>  <b_lp_Chiralities_Consistent>  (375) 
1

>  <s_lp_Variant>  (375) 
114:0-1

>  <s_i_glide_gridfile>  (375) 
pfpi4k_grid

>  <i_i_glide_lignum>  (375) 
37

>  <i_i_glide_rotatable_bonds>  (375) 
1

>  <r_i_docking_score>  (375) 
-2.46393

>  <r_i_glide_ligand_efficiency>  (375) 
-0.111997

>  <r_i_glide_ligand_efficiency_sa>  (375) 
-0.31382

>  <r_i_glide_ligand_efficiency_ln>  (375) 
-0.602276

>  <r_i_glide_gscore>  (375) 
-2.46393

>  <r_i_glide_lipo>  (375) 
-0.114767

>  <r_i_glide_hbond>  (375) 
0

>  <r_i_glide_metal>  (375) 
-0

>  <r_i_glide_rewards>  (375) 
-1.33377

>  <r_i_glide_evdw>  (375) 
-18.1043

>  <r_i_glide_ecoul>  (375) 
-0.734579

>  <r_i_glide_erotb>  (375) 
0

>  <r_i_glide_esite>  (375) 
0

>  <r_i_glide_emodel>  (375) 
-22.0812

>  <r_i_glide_energy>  (375) 
-18.8389

>  <r_i_glide_einternal>  (375) 
6.02404e-05

>  <r_i_glide_intrahb_reward>  (375) 
-0

>  <i_i_glide_confnum>  (375) 
2

>  <i_i_glide_posenum>  (375) 
7

>  <r_i_glide_eff_state_penalty>  (375) 
0

>  <ligand_id>  (375) 
114

>  <original_smiles>  (375) 
C=C1C(=O)OC2C1CCC1C3CC4C3COCCC4(C)C12O

>  <smiles>  (375) 
[H]OC12C3([H])OC(=O)C(=C([H])[H])C3([H])C([H])([H])C([H])([H])C1([H])C1([H])C([H])([H])C3([H])C1([H])C([H])([H])OC([H])([H])C([H])([H])C32C([H])([H])[H]

$$$$
114:0:2
     RDKit          3D

 46 50  0  0  1  0  0  0  0  0999 V2000
    4.8092   -4.4080    7.1824 C   0  0  0  0  0  0  0  0  0  0  0  0
    4.3714   -4.2047    5.9189 C   0  0  0  0  0  0  0  0  0  0  0  0
    2.9841   -3.9386    5.5825 C   0  0  0  0  0  0  0  0  0  0  0  0
    1.9871   -4.1073    6.2980 O   0  0  0  0  0  0  0  0  0  0  0  0
    2.9565   -3.5113    4.3222 O   0  0  0  0  0  0  0  0  0  0  0  0
    4.2440   -3.1647    3.8266 C   0  0  1  0  0  0  0  0  0  0  0  0
    5.1861   -4.0706    4.6658 C   0  0  2  0  0  0  0  0  0  0  0  0
    5.4951   -5.4896    4.0785 C   0  0  0  0  0  0  0  0  0  0  0  0
    5.5696   -5.5997    2.5402 C   0  0  0  0  0  0  0  0  0  0  0  0
    4.3886   -4.8325    1.9430 C   0  0  2  0  0  0  0  0  0  0  0  0
    4.0671   -5.0586    0.4460 C   0  0  1  0  0  0  0  0  0  0  0  0
    2.6365   -4.6414    0.1751 C   0  0  0  0  0  0  0  0  0  0  0  0
    3.2088   -3.2242    0.1229 C   0  0  2  0  0  0  0  0  0  0  0  0
    4.4697   -3.8635   -0.4303 C   0  0  2  0  0  0  0  0  0  0  0  0
    4.7234   -3.4904   -1.8558 C   0  0  0  0  0  0  0  0  0  0  0  0
    4.7135   -2.0334   -1.8105 O   0  0  0  0  0  0  0  0  0  0  0  0
    5.2063   -1.3070   -0.6362 C   0  0  0  0  0  0  0  0  0  0  0  0
    4.2676   -1.1342    0.6380 C   0  0  0  0  0  0  0  0  0  0  0  0
    3.5640   -2.3828    1.3205 C   0  0  1  0  0  0  0  0  0  0  0  0
    2.2598   -1.9058    1.9890 C   0  0  0  0  0  0  0  0  0  0  0  0
    4.4457   -3.2949    2.3045 C   0  0  1  0  0  0  0  0  0  0  0  0
    5.7774   -2.8255    2.1653 O   0  0  0  0  0  0  0  0  0  0  0  0
    5.8539   -4.5450    7.4111 H   0  0  0  0  0  0  0  0  0  0  0  0
    4.1017   -4.4192    7.9968 H   0  0  0  0  0  0  0  0  0  0  0  0
    4.4028   -2.1277    4.1127 H   0  0  0  0  0  0  0  0  0  0  0  0
    6.1196   -3.5555    4.8955 H   0  0  0  0  0  0  0  0  0  0  0  0
    6.4228   -5.8752    4.5046 H   0  0  0  0  0  0  0  0  0  0  0  0
    4.7150   -6.1809    4.4063 H   0  0  0  0  0  0  0  0  0  0  0  0
    6.5175   -5.2302    2.1516 H   0  0  0  0  0  0  0  0  0  0  0  0
    5.5129   -6.6496    2.2451 H   0  0  0  0  0  0  0  0  0  0  0  0
    3.5301   -5.2392    2.4716 H   0  0  0  0  0  0  0  0  0  0  0  0
    4.3036   -6.0359    0.0389 H   0  0  0  0  0  0  0  0  0  0  0  0
    2.2536   -5.0044   -0.7785 H   0  0  0  0  0  0  0  0  0  0  0  0
    1.9385   -4.8077    0.9960 H   0  0  0  0  0  0  0  0  0  0  0  0
    2.6429   -2.6793   -0.6330 H   0  0  0  0  0  0  0  0  0  0  0  0
    5.4143   -3.6551    0.0366 H   0  0  0  0  0  0  0  0  0  0  0  0
    5.6922   -3.8628   -2.1963 H   0  0  0  0  0  0  0  0  0  0  0  0
    3.9512   -3.8556   -2.5328 H   0  0  0  0  0  0  0  0  0  0  0  0
    6.2010   -1.6563   -0.3510 H   0  0  0  0  0  0  0  0  0  0  0  0
    5.3805   -0.2966   -1.0063 H   0  0  0  0  0  0  0  0  0  0  0  0
    4.7987   -0.5595    1.3943 H   0  0  0  0  0  0  0  0  0  0  0  0
    3.4766   -0.4615    0.3061 H   0  0  0  0  0  0  0  0  0  0  0  0
    2.4627   -1.2779    2.8553 H   0  0  0  0  0  0  0  0  0  0  0  0
    1.6480   -2.7477    2.3107 H   0  0  0  0  0  0  0  0  0  0  0  0
    1.6430   -1.3268    1.3004 H   0  0  0  0  0  0  0  0  0  0  0  0
    6.3095   -3.3234    2.7606 H   0  0  0  0  0  0  0  0  0  0  0  0
  1  2  2  0
  1 23  1  0
  1 24  1  0
  2  7  1  0
  2  3  1  0
  3  4  2  0
  3  5  1  0
  5  6  1  0
  6 21  1  0
  6  7  1  0
  6 25  1  1
  7  8  1  0
  7 26  1  1
  8  9  1  0
  8 27  1  0
  8 28  1  0
  9 10  1  0
  9 29  1  0
  9 30  1  0
 10 21  1  0
 10 11  1  0
 10 31  1  1
 11 14  1  0
 11 12  1  0
 11 32  1  6
 12 13  1  0
 12 33  1  0
 12 34  1  0
 13 19  1  0
 13 14  1  0
 13 35  1  6
 14 15  1  0
 14 36  1  1
 15 16  1  0
 15 37  1  0
 15 38  1  0
 16 17  1  0
 17 18  1  0
 17 39  1  0
 17 40  1  0
 18 19  1  0
 18 41  1  0
 18 42  1  0
 19 20  1  1
 19 21  1  0
 20 43  1  0
 20 44  1  0
 20 45  1  0
 21 22  1  1
 22 46  1  0
M  END
>  <i_m_ct_stereo_status>  (376) 
1

>  <s_m_source_file>  (376) 
/var/tmp/pbs.5076255.sched01/tmpyj7ipo08/120az4jmrmy.sdf

>  <i_m_source_file_index>  (376) 
37

>  <i_lp_mmshare_version>  (376) 
48012

>  <i_f3d_flags>  (376) 
0

>  <s_epik_input>  (376) 
Tz1DKE8xKUMoPVtDSDJdKVtDQEBIXShbQ0gyXVtDSDJdMilbQ0BIXTFbQ0BAXTMoW09IXSlbQ0BIXTJbQ0BASF0oW0NIMl00KVtDSF0oW0NAQEhdNFtDQEBdMzVbQ0gzXSlbQ0gyXU9bQ0gyXVtDSDJdNQ==

>  <s_epik_cmdline>  (376) 
J2VwaWtfcHl0aG9uJywgJy1waHQnLCAnMi4wJywgJy1waCcsICc3LjAnLCAnLXRuJywgJzgnLCAnLW1hJywgJzIwMCcsICctaW1hZScsICc8aW5maWxlLm1hZT4nLCAnLW9tYWUnLCAnPG91dGZpbGUubWFlPic=

>  <r_lp_tautomer_probability>  (376) 
1

>  <r_epik_Ionization_Penalty>  (376) 
4.43489e-08

>  <r_epik_Ionization_Penalty_Charging>  (376) 
0

>  <r_epik_Ionization_Penalty_Neutral>  (376) 
4.43489e-08

>  <r_epik_State_Penalty>  (376) 
-0

>  <r_epik_Charging_Adjusted_Penalty>  (376) 
0

>  <i_epik_Tot_Q>  (376) 
0

>  <i_epik_Tot_abs_Q>  (376) 
0

>  <s_epik_Chemistry_Notes>  (376) 
This compound has an ester and may undergo hydrolysis at high or low pH.

>  <s_lp_Force_Field>  (376) 
OPLS3e

>  <r_lp_Energy>  (376) 
101.386

>  <b_lp_Chiralities_Consistent>  (376) 
1

>  <s_lp_Variant>  (376) 
114:0-1

>  <s_i_glide_gridfile>  (376) 
pfpi4k_grid

>  <i_i_glide_lignum>  (376) 
37

>  <i_i_glide_rotatable_bonds>  (376) 
1

>  <r_i_docking_score>  (376) 
-2.40611

>  <r_i_glide_ligand_efficiency>  (376) 
-0.109369

>  <r_i_glide_ligand_efficiency_sa>  (376) 
-0.306456

>  <r_i_glide_ligand_efficiency_ln>  (376) 
-0.588142

>  <r_i_glide_gscore>  (376) 
-2.40611

>  <r_i_glide_lipo>  (376) 
-0.115142

>  <r_i_glide_hbond>  (376) 
0

>  <r_i_glide_metal>  (376) 
-0

>  <r_i_glide_rewards>  (376) 
-1.33377

>  <r_i_glide_evdw>  (376) 
-18.2656

>  <r_i_glide_ecoul>  (376) 
-0.292852

>  <r_i_glide_erotb>  (376) 
0

>  <r_i_glide_esite>  (376) 
0

>  <r_i_glide_emodel>  (376) 
-21.6953

>  <r_i_glide_energy>  (376) 
-18.5584

>  <r_i_glide_einternal>  (376) 
0.0220225

>  <r_i_glide_intrahb_reward>  (376) 
-0

>  <i_i_glide_confnum>  (376) 
2

>  <i_i_glide_posenum>  (376) 
31

>  <r_i_glide_eff_state_penalty>  (376) 
0

>  <ligand_id>  (376) 
114

>  <original_smiles>  (376) 
C=C1C(=O)OC2C1CCC1C3CC4C3COCCC4(C)C12O

>  <smiles>  (376) 
[H]OC12C3([H])OC(=O)C(=C([H])[H])C3([H])C([H])([H])C([H])([H])C1([H])C1([H])C([H])([H])C3([H])C1([H])C([H])([H])OC([H])([H])C([H])([H])C32C([H])([H])[H]

$$$$
114:1:0
     RDKit          3D

 46 50  0  0  1  0  0  0  0  0999 V2000
    2.2941   -0.5014   -4.7147 C   0  0  0  0  0  0  0  0  0  0  0  0
    3.0822   -0.8558   -3.6921 C   0  0  0  0  0  0  0  0  0  0  0  0
    3.9955    0.0679   -3.2254 C   0  0  0  0  0  0  0  0  0  0  0  0
    4.2075    1.1100   -3.8376 O   0  0  0  0  0  0  0  0  0  0  0  0
    4.4298   -0.3038   -2.0344 O   0  0  0  0  0  0  0  0  0  0  0  0
    3.6016   -1.3191   -1.4706 C   0  0  1  0  0  0  0  0  0  0  0  0
    3.0582   -2.0204   -2.7512 C   0  0  2  0  0  0  0  0  0  0  0  0
    3.9872   -3.1050   -3.3502 C   0  0  0  0  0  0  0  0  0  0  0  0
    4.8130   -3.8919   -2.3343 C   0  0  0  0  0  0  0  0  0  0  0  0
    5.3966   -2.9729   -1.2862 C   0  0  2  0  0  0  0  0  0  0  0  0
    6.5325   -3.5086   -0.4045 C   0  0  1  0  0  0  0  0  0  0  0  0
    7.3221   -2.3518    0.1988 C   0  0  0  0  0  0  0  0  0  0  0  0
    6.1994   -2.3792    1.2443 C   0  0  2  0  0  0  0  0  0  0  0  0
    6.2723   -3.8887    1.0596 C   0  0  1  0  0  0  0  0  0  0  0  0
    5.1298   -4.7813    1.5262 C   0  0  0  0  0  0  0  0  0  0  0  0
    4.6279   -4.2549    2.7502 O   0  0  0  0  0  0  0  0  0  0  0  0
    3.5409   -3.3371    2.6360 C   0  0  0  0  0  0  0  0  0  0  0  0
    3.9013   -1.9065    2.1487 C   0  0  0  0  0  0  0  0  0  0  0  0
    4.8436   -1.7018    0.9156 C   0  0  1  0  0  0  0  0  0  0  0  0
    5.1083   -0.1957    0.8622 C   0  0  0  0  0  0  0  0  0  0  0  0
    4.2969   -2.2524   -0.4727 C   0  0  1  0  0  0  0  0  0  0  0  0
    3.1987   -3.0953   -0.2024 O   0  0  0  0  0  0  0  0  0  0  0  0
    1.4546   -1.1123   -4.9007 H   0  0  0  0  0  0  0  0  0  0  0  0
    2.3522    0.4291   -5.2448 H   0  0  0  0  0  0  0  0  0  0  0  0
    2.7889   -0.8267   -0.9447 H   0  0  0  0  0  0  0  0  0  0  0  0
    2.0483   -2.3982   -2.5895 H   0  0  0  0  0  0  0  0  0  0  0  0
    3.3947   -3.7785   -3.9714 H   0  0  0  0  0  0  0  0  0  0  0  0
    4.7046   -2.6284   -4.0219 H   0  0  0  0  0  0  0  0  0  0  0  0
    4.2165   -4.6130   -1.8174 H   0  0  0  0  0  0  0  0  0  0  0  0
    5.5869   -4.4397   -2.8642 H   0  0  0  0  0  0  0  0  0  0  0  0
    5.8886   -2.2306   -1.8969 H   0  0  0  0  0  0  0  0  0  0  0  0
    7.2069   -4.1913   -0.8966 H   0  0  0  0  0  0  0  0  0  0  0  0
    8.3308   -2.6315    0.5563 H   0  0  0  0  0  0  0  0  0  0  0  0
    7.3418   -1.4637   -0.4204 H   0  0  0  0  0  0  0  0  0  0  0  0
    6.5724   -2.0815    2.2078 H   0  0  0  0  0  0  0  0  0  0  0  0
    7.2084   -4.2562    1.5014 H   0  0  0  0  0  0  0  0  0  0  0  0
    4.3649   -4.9276    0.7651 H   0  0  0  0  0  0  0  0  0  0  0  0
    5.4996   -5.7867    1.7249 H   0  0  0  0  0  0  0  0  0  0  0  0
    2.7178   -3.7746    2.0703 H   0  0  0  0  0  0  0  0  0  0  0  0
    3.1309   -3.2322    3.6411 H   0  0  0  0  0  0  0  0  0  0  0  0
    2.9728   -1.3667    1.9608 H   0  0  0  0  0  0  0  0  0  0  0  0
    4.3470   -1.3946    3.0034 H   0  0  0  0  0  0  0  0  0  0  0  0
    4.1987    0.3723    0.6624 H   0  0  0  0  0  0  0  0  0  0  0  0
    5.8244    0.0733    0.0925 H   0  0  0  0  0  0  0  0  0  0  0  0
    5.5296    0.1668    1.7984 H   0  0  0  0  0  0  0  0  0  0  0  0
    2.4126   -2.5497   -0.2351 H   0  0  0  0  0  0  0  0  0  0  0  0
  1  2  2  0
  1 23  1  0
  1 24  1  0
  2  7  1  0
  2  3  1  0
  3  4  2  0
  3  5  1  0
  5  6  1  0
  6 21  1  0
  6  7  1  0
  6 25  1  1
  7  8  1  0
  7 26  1  1
  8  9  1  0
  8 27  1  0
  8 28  1  0
  9 10  1  0
  9 29  1  0
  9 30  1  0
 10 21  1  0
 10 11  1  0
 10 31  1  6
 11 14  1  0
 11 12  1  0
 11 32  1  6
 12 13  1  0
 12 33  1  0
 12 34  1  0
 13 19  1  0
 13 14  1  0
 13 35  1  1
 14 15  1  0
 14 36  1  1
 15 16  1  0
 15 37  1  0
 15 38  1  0
 16 17  1  0
 17 18  1  0
 17 39  1  0
 17 40  1  0
 18 19  1  0
 18 41  1  0
 18 42  1  0
 19 20  1  6
 19 21  1  0
 20 43  1  0
 20 44  1  0
 20 45  1  0
 21 22  1  1
 22 46  1  0
M  END
>  <i_m_ct_stereo_status>  (377) 
1

>  <s_m_source_file>  (377) 
/var/tmp/pbs.5076255.sched01/tmpyj7ipo08/120az4jmrmy.sdf

>  <i_m_source_file_index>  (377) 
38

>  <i_lp_mmshare_version>  (377) 
48012

>  <i_f3d_flags>  (377) 
0

>  <s_epik_input>  (377) 
Tz1DKE8xKUMoPVtDSDJdKVtDQEBIXShbQ0gyXVtDSDJdMilbQ0BIXTFbQ0BAXTMoW09IXSlbQ0BIXTJbQ0BASF0oW0NIMl00KVtDSF0oW0NAQEhdNFtDQEBdMzVbQ0gzXSlbQ0gyXU9bQ0gyXVtDSDJdNQ==

>  <s_epik_cmdline>  (377) 
J2VwaWtfcHl0aG9uJywgJy1waHQnLCAnMi4wJywgJy1waCcsICc3LjAnLCAnLXRuJywgJzgnLCAnLW1hJywgJzIwMCcsICctaW1hZScsICc8aW5maWxlLm1hZT4nLCAnLW9tYWUnLCAnPG91dGZpbGUubWFlPic=

>  <r_lp_tautomer_probability>  (377) 
1

>  <r_epik_Ionization_Penalty>  (377) 
4.43489e-08

>  <r_epik_Ionization_Penalty_Charging>  (377) 
0

>  <r_epik_Ionization_Penalty_Neutral>  (377) 
4.43489e-08

>  <r_epik_State_Penalty>  (377) 
-0

>  <r_epik_Charging_Adjusted_Penalty>  (377) 
0

>  <i_epik_Tot_Q>  (377) 
0

>  <i_epik_Tot_abs_Q>  (377) 
0

>  <s_epik_Chemistry_Notes>  (377) 
This compound has an ester and may undergo hydrolysis at high or low pH.

>  <s_lp_Force_Field>  (377) 
OPLS3e

>  <r_lp_Energy>  (377) 
72.8323

>  <b_lp_Chiralities_Consistent>  (377) 
1

>  <s_lp_Variant>  (377) 
114:0-2

>  <s_i_glide_gridfile>  (377) 
pfpi4k_grid

>  <i_i_glide_lignum>  (377) 
38

>  <i_i_glide_rotatable_bonds>  (377) 
1

>  <r_i_docking_score>  (377) 
-2.9672

>  <r_i_glide_ligand_efficiency>  (377) 
-0.134873

>  <r_i_glide_ligand_efficiency_sa>  (377) 
-0.377918

>  <r_i_glide_ligand_efficiency_ln>  (377) 
-0.725291

>  <r_i_glide_gscore>  (377) 
-2.9672

>  <r_i_glide_lipo>  (377) 
-1.05373

>  <r_i_glide_hbond>  (377) 
0

>  <r_i_glide_metal>  (377) 
-0

>  <r_i_glide_rewards>  (377) 
-1.42516

>  <r_i_glide_evdw>  (377) 
-4.16333

>  <r_i_glide_ecoul>  (377) 
-1.86757

>  <r_i_glide_erotb>  (377) 
0

>  <r_i_glide_esite>  (377) 
0

>  <r_i_glide_emodel>  (377) 
-4.29598

>  <r_i_glide_energy>  (377) 
-6.03091

>  <r_i_glide_einternal>  (377) 
0.53556

>  <r_i_glide_intrahb_reward>  (377) 
-0

>  <i_i_glide_confnum>  (377) 
2

>  <i_i_glide_posenum>  (377) 
7

>  <r_i_glide_eff_state_penalty>  (377) 
0

>  <ligand_id>  (377) 
114

>  <original_smiles>  (377) 
C=C1C(=O)OC2C1CCC1C3CC4C3COCCC4(C)C12O

>  <smiles>  (377) 
[H]OC12C3([H])OC(=O)C(=C([H])[H])C3([H])C([H])([H])C([H])([H])C1([H])C1([H])C([H])([H])C3([H])C1([H])C([H])([H])OC([H])([H])C([H])([H])C32C([H])([H])[H]

$$$$
114:1:1
     RDKit          3D

 46 50  0  0  1  0  0  0  0  0999 V2000
    2.5913   -2.6328   -4.2074 C   0  0  0  0  0  0  0  0  0  0  0  0
    3.2979   -2.9697   -3.0954 C   0  0  0  0  0  0  0  0  0  0  0  0
    4.5592   -3.5809   -3.1793 C   0  0  0  0  0  0  0  0  0  0  0  0
    5.0443   -4.1184   -4.2009 O   0  0  0  0  0  0  0  0  0  0  0  0
    5.1178   -3.5116   -1.9697 O   0  0  0  0  0  0  0  0  0  0  0  0
    4.3833   -2.6409   -1.1110 C   0  0  1  0  0  0  0  0  0  0  0  0
    2.9707   -2.6545   -1.7181 C   0  0  2  0  0  0  0  0  0  0  0  0
    1.9552   -3.7308   -1.2059 C   0  0  0  0  0  0  0  0  0  0  0  0
    2.2277   -4.1659    0.2502 C   0  0  0  0  0  0  0  0  0  0  0  0
    3.6517   -4.3478    0.5252 C   0  0  2  0  0  0  0  0  0  0  0  0
    3.8976   -5.0385    1.8766 C   0  0  1  0  0  0  0  0  0  0  0  0
    5.3280   -5.5317    1.8107 C   0  0  0  0  0  0  0  0  0  0  0  0
    5.6696   -4.1156    2.2690 C   0  0  2  0  0  0  0  0  0  0  0  0
    4.4102   -4.2512    3.1036 C   0  0  1  0  0  0  0  0  0  0  0  0
    3.7140   -3.0119    3.6868 C   0  0  0  0  0  0  0  0  0  0  0  0
    4.7183   -2.0876    4.0891 O   0  0  0  0  0  0  0  0  0  0  0  0
    5.0793   -1.1182    3.1084 C   0  0  0  0  0  0  0  0  0  0  0  0
    5.9721   -1.5884    1.9244 C   0  0  0  0  0  0  0  0  0  0  0  0
    5.7050   -2.9605    1.2137 C   0  0  1  0  0  0  0  0  0  0  0  0
    6.8943   -3.2166    0.2812 C   0  0  0  0  0  0  0  0  0  0  0  0
    4.3533   -2.9656    0.4029 C   0  0  1  0  0  0  0  0  0  0  0  0
    3.5652   -1.8502    0.8164 O   0  0  0  0  0  0  0  0  0  0  0  0
    1.6560   -2.1118   -4.2052 H   0  0  0  0  0  0  0  0  0  0  0  0
    3.0507   -2.9363   -5.1169 H   0  0  0  0  0  0  0  0  0  0  0  0
    4.7853   -1.6398   -1.2485 H   0  0  0  0  0  0  0  0  0  0  0  0
    2.5886   -1.6296   -1.7157 H   0  0  0  0  0  0  0  0  0  0  0  0
    0.9280   -3.3738   -1.3542 H   0  0  0  0  0  0  0  0  0  0  0  0
    1.9190   -4.6466   -1.7940 H   0  0  0  0  0  0  0  0  0  0  0  0
    1.8778   -3.4227    0.9526 H   0  0  0  0  0  0  0  0  0  0  0  0
    1.6661   -5.0849    0.4487 H   0  0  0  0  0  0  0  0  0  0  0  0
    3.9783   -5.0273   -0.2515 H   0  0  0  0  0  0  0  0  0  0  0  0
    3.1924   -5.8281    2.1384 H   0  0  0  0  0  0  0  0  0  0  0  0
    5.5535   -6.3196    2.5405 H   0  0  0  0  0  0  0  0  0  0  0  0
    5.6717   -5.8207    0.8229 H   0  0  0  0  0  0  0  0  0  0  0  0
    6.6003   -4.1829    2.8777 H   0  0  0  0  0  0  0  0  0  0  0  0
    4.5952   -4.9464    3.9409 H   0  0  0  0  0  0  0  0  0  0  0  0
    2.9642   -2.5729    3.0364 H   0  0  0  0  0  0  0  0  0  0  0  0
    3.1456   -3.2871    4.5715 H   0  0  0  0  0  0  0  0  0  0  0  0
    4.2007   -0.5635    2.7765 H   0  0  0  0  0  0  0  0  0  0  0  0
    5.6555   -0.3666    3.6481 H   0  0  0  0  0  0  0  0  0  0  0  0
    6.0269   -0.7939    1.1820 H   0  0  0  0  0  0  0  0  0  0  0  0
    6.9777   -1.6425    2.3101 H   0  0  0  0  0  0  0  0  0  0  0  0
    6.9927   -2.4276   -0.4681 H   0  0  0  0  0  0  0  0  0  0  0  0
    6.8000   -4.1727   -0.2450 H   0  0  0  0  0  0  0  0  0  0  0  0
    7.8217   -3.2572    0.8499 H   0  0  0  0  0  0  0  0  0  0  0  0
    2.7864   -1.7853    0.2767 H   0  0  0  0  0  0  0  0  0  0  0  0
  1  2  2  0
  1 23  1  0
  1 24  1  0
  2  7  1  0
  2  3  1  0
  3  4  2  0
  3  5  1  0
  5  6  1  0
  6 21  1  0
  6  7  1  0
  6 25  1  1
  7  8  1  0
  7 26  1  6
  8  9  1  0
  8 27  1  0
  8 28  1  0
  9 10  1  0
  9 29  1  0
  9 30  1  0
 10 21  1  0
 10 11  1  0
 10 31  1  6
 11 14  1  0
 11 12  1  0
 11 32  1  1
 12 13  1  0
 12 33  1  0
 12 34  1  0
 13 19  1  0
 13 14  1  0
 13 35  1  1
 14 15  1  0
 14 36  1  1
 15 16  1  0
 15 37  1  0
 15 38  1  0
 16 17  1  0
 17 18  1  0
 17 39  1  0
 17 40  1  0
 18 19  1  0
 18 41  1  0
 18 42  1  0
 19 20  1  6
 19 21  1  0
 20 43  1  0
 20 44  1  0
 20 45  1  0
 21 22  1  1
 22 46  1  0
M  END
>  <i_m_ct_stereo_status>  (378) 
1

>  <s_m_source_file>  (378) 
/var/tmp/pbs.5076255.sched01/tmpyj7ipo08/120az4jmrmy.sdf

>  <i_m_source_file_index>  (378) 
38

>  <i_lp_mmshare_version>  (378) 
48012

>  <i_f3d_flags>  (378) 
0

>  <s_epik_input>  (378) 
Tz1DKE8xKUMoPVtDSDJdKVtDQEBIXShbQ0gyXVtDSDJdMilbQ0BIXTFbQ0BAXTMoW09IXSlbQ0BIXTJbQ0BASF0oW0NIMl00KVtDSF0oW0NAQEhdNFtDQEBdMzVbQ0gzXSlbQ0gyXU9bQ0gyXVtDSDJdNQ==

>  <s_epik_cmdline>  (378) 
J2VwaWtfcHl0aG9uJywgJy1waHQnLCAnMi4wJywgJy1waCcsICc3LjAnLCAnLXRuJywgJzgnLCAnLW1hJywgJzIwMCcsICctaW1hZScsICc8aW5maWxlLm1hZT4nLCAnLW9tYWUnLCAnPG91dGZpbGUubWFlPic=

>  <r_lp_tautomer_probability>  (378) 
1

>  <r_epik_Ionization_Penalty>  (378) 
4.43489e-08

>  <r_epik_Ionization_Penalty_Charging>  (378) 
0

>  <r_epik_Ionization_Penalty_Neutral>  (378) 
4.43489e-08

>  <r_epik_State_Penalty>  (378) 
-0

>  <r_epik_Charging_Adjusted_Penalty>  (378) 
0

>  <i_epik_Tot_Q>  (378) 
0

>  <i_epik_Tot_abs_Q>  (378) 
0

>  <s_epik_Chemistry_Notes>  (378) 
This compound has an ester and may undergo hydrolysis at high or low pH.

>  <s_lp_Force_Field>  (378) 
OPLS3e

>  <r_lp_Energy>  (378) 
72.8323

>  <b_lp_Chiralities_Consistent>  (378) 
1

>  <s_lp_Variant>  (378) 
114:0-2

>  <s_i_glide_gridfile>  (378) 
pfpi4k_grid

>  <i_i_glide_lignum>  (378) 
38

>  <i_i_glide_rotatable_bonds>  (378) 
1

>  <r_i_docking_score>  (378) 
-2.92453

>  <r_i_glide_ligand_efficiency>  (378) 
-0.132933

>  <r_i_glide_ligand_efficiency_sa>  (378) 
-0.372484

>  <r_i_glide_ligand_efficiency_ln>  (378) 
-0.714861

>  <r_i_glide_gscore>  (378) 
-2.92453

>  <r_i_glide_lipo>  (378) 
-0.617088

>  <r_i_glide_hbond>  (378) 
0

>  <r_i_glide_metal>  (378) 
-0

>  <r_i_glide_rewards>  (378) 
-1.43244

>  <r_i_glide_evdw>  (378) 
-9.08252

>  <r_i_glide_ecoul>  (378) 
-2.80586

>  <r_i_glide_erotb>  (378) 
0

>  <r_i_glide_esite>  (378) 
0

>  <r_i_glide_emodel>  (378) 
-11.6214

>  <r_i_glide_energy>  (378) 
-11.8884

>  <r_i_glide_einternal>  (378) 
0.058044

>  <r_i_glide_intrahb_reward>  (378) 
-0

>  <i_i_glide_confnum>  (378) 
2

>  <i_i_glide_posenum>  (378) 
4

>  <r_i_glide_eff_state_penalty>  (378) 
0

>  <ligand_id>  (378) 
114

>  <original_smiles>  (378) 
C=C1C(=O)OC2C1CCC1C3CC4C3COCCC4(C)C12O

>  <smiles>  (378) 
[H]OC12C3([H])OC(=O)C(=C([H])[H])C3([H])C([H])([H])C([H])([H])C1([H])C1([H])C([H])([H])C3([H])C1([H])C([H])([H])OC([H])([H])C([H])([H])C32C([H])([H])[H]

$$$$
114:1:2
     RDKit          3D

 46 50  0  0  1  0  0  0  0  0999 V2000
    2.7520   -2.9646   -4.2001 C   0  0  0  0  0  0  0  0  0  0  0  0
    3.4077   -2.9947   -3.0190 C   0  0  0  0  0  0  0  0  0  0  0  0
    4.7830   -3.3444   -2.8916 C   0  0  0  0  0  0  0  0  0  0  0  0
    5.4469   -3.8604   -3.7892 O   0  0  0  0  0  0  0  0  0  0  0  0
    5.2215   -2.9656   -1.6901 O   0  0  0  0  0  0  0  0  0  0  0  0
    4.2583   -2.1346   -1.0331 C   0  0  1  0  0  0  0  0  0  0  0  0
    2.9181   -2.5577   -1.7031 C   0  0  2  0  0  0  0  0  0  0  0  0
    2.0960   -3.6946   -1.0020 C   0  0  0  0  0  0  0  0  0  0  0  0
    2.2156   -3.8319    0.5343 C   0  0  0  0  0  0  0  0  0  0  0  0
    3.6751   -3.6671    0.8689 C   0  0  2  0  0  0  0  0  0  0  0  0
    4.0849   -4.1047    2.2812 C   0  0  1  0  0  0  0  0  0  0  0  0
    5.6030   -4.2940    2.3210 C   0  0  0  0  0  0  0  0  0  0  0  0
    5.5990   -2.7750    2.5420 C   0  0  2  0  0  0  0  0  0  0  0  0
    4.3582   -3.0577    3.3752 C   0  0  1  0  0  0  0  0  0  0  0  0
    3.4324   -1.9154    3.7573 C   0  0  0  0  0  0  0  0  0  0  0  0
    4.2176   -0.7706    4.0448 O   0  0  0  0  0  0  0  0  0  0  0  0
    4.4427    0.0856    2.9349 C   0  0  0  0  0  0  0  0  0  0  0  0
    5.4896   -0.3906    1.8844 C   0  0  0  0  0  0  0  0  0  0  0  0
    5.4824   -1.8438    1.3317 C   0  0  1  0  0  0  0  0  0  0  0  0
    6.7831   -1.9721    0.4922 C   0  0  0  0  0  0  0  0  0  0  0  0
    4.1921   -2.2326    0.5069 C   0  0  1  0  0  0  0  0  0  0  0  0
    3.1996   -1.2411    0.7455 O   0  0  0  0  0  0  0  0  0  0  0  0
    1.7292   -2.6278   -4.2538 H   0  0  0  0  0  0  0  0  0  0  0  0
    3.2646   -3.2216   -5.1172 H   0  0  0  0  0  0  0  0  0  0  0  0
    4.5017   -1.1028   -1.3117 H   0  0  0  0  0  0  0  0  0  0  0  0
    2.3065   -1.6889   -1.9407 H   0  0  0  0  0  0  0  0  0  0  0  0
    1.0613   -3.6119   -1.3151 H   0  0  0  0  0  0  0  0  0  0  0  0
    2.4376   -4.6439   -1.3998 H   0  0  0  0  0  0  0  0  0  0  0  0
    1.6786   -3.0496    1.0925 H   0  0  0  0  0  0  0  0  0  0  0  0
    1.8739   -4.8335    0.8419 H   0  0  0  0  0  0  0  0  0  0  0  0
    4.2178   -4.3642    0.2151 H   0  0  0  0  0  0  0  0  0  0  0  0
    3.5809   -4.9825    2.6736 H   0  0  0  0  0  0  0  0  0  0  0  0
    5.9726   -4.8622    3.1778 H   0  0  0  0  0  0  0  0  0  0  0  0
    6.0781   -4.6354    1.4014 H   0  0  0  0  0  0  0  0  0  0  0  0
    6.3532   -2.3996    3.1930 H   0  0  0  0  0  0  0  0  0  0  0  0
    4.6947   -3.5438    4.2969 H   0  0  0  0  0  0  0  0  0  0  0  0
    2.6616   -1.7235    3.0185 H   0  0  0  0  0  0  0  0  0  0  0  0
    2.8869   -2.1574    4.6674 H   0  0  0  0  0  0  0  0  0  0  0  0
    3.5135    0.4240    2.4745 H   0  0  0  0  0  0  0  0  0  0  0  0
    4.8346    0.9805    3.4059 H   0  0  0  0  0  0  0  0  0  0  0  0
    5.4964    0.3181    1.0497 H   0  0  0  0  0  0  0  0  0  0  0  0
    6.4510   -0.2876    2.3827 H   0  0  0  0  0  0  0  0  0  0  0  0
    6.7707   -1.2938   -0.3637 H   0  0  0  0  0  0  0  0  0  0  0  0
    6.9321   -2.9884    0.1279 H   0  0  0  0  0  0  0  0  0  0  0  0
    7.6688   -1.7199    1.0746 H   0  0  0  0  0  0  0  0  0  0  0  0
    2.4551   -1.3992    0.1695 H   0  0  0  0  0  0  0  0  0  0  0  0
  1  2  2  0
  1 23  1  0
  1 24  1  0
  2  7  1  0
  2  3  1  0
  3  4  2  0
  3  5  1  0
  5  6  1  0
  6 21  1  0
  6  7  1  0
  6 25  1  1
  7  8  1  0
  7 26  1  6
  8  9  1  0
  8 27  1  0
  8 28  1  0
  9 10  1  0
  9 29  1  0
  9 30  1  0
 10 21  1  0
 10 11  1  0
 10 31  1  6
 11 14  1  0
 11 12  1  0
 11 32  1  1
 12 13  1  0
 12 33  1  0
 12 34  1  0
 13 19  1  0
 13 14  1  0
 13 35  1  1
 14 15  1  0
 14 36  1  1
 15 16  1  0
 15 37  1  0
 15 38  1  0
 16 17  1  0
 17 18  1  0
 17 39  1  0
 17 40  1  0
 18 19  1  0
 18 41  1  0
 18 42  1  0
 19 20  1  6
 19 21  1  0
 20 43  1  0
 20 44  1  0
 20 45  1  0
 21 22  1  1
 22 46  1  0
M  END
>  <i_m_ct_stereo_status>  (379) 
1

>  <s_m_source_file>  (379) 
/var/tmp/pbs.5076255.sched01/tmpyj7ipo08/120az4jmrmy.sdf

>  <i_m_source_file_index>  (379) 
38

>  <i_lp_mmshare_version>  (379) 
48012

>  <i_f3d_flags>  (379) 
0

>  <s_epik_input>  (379) 
Tz1DKE8xKUMoPVtDSDJdKVtDQEBIXShbQ0gyXVtDSDJdMilbQ0BIXTFbQ0BAXTMoW09IXSlbQ0BIXTJbQ0BASF0oW0NIMl00KVtDSF0oW0NAQEhdNFtDQEBdMzVbQ0gzXSlbQ0gyXU9bQ0gyXVtDSDJdNQ==

>  <s_epik_cmdline>  (379) 
J2VwaWtfcHl0aG9uJywgJy1waHQnLCAnMi4wJywgJy1waCcsICc3LjAnLCAnLXRuJywgJzgnLCAnLW1hJywgJzIwMCcsICctaW1hZScsICc8aW5maWxlLm1hZT4nLCAnLW9tYWUnLCAnPG91dGZpbGUubWFlPic=

>  <r_lp_tautomer_probability>  (379) 
1

>  <r_epik_Ionization_Penalty>  (379) 
4.43489e-08

>  <r_epik_Ionization_Penalty_Charging>  (379) 
0

>  <r_epik_Ionization_Penalty_Neutral>  (379) 
4.43489e-08

>  <r_epik_State_Penalty>  (379) 
-0

>  <r_epik_Charging_Adjusted_Penalty>  (379) 
0

>  <i_epik_Tot_Q>  (379) 
0

>  <i_epik_Tot_abs_Q>  (379) 
0

>  <s_epik_Chemistry_Notes>  (379) 
This compound has an ester and may undergo hydrolysis at high or low pH.

>  <s_lp_Force_Field>  (379) 
OPLS3e

>  <r_lp_Energy>  (379) 
72.8323

>  <b_lp_Chiralities_Consistent>  (379) 
1

>  <s_lp_Variant>  (379) 
114:0-2

>  <s_i_glide_gridfile>  (379) 
pfpi4k_grid

>  <i_i_glide_lignum>  (379) 
38

>  <i_i_glide_rotatable_bonds>  (379) 
1

>  <r_i_docking_score>  (379) 
-2.6467

>  <r_i_glide_ligand_efficiency>  (379) 
-0.120305

>  <r_i_glide_ligand_efficiency_sa>  (379) 
-0.337098

>  <r_i_glide_ligand_efficiency_ln>  (379) 
-0.64695

>  <r_i_glide_gscore>  (379) 
-2.6467

>  <r_i_glide_lipo>  (379) 
-0.367685

>  <r_i_glide_hbond>  (379) 
0

>  <r_i_glide_metal>  (379) 
-0

>  <r_i_glide_rewards>  (379) 
-1.53241

>  <r_i_glide_evdw>  (379) 
-4.25343

>  <r_i_glide_ecoul>  (379) 
-3.55956

>  <r_i_glide_erotb>  (379) 
0

>  <r_i_glide_esite>  (379) 
0

>  <r_i_glide_emodel>  (379) 
-8.58882

>  <r_i_glide_energy>  (379) 
-7.81299

>  <r_i_glide_einternal>  (379) 
0.0395079

>  <r_i_glide_intrahb_reward>  (379) 
-0

>  <i_i_glide_confnum>  (379) 
2

>  <i_i_glide_posenum>  (379) 
35

>  <r_i_glide_eff_state_penalty>  (379) 
0

>  <ligand_id>  (379) 
114

>  <original_smiles>  (379) 
C=C1C(=O)OC2C1CCC1C3CC4C3COCCC4(C)C12O

>  <smiles>  (379) 
[H]OC12C3([H])OC(=O)C(=C([H])[H])C3([H])C([H])([H])C([H])([H])C1([H])C1([H])C([H])([H])C3([H])C1([H])C([H])([H])OC([H])([H])C([H])([H])C32C([H])([H])[H]

$$$$
115:0:0
     RDKit          3D

 75 81  0  0  1  0  0  0  0  0999 V2000
    8.2522   -4.5594    0.8527 C   0  0  0  0  0  0  0  0  0  0  0  0
    7.1889   -3.7505    0.6614 C   0  0  0  0  0  0  0  0  0  0  0  0
    7.1997   -2.6551   -0.3778 C   0  0  0  0  0  0  0  0  0  0  0  0
    5.7894   -2.0442   -0.2636 C   0  0  1  0  0  0  0  0  0  0  0  0
    5.0071   -2.1240   -1.5568 C   0  0  0  0  0  0  0  0  0  0  0  0
    4.3085   -1.0740   -2.2309 C   0  0  0  0  0  0  0  0  0  0  0  0
    3.7233   -1.6422   -3.3209 C   0  0  0  0  0  0  0  0  0  0  0  0
    4.0138   -2.9670   -3.3888 O   0  0  0  0  0  0  0  0  0  0  0  0
    4.7769   -3.2406   -2.3044 C   0  0  0  0  0  0  0  0  0  0  0  0
    5.1456   -2.8210    0.8750 C   0  0  0  0  0  0  0  0  0  0  0  0
    3.7385   -2.4070    1.2833 C   0  0  0  0  0  0  0  0  0  0  0  0
    5.9203   -3.8167    1.3705 C   0  0  0  0  0  0  0  0  0  0  0  0
    5.5414   -4.7308    2.5544 C   0  0  2  0  0  0  0  0  0  0  0  0
    6.6778   -5.3631    3.2296 O   0  0  0  0  0  0  0  0  0  0  0  0
    5.8400   -6.5088    3.4427 C   0  0  2  0  0  0  0  0  0  0  0  0
    6.3181   -7.9444    3.4462 C   0  0  0  0  0  0  0  0  0  0  0  0
    5.1406   -8.8787    2.9846 C   0  0  0  0  0  0  0  0  0  0  0  0
    3.6666   -8.2811    2.8645 C   0  0  2  0  0  0  0  0  0  0  0  0
    2.8563   -9.1277    1.8662 C   0  0  1  0  0  0  0  0  0  0  0  0
    3.0018  -10.5110    2.0998 O   0  0  0  0  0  0  0  0  0  0  0  0
    1.4204   -8.6993    2.1617 C   0  0  0  0  0  0  0  0  0  0  0  0
    1.4591   -8.0242    3.5562 C   0  0  2  0  0  0  0  0  0  0  0  0
    1.3307   -6.5530    3.7273 C   0  0  2  0  0  0  0  0  0  0  0  0
    2.6607   -5.8424    3.2589 C   0  0  0  0  0  0  0  0  0  0  0  0
    3.5990   -6.7105    2.3259 C   0  0  2  0  0  0  0  0  0  0  0  0
    3.0243   -6.3944    0.9013 C   0  0  0  0  0  0  0  0  0  0  0  0
    5.0410   -6.1525    2.2315 C   0  0  1  0  0  0  0  0  0  0  0  0
    5.6222   -6.6638    1.0476 O   0  0  0  0  0  0  0  0  0  0  0  0
    0.9179   -6.3917    5.2489 C   0  0  1  0  0  0  0  0  0  0  0  0
   -0.3152   -5.7114    5.2835 O   0  0  0  0  0  0  0  0  0  0  0  0
    0.8125   -7.6265    6.2881 C   0  0  0  0  0  0  0  0  0  0  0  0
    1.1274   -9.1809    6.0116 C   0  0  0  0  0  0  0  0  0  0  0  0
    2.2573   -9.6554    4.9836 C   0  0  0  0  0  0  0  0  0  0  0  0
    2.8113   -8.4287    4.2217 C   0  0  1  0  0  0  0  0  0  0  0  0
    3.5942   -7.7661    5.4322 C   0  0  0  0  0  0  0  0  0  0  0  0
    8.2680   -5.3460    1.5822 H   0  0  0  0  0  0  0  0  0  0  0  0
    9.1415   -4.4226    0.2669 H   0  0  0  0  0  0  0  0  0  0  0  0
    7.9737   -1.9228   -0.1542 H   0  0  0  0  0  0  0  0  0  0  0  0
    7.4034   -3.0698   -1.3630 H   0  0  0  0  0  0  0  0  0  0  0  0
    5.8658   -0.9966    0.0344 H   0  0  0  0  0  0  0  0  0  0  0  0
    4.2227   -0.0355   -1.9444 H   0  0  0  0  0  0  0  0  0  0  0  0
    3.0860   -1.2753   -4.1132 H   0  0  0  0  0  0  0  0  0  0  0  0
    5.0695   -4.2748   -2.1956 H   0  0  0  0  0  0  0  0  0  0  0  0
    3.7040   -1.3292    1.4525 H   0  0  0  0  0  0  0  0  0  0  0  0
    3.3833   -2.9091    2.1775 H   0  0  0  0  0  0  0  0  0  0  0  0
    3.0485   -2.6169    0.4652 H   0  0  0  0  0  0  0  0  0  0  0  0
    4.9066   -4.2039    3.2687 H   0  0  0  0  0  0  0  0  0  0  0  0
    5.2919   -6.3046    4.3466 H   0  0  0  0  0  0  0  0  0  0  0  0
    7.1517   -8.0896    2.7563 H   0  0  0  0  0  0  0  0  0  0  0  0
    6.7101   -8.2380    4.4248 H   0  0  0  0  0  0  0  0  0  0  0  0
    5.4233   -9.2932    2.0080 H   0  0  0  0  0  0  0  0  0  0  0  0
    5.1125   -9.7417    3.6497 H   0  0  0  0  0  0  0  0  0  0  0  0
    3.1359   -8.9965    0.8288 H   0  0  0  0  0  0  0  0  0  0  0  0
    3.4892  -10.9471    1.4031 H   0  0  0  0  0  0  0  0  0  0  0  0
    0.9757   -8.0741    1.3938 H   0  0  0  0  0  0  0  0  0  0  0  0
    0.7763   -9.5836    2.1761 H   0  0  0  0  0  0  0  0  0  0  0  0
    0.5094   -8.4129    3.9211 H   0  0  0  0  0  0  0  0  0  0  0  0
    0.5101   -6.2233    3.0787 H   0  0  0  0  0  0  0  0  0  0  0  0
    2.3581   -4.9509    2.7209 H   0  0  0  0  0  0  0  0  0  0  0  0
    3.2084   -5.3936    4.0874 H   0  0  0  0  0  0  0  0  0  0  0  0
    3.3125   -5.3906    0.5889 H   0  0  0  0  0  0  0  0  0  0  0  0
    1.9455   -6.3833    0.8334 H   0  0  0  0  0  0  0  0  0  0  0  0
    3.4210   -7.0304    0.1162 H   0  0  0  0  0  0  0  0  0  0  0  0
    6.5565   -6.5531    1.1585 H   0  0  0  0  0  0  0  0  0  0  0  0
    1.6066   -5.6718    5.6925 H   0  0  0  0  0  0  0  0  0  0  0  0
   -0.1799   -4.8566    4.8967 H   0  0  0  0  0  0  0  0  0  0  0  0
    1.4222   -7.3332    7.1436 H   0  0  0  0  0  0  0  0  0  0  0  0
   -0.1866   -7.6041    6.7194 H   0  0  0  0  0  0  0  0  0  0  0  0
    1.3202   -9.6587    6.9729 H   0  0  0  0  0  0  0  0  0  0  0  0
    0.1872   -9.6408    5.7019 H   0  0  0  0  0  0  0  0  0  0  0  0
    3.0470  -10.1892    5.5143 H   0  0  0  0  0  0  0  0  0  0  0  0
    1.8167  -10.4059    4.3276 H   0  0  0  0  0  0  0  0  0  0  0  0
    3.3139   -8.1126    6.4236 H   0  0  0  0  0  0  0  0  0  0  0  0
    3.5750   -6.6957    5.5379 H   0  0  0  0  0  0  0  0  0  0  0  0
    4.6315   -8.0761    5.4273 H   0  0  0  0  0  0  0  0  0  0  0  0
  1  2  2  0
  1 36  1  0
  1 37  1  0
  2 12  1  0
  2  3  1  0
  3  4  1  0
  3 38  1  0
  3 39  1  0
  4  5  1  0
  4 10  1  0
  4 40  1  1
  5  9  2  0
  5  6  1  0
  6  7  2  0
  6 41  1  0
  7  8  1  0
  7 42  1  0
  8  9  1  0
  9 43  1  0
 10 11  1  0
 10 12  2  0
 11 44  1  0
 11 45  1  0
 11 46  1  0
 12 13  1  0
 13 27  1  0
 13 14  1  0
 13 47  1  1
 14 15  1  0
 15 27  1  0
 15 16  1  0
 15 48  1  1
 16 17  1  0
 16 49  1  0
 16 50  1  0
 18 17  1  1
 17 51  1  0
 17 52  1  0
 18 25  1  0
 18 34  1  0
 18 19  1  0
 19 20  1  0
 19 21  1  0
 19 53  1  6
 20 54  1  0
 21 22  1  0
 21 55  1  0
 21 56  1  0
 22 34  1  0
 22 23  1  0
 22 57  1  1
 23 24  1  0
 23 29  1  0
 23 58  1  6
 24 25  1  0
 24 59  1  0
 24 60  1  0
 25 26  1  6
 25 27  1  0
 26 61  1  0
 26 62  1  0
 26 63  1  0
 27 28  1  6
 28 64  1  0
 29 30  1  0
 29 31  1  0
 29 65  1  1
 30 66  1  0
 31 32  1  0
 31 67  1  0
 31 68  1  0
 32 33  1  0
 32 69  1  0
 32 70  1  0
 33 34  1  0
 33 71  1  0
 33 72  1  0
 34 35  1  1
 35 73  1  0
 35 74  1  0
 35 75  1  0
M  END
>  <i_m_ct_stereo_status>  (380) 
1

>  <s_m_source_file>  (380) 
/var/tmp/pbs.5076255.sched01/tmpyj7ipo08/120az4jmrmy.sdf

>  <i_m_source_file_index>  (380) 
39

>  <i_lp_mmshare_version>  (380) 
48012

>  <i_f3d_flags>  (380) 
0

>  <s_epik_input>  (380) 
W2NIXTFvW2NIXVtjSF1jMVtDQEhdKFtDSDJdQzI9W0NIMl0pQyhbQ0gzXSk9QzJbQ0BASF0zT1tDQEhdKFtDSDJdW0NIMl00KVtDQEBdMyhbT0hdKVtDQF0oW0NAXTQ1NikoW0NIM10pW0NIMl1bQ0BIXTdbQ0BASF0oW0NIMl1bQ0BASF01W09IXSlbQ0BAXTYoW0NIM10pW0NIMl1bQ0gyXVtDSDJdW0NAQEhdN1tPSF0=

>  <s_epik_cmdline>  (380) 
J2VwaWtfcHl0aG9uJywgJy1waHQnLCAnMi4wJywgJy1waCcsICc3LjAnLCAnLXRuJywgJzgnLCAnLW1hJywgJzIwMCcsICctaW1hZScsICc8aW5maWxlLm1hZT4nLCAnLW9tYWUnLCAnPG91dGZpbGUubWFlPic=

>  <r_lp_tautomer_probability>  (380) 
1

>  <r_epik_Ionization_Penalty>  (380) 
2.72596e-06

>  <r_epik_Ionization_Penalty_Charging>  (380) 
0

>  <r_epik_Ionization_Penalty_Neutral>  (380) 
2.72596e-06

>  <r_epik_State_Penalty>  (380) 
-0

>  <r_epik_Charging_Adjusted_Penalty>  (380) 
0

>  <i_epik_Tot_Q>  (380) 
0

>  <i_epik_Tot_abs_Q>  (380) 
0

>  <s_lp_Force_Field>  (380) 
OPLS3e

>  <r_lp_Energy>  (380) 
188.699

>  <b_lp_Chiralities_Consistent>  (380) 
1

>  <s_lp_Variant>  (380) 
115:0-1

>  <s_i_glide_gridfile>  (380) 
pfpi4k_grid

>  <i_i_glide_lignum>  (380) 
39

>  <i_i_glide_rotatable_bonds>  (380) 
5

>  <r_i_docking_score>  (380) 
-3.02111

>  <r_i_glide_ligand_efficiency>  (380) 
-0.0863173

>  <r_i_glide_ligand_efficiency_sa>  (380) 
-0.28235

>  <r_i_glide_ligand_efficiency_ln>  (380) 
-0.6632

>  <r_i_glide_gscore>  (380) 
-3.02111

>  <r_i_glide_lipo>  (380) 
-0.583366

>  <r_i_glide_hbond>  (380) 
-0.16

>  <r_i_glide_metal>  (380) 
-0

>  <r_i_glide_rewards>  (380) 
-0.13203

>  <r_i_glide_evdw>  (380) 
-33.8262

>  <r_i_glide_ecoul>  (380) 
-4.19987

>  <r_i_glide_erotb>  (380) 
0.175581

>  <r_i_glide_esite>  (380) 
0

>  <r_i_glide_emodel>  (380) 
-43.7596

>  <r_i_glide_energy>  (380) 
-38.0261

>  <r_i_glide_einternal>  (380) 
2.34354

>  <r_i_glide_intrahb_reward>  (380) 
-0

>  <i_i_glide_confnum>  (380) 
6

>  <i_i_glide_posenum>  (380) 
10

>  <r_i_glide_eff_state_penalty>  (380) 
0

>  <ligand_id>  (380) 
115

>  <original_smiles>  (380) 
C=C1CC(c2ccoc2)C(C)=C1C1OC2CCC34C(O)CC5C(CC3(C)C21O)C(O)CCCC54C

>  <smiles>  (380) 
[H]OC1([H])C([H])([H])C([H])([H])C([H])([H])C2(C([H])([H])[H])C3([H])C([H])([H])C([H])(O[H])C24C([H])([H])C([H])([H])C2([H])OC([H])(C5=C(C([H])([H])[H])C([H])(c6c([H])oc([H])c6[H])C([H])([H])C5=C([H])[H])C2(O[H])C4(C([H])([H])[H])C([H])([H])C13[H]

$$$$
115:0:1
     RDKit          3D

 75 81  0  0  1  0  0  0  0  0999 V2000
    8.1507   -4.7237    0.4471 C   0  0  0  0  0  0  0  0  0  0  0  0
    7.1345   -3.8624    0.2390 C   0  0  0  0  0  0  0  0  0  0  0  0
    7.1890   -2.8244   -0.8629 C   0  0  0  0  0  0  0  0  0  0  0  0
    5.8245   -2.1147   -0.7575 C   0  0  1  0  0  0  0  0  0  0  0  0
    5.0005   -2.2001   -2.0255 C   0  0  0  0  0  0  0  0  0  0  0  0
    4.2295   -1.1723   -2.6500 C   0  0  0  0  0  0  0  0  0  0  0  0
    3.6389   -1.7389   -3.7403 C   0  0  0  0  0  0  0  0  0  0  0  0
    3.9840   -3.0473   -3.8478 O   0  0  0  0  0  0  0  0  0  0  0  0
    4.7915   -3.3126   -2.7936 C   0  0  0  0  0  0  0  0  0  0  0  0
    5.1585   -2.7854    0.4318 C   0  0  0  0  0  0  0  0  0  0  0  0
    3.8002   -2.2449    0.8439 C   0  0  0  0  0  0  0  0  0  0  0  0
    5.8803   -3.7968    0.9672 C   0  0  0  0  0  0  0  0  0  0  0  0
    5.4695   -4.6220    2.2083 C   0  0  2  0  0  0  0  0  0  0  0  0
    6.5393   -5.4406    2.7870 O   0  0  0  0  0  0  0  0  0  0  0  0
    5.5305   -6.4266    3.0903 C   0  0  2  0  0  0  0  0  0  0  0  0
    5.7162   -7.9330    3.0600 C   0  0  0  0  0  0  0  0  0  0  0  0
    4.3300   -8.6242    2.7778 C   0  0  0  0  0  0  0  0  0  0  0  0
    2.9937   -7.7527    2.8282 C   0  0  2  0  0  0  0  0  0  0  0  0
    1.9049   -8.4323    1.9697 C   0  0  1  0  0  0  0  0  0  0  0  0
    1.8119   -9.8222    2.2146 O   0  0  0  0  0  0  0  0  0  0  0  0
    0.6286   -7.7247    2.4242 C   0  0  0  0  0  0  0  0  0  0  0  0
    0.9814   -7.0722    3.7844 C   0  0  2  0  0  0  0  0  0  0  0  0
    1.1673   -5.6064    3.9439 C   0  0  2  0  0  0  0  0  0  0  0  0
    2.5315   -5.1656    3.2873 C   0  0  0  0  0  0  0  0  0  0  0  0
    3.1620   -6.1954    2.2607 C   0  0  2  0  0  0  0  0  0  0  0  0
    2.4574   -5.7809    0.9158 C   0  0  0  0  0  0  0  0  0  0  0  0
    4.6667   -5.9216    1.9701 C   0  0  1  0  0  0  0  0  0  0  0  0
    4.9774   -6.5318    0.7252 O   0  0  0  0  0  0  0  0  0  0  0  0
    0.9840   -5.3593    5.4988 C   0  0  1  0  0  0  0  0  0  0  0  0
   -0.0817   -4.4457    5.6733 O   0  0  0  0  0  0  0  0  0  0  0  0
    0.7788   -6.5547    6.5671 C   0  0  0  0  0  0  0  0  0  0  0  0
    0.7519   -8.1421    6.2883 C   0  0  0  0  0  0  0  0  0  0  0  0
    1.6265   -8.8285    5.1395 C   0  0  0  0  0  0  0  0  0  0  0  0
    2.3058   -7.7328    4.2841 C   0  0  1  0  0  0  0  0  0  0  0  0
    3.3504   -7.2358    5.3709 C   0  0  0  0  0  0  0  0  0  0  0  0
    8.1365   -5.4914    1.1990 H   0  0  0  0  0  0  0  0  0  0  0  0
    9.0252   -4.6749   -0.1771 H   0  0  0  0  0  0  0  0  0  0  0  0
    8.0178   -2.1394   -0.6965 H   0  0  0  0  0  0  0  0  0  0  0  0
    7.3457   -3.3041   -1.8280 H   0  0  0  0  0  0  0  0  0  0  0  0
    5.9724   -1.0615   -0.5126 H   0  0  0  0  0  0  0  0  0  0  0  0
    4.1071   -0.1448   -2.3363 H   0  0  0  0  0  0  0  0  0  0  0  0
    2.9630   -1.3801   -4.5023 H   0  0  0  0  0  0  0  0  0  0  0  0
    5.1304   -4.3334   -2.7164 H   0  0  0  0  0  0  0  0  0  0  0  0
    3.8444   -1.1602    0.9563 H   0  0  0  0  0  0  0  0  0  0  0  0
    3.4446   -2.6649    1.7780 H   0  0  0  0  0  0  0  0  0  0  0  0
    3.0674   -2.4494    0.0612 H   0  0  0  0  0  0  0  0  0  0  0  0
    5.0229   -3.9736    2.9654 H   0  0  0  0  0  0  0  0  0  0  0  0
    5.1373   -6.1407    4.0544 H   0  0  0  0  0  0  0  0  0  0  0  0
    6.4160   -8.2334    2.2748 H   0  0  0  0  0  0  0  0  0  0  0  0
    6.1612   -8.3014    3.9883 H   0  0  0  0  0  0  0  0  0  0  0  0
    4.4014   -9.0904    1.7865 H   0  0  0  0  0  0  0  0  0  0  0  0
    4.2210   -9.4685    3.4609 H   0  0  0  0  0  0  0  0  0  0  0  0
    2.0660   -8.3482    0.8994 H   0  0  0  0  0  0  0  0  0  0  0  0
    2.5566  -10.2597    1.8242 H   0  0  0  0  0  0  0  0  0  0  0  0
    0.2283   -7.0205    1.7008 H   0  0  0  0  0  0  0  0  0  0  0  0
   -0.1669   -8.4650    2.5401 H   0  0  0  0  0  0  0  0  0  0  0  0
    0.0285   -7.2632    4.2749 H   0  0  0  0  0  0  0  0  0  0  0  0
    0.3586   -5.1150    3.3969 H   0  0  0  0  0  0  0  0  0  0  0  0
    2.3307   -4.2300    2.7802 H   0  0  0  0  0  0  0  0  0  0  0  0
    3.2575   -4.8386    4.0264 H   0  0  0  0  0  0  0  0  0  0  0  0
    2.9112   -4.8672    0.5328 H   0  0  0  0  0  0  0  0  0  0  0  0
    1.4095   -5.5255    1.0063 H   0  0  0  0  0  0  0  0  0  0  0  0
    2.5734   -6.4831    0.0996 H   0  0  0  0  0  0  0  0  0  0  0  0
    4.8653   -7.4614    0.8451 H   0  0  0  0  0  0  0  0  0  0  0  0
    1.8528   -4.7906    5.8319 H   0  0  0  0  0  0  0  0  0  0  0  0
    0.1463   -3.6508    5.2117 H   0  0  0  0  0  0  0  0  0  0  0  0
    1.5365   -6.3864    7.3318 H   0  0  0  0  0  0  0  0  0  0  0  0
   -0.1354   -6.3388    7.1208 H   0  0  0  0  0  0  0  0  0  0  0  0
    0.9720   -8.6464    7.2298 H   0  0  0  0  0  0  0  0  0  0  0  0
   -0.2882   -8.4125    6.1033 H   0  0  0  0  0  0  0  0  0  0  0  0
    2.3613   -9.5072    5.5753 H   0  0  0  0  0  0  0  0  0  0  0  0
    0.9695   -9.4756    4.5586 H   0  0  0  0  0  0  0  0  0  0  0  0
    3.1395   -7.5201    6.3982 H   0  0  0  0  0  0  0  0  0  0  0  0
    3.5519   -6.1821    5.4550 H   0  0  0  0  0  0  0  0  0  0  0  0
    4.2993   -7.7419    5.2439 H   0  0  0  0  0  0  0  0  0  0  0  0
  1  2  2  0
  1 36  1  0
  1 37  1  0
  2 12  1  0
  2  3  1  0
  3  4  1  0
  3 38  1  0
  3 39  1  0
  4  5  1  0
  4 10  1  0
  4 40  1  1
  5  9  2  0
  5  6  1  0
  6  7  2  0
  6 41  1  0
  7  8  1  0
  7 42  1  0
  8  9  1  0
  9 43  1  0
 10 11  1  0
 10 12  2  0
 11 44  1  0
 11 45  1  0
 11 46  1  0
 12 13  1  0
 13 27  1  0
 13 14  1  0
 13 47  1  1
 14 15  1  0
 15 27  1  0
 15 16  1  0
 15 48  1  1
 16 17  1  0
 16 49  1  0
 16 50  1  0
 18 17  1  1
 17 51  1  0
 17 52  1  0
 18 25  1  0
 18 34  1  0
 18 19  1  0
 19 20  1  0
 19 21  1  0
 19 53  1  6
 20 54  1  0
 21 22  1  0
 21 55  1  0
 21 56  1  0
 22 34  1  0
 22 23  1  0
 22 57  1  1
 23 24  1  0
 23 29  1  0
 23 58  1  6
 24 25  1  0
 24 59  1  0
 24 60  1  0
 25 26  1  6
 25 27  1  0
 26 61  1  0
 26 62  1  0
 26 63  1  0
 27 28  1  6
 28 64  1  0
 29 30  1  0
 29 31  1  0
 29 65  1  1
 30 66  1  0
 31 32  1  0
 31 67  1  0
 31 68  1  0
 32 33  1  0
 32 69  1  0
 32 70  1  0
 33 34  1  0
 33 71  1  0
 33 72  1  0
 34 35  1  1
 35 73  1  0
 35 74  1  0
 35 75  1  0
M  END
>  <i_m_ct_stereo_status>  (381) 
1

>  <s_m_source_file>  (381) 
/var/tmp/pbs.5076255.sched01/tmpyj7ipo08/120az4jmrmy.sdf

>  <i_m_source_file_index>  (381) 
39

>  <i_lp_mmshare_version>  (381) 
48012

>  <i_f3d_flags>  (381) 
0

>  <s_epik_input>  (381) 
W2NIXTFvW2NIXVtjSF1jMVtDQEhdKFtDSDJdQzI9W0NIMl0pQyhbQ0gzXSk9QzJbQ0BASF0zT1tDQEhdKFtDSDJdW0NIMl00KVtDQEBdMyhbT0hdKVtDQF0oW0NAXTQ1NikoW0NIM10pW0NIMl1bQ0BIXTdbQ0BASF0oW0NIMl1bQ0BASF01W09IXSlbQ0BAXTYoW0NIM10pW0NIMl1bQ0gyXVtDSDJdW0NAQEhdN1tPSF0=

>  <s_epik_cmdline>  (381) 
J2VwaWtfcHl0aG9uJywgJy1waHQnLCAnMi4wJywgJy1waCcsICc3LjAnLCAnLXRuJywgJzgnLCAnLW1hJywgJzIwMCcsICctaW1hZScsICc8aW5maWxlLm1hZT4nLCAnLW9tYWUnLCAnPG91dGZpbGUubWFlPic=

>  <r_lp_tautomer_probability>  (381) 
1

>  <r_epik_Ionization_Penalty>  (381) 
2.72596e-06

>  <r_epik_Ionization_Penalty_Charging>  (381) 
0

>  <r_epik_Ionization_Penalty_Neutral>  (381) 
2.72596e-06

>  <r_epik_State_Penalty>  (381) 
-0

>  <r_epik_Charging_Adjusted_Penalty>  (381) 
0

>  <i_epik_Tot_Q>  (381) 
0

>  <i_epik_Tot_abs_Q>  (381) 
0

>  <s_lp_Force_Field>  (381) 
OPLS3e

>  <r_lp_Energy>  (381) 
188.699

>  <b_lp_Chiralities_Consistent>  (381) 
1

>  <s_lp_Variant>  (381) 
115:0-1

>  <s_i_glide_gridfile>  (381) 
pfpi4k_grid

>  <i_i_glide_lignum>  (381) 
39

>  <i_i_glide_rotatable_bonds>  (381) 
5

>  <r_i_docking_score>  (381) 
-2.84966

>  <r_i_glide_ligand_efficiency>  (381) 
-0.081419

>  <r_i_glide_ligand_efficiency_sa>  (381) 
-0.266327

>  <r_i_glide_ligand_efficiency_ln>  (381) 
-0.625564

>  <r_i_glide_gscore>  (381) 
-2.84966

>  <r_i_glide_lipo>  (381) 
-0.765167

>  <r_i_glide_hbond>  (381) 
-0.0362051

>  <r_i_glide_metal>  (381) 
-0

>  <r_i_glide_rewards>  (381) 
-0.13203

>  <r_i_glide_evdw>  (381) 
-39.6514

>  <r_i_glide_ecoul>  (381) 
-0.728491

>  <r_i_glide_erotb>  (381) 
0.175581

>  <r_i_glide_esite>  (381) 
0

>  <r_i_glide_emodel>  (381) 
-46.0145

>  <r_i_glide_energy>  (381) 
-40.3798

>  <r_i_glide_einternal>  (381) 
2.1538

>  <r_i_glide_intrahb_reward>  (381) 
-0

>  <i_i_glide_confnum>  (381) 
6

>  <i_i_glide_posenum>  (381) 
12

>  <r_i_glide_eff_state_penalty>  (381) 
0

>  <ligand_id>  (381) 
115

>  <original_smiles>  (381) 
C=C1CC(c2ccoc2)C(C)=C1C1OC2CCC34C(O)CC5C(CC3(C)C21O)C(O)CCCC54C

>  <smiles>  (381) 
[H]OC1([H])C([H])([H])C([H])([H])C([H])([H])C2(C([H])([H])[H])C3([H])C([H])([H])C([H])(O[H])C24C([H])([H])C([H])([H])C2([H])OC([H])(C5=C(C([H])([H])[H])C([H])(c6c([H])oc([H])c6[H])C([H])([H])C5=C([H])[H])C2(O[H])C4(C([H])([H])[H])C([H])([H])C13[H]

$$$$
115:0:2
     RDKit          3D

 75 81  0  0  1  0  0  0  0  0999 V2000
    8.1661   -4.5792    0.4358 C   0  0  0  0  0  0  0  0  0  0  0  0
    7.1065   -3.7710    0.2290 C   0  0  0  0  0  0  0  0  0  0  0  0
    7.1209   -2.7231   -0.8643 C   0  0  0  0  0  0  0  0  0  0  0  0
    5.7250   -2.0786   -0.7663 C   0  0  1  0  0  0  0  0  0  0  0  0
    4.9220   -2.2012   -2.0425 C   0  0  0  0  0  0  0  0  0  0  0  0
    4.1975   -1.1799   -2.7304 C   0  0  0  0  0  0  0  0  0  0  0  0
    3.6065   -1.7805   -3.8009 C   0  0  0  0  0  0  0  0  0  0  0  0
    3.9094   -3.1034   -3.8393 O   0  0  0  0  0  0  0  0  0  0  0  0
    4.6910   -3.3424   -2.7594 C   0  0  0  0  0  0  0  0  0  0  0  0
    5.0817   -2.7868    0.4123 C   0  0  0  0  0  0  0  0  0  0  0  0
    3.6961   -2.3108    0.8118 C   0  0  0  0  0  0  0  0  0  0  0  0
    5.8441   -3.7689    0.9481 C   0  0  0  0  0  0  0  0  0  0  0  0
    5.4578   -4.6218    2.1798 C   0  0  2  0  0  0  0  0  0  0  0  0
    6.5455   -5.4450    2.7149 O   0  0  0  0  0  0  0  0  0  0  0  0
    5.5503   -6.4454    3.0269 C   0  0  2  0  0  0  0  0  0  0  0  0
    5.7262   -7.9522    2.9504 C   0  0  0  0  0  0  0  0  0  0  0  0
    4.3282   -8.6339    2.6973 C   0  0  0  0  0  0  0  0  0  0  0  0
    2.9986   -7.7608    2.8113 C   0  0  2  0  0  0  0  0  0  0  0  0
    1.8787   -8.4117    1.9747 C   0  0  1  0  0  0  0  0  0  0  0  0
    1.7950   -9.8100    2.1682 O   0  0  0  0  0  0  0  0  0  0  0  0
    0.6183   -7.7123    2.4812 C   0  0  0  0  0  0  0  0  0  0  0  0
    1.0177   -7.0960    3.8461 C   0  0  2  0  0  0  0  0  0  0  0  0
    1.2153   -5.6356    4.0331 C   0  0  2  0  0  0  0  0  0  0  0  0
    2.5620   -5.1880    3.3414 C   0  0  0  0  0  0  0  0  0  0  0  0
    3.1573   -6.1968    2.2674 C   0  0  2  0  0  0  0  0  0  0  0  0
    2.4165   -5.7529    0.9506 C   0  0  0  0  0  0  0  0  0  0  0  0
    4.6570   -5.9265    1.9380 C   0  0  1  0  0  0  0  0  0  0  0  0
    4.9375   -6.5279    0.6773 O   0  0  0  0  0  0  0  0  0  0  0  0
    1.0835   -5.4233    5.5980 C   0  0  1  0  0  0  0  0  0  0  0  0
    0.0298   -4.5113    5.8344 O   0  0  0  0  0  0  0  0  0  0  0  0
    0.9128   -6.6445    6.6451 C   0  0  0  0  0  0  0  0  0  0  0  0
    0.8670   -8.2247    6.3296 C   0  0  0  0  0  0  0  0  0  0  0  0
    1.7005   -8.8869    5.1372 C   0  0  0  0  0  0  0  0  0  0  0  0
    2.3552   -7.7727    4.2882 C   0  0  1  0  0  0  0  0  0  0  0  0
    3.4383   -7.3058    5.3499 C   0  0  0  0  0  0  0  0  0  0  0  0
    8.1944   -5.3485    1.1863 H   0  0  0  0  0  0  0  0  0  0  0  0
    9.0400   -4.4737   -0.1822 H   0  0  0  0  0  0  0  0  0  0  0  0
    7.9134   -2.0005   -0.6808 H   0  0  0  0  0  0  0  0  0  0  0  0
    7.3054   -3.1859   -1.8331 H   0  0  0  0  0  0  0  0  0  0  0  0
    5.8174   -1.0210   -0.5144 H   0  0  0  0  0  0  0  0  0  0  0  0
    4.1014   -0.1350   -2.4685 H   0  0  0  0  0  0  0  0  0  0  0  0
    2.9555   -1.4386   -4.5918 H   0  0  0  0  0  0  0  0  0  0  0  0
    4.9963   -4.3694   -2.6288 H   0  0  0  0  0  0  0  0  0  0  0  0
    3.6844   -1.2264    0.9306 H   0  0  0  0  0  0  0  0  0  0  0  0
    3.3566   -2.7521    1.7409 H   0  0  0  0  0  0  0  0  0  0  0  0
    2.9813   -2.5456    0.0209 H   0  0  0  0  0  0  0  0  0  0  0  0
    5.0408   -3.9835    2.9634 H   0  0  0  0  0  0  0  0  0  0  0  0
    5.1793   -6.1801    4.0044 H   0  0  0  0  0  0  0  0  0  0  0  0
    6.3925   -8.2356    2.1317 H   0  0  0  0  0  0  0  0  0  0  0  0
    6.2014   -8.3443    3.8509 H   0  0  0  0  0  0  0  0  0  0  0  0
    4.3637   -9.0676    1.6884 H   0  0  0  0  0  0  0  0  0  0  0  0
    4.2403   -9.4985    3.3553 H   0  0  0  0  0  0  0  0  0  0  0  0
    2.0111   -8.3075    0.9030 H   0  0  0  0  0  0  0  0  0  0  0  0
    1.6949   -9.9894    3.0924 H   0  0  0  0  0  0  0  0  0  0  0  0
    0.2031   -6.9881    1.7869 H   0  0  0  0  0  0  0  0  0  0  0  0
   -0.1788   -8.4506    2.6018 H   0  0  0  0  0  0  0  0  0  0  0  0
    0.0815   -7.2974    4.3618 H   0  0  0  0  0  0  0  0  0  0  0  0
    0.3942   -5.1230    3.5243 H   0  0  0  0  0  0  0  0  0  0  0  0
    2.3399   -4.2379    2.8719 H   0  0  0  0  0  0  0  0  0  0  0  0
    3.3116   -4.8772    4.0669 H   0  0  0  0  0  0  0  0  0  0  0  0
    2.8554   -4.8341    0.5745 H   0  0  0  0  0  0  0  0  0  0  0  0
    1.3776   -5.4894    1.0893 H   0  0  0  0  0  0  0  0  0  0  0  0
    2.4933   -6.4327    0.1095 H   0  0  0  0  0  0  0  0  0  0  0  0
    4.4848   -6.0292    0.0150 H   0  0  0  0  0  0  0  0  0  0  0  0
    1.9629   -4.8627    5.9101 H   0  0  0  0  0  0  0  0  0  0  0  0
   -0.7844   -4.9803    5.7230 H   0  0  0  0  0  0  0  0  0  0  0  0
    1.6976   -6.4979    7.3864 H   0  0  0  0  0  0  0  0  0  0  0  0
    0.0203   -6.4442    7.2383 H   0  0  0  0  0  0  0  0  0  0  0  0
    1.1164   -8.7544    7.2504 H   0  0  0  0  0  0  0  0  0  0  0  0
   -0.1817   -8.4851    6.1745 H   0  0  0  0  0  0  0  0  0  0  0  0
    2.4476   -9.5769    5.5334 H   0  0  0  0  0  0  0  0  0  0  0  0
    1.0148   -9.5163    4.5712 H   0  0  0  0  0  0  0  0  0  0  0  0
    3.2610   -7.6136    6.3764 H   0  0  0  0  0  0  0  0  0  0  0  0
    3.6474   -6.2550    5.4525 H   0  0  0  0  0  0  0  0  0  0  0  0
    4.3813   -7.8113    5.1795 H   0  0  0  0  0  0  0  0  0  0  0  0
  1  2  2  0
  1 36  1  0
  1 37  1  0
  2 12  1  0
  2  3  1  0
  3  4  1  0
  3 38  1  0
  3 39  1  0
  4  5  1  0
  4 10  1  0
  4 40  1  1
  5  9  2  0
  5  6  1  0
  6  7  2  0
  6 41  1  0
  7  8  1  0
  7 42  1  0
  8  9  1  0
  9 43  1  0
 10 11  1  0
 10 12  2  0
 11 44  1  0
 11 45  1  0
 11 46  1  0
 12 13  1  0
 13 27  1  0
 13 14  1  0
 13 47  1  1
 14 15  1  0
 15 27  1  0
 15 16  1  0
 15 48  1  1
 16 17  1  0
 16 49  1  0
 16 50  1  0
 18 17  1  1
 17 51  1  0
 17 52  1  0
 18 25  1  0
 18 34  1  0
 18 19  1  0
 19 20  1  0
 19 21  1  0
 19 53  1  6
 20 54  1  0
 21 22  1  0
 21 55  1  0
 21 56  1  0
 22 34  1  0
 22 23  1  0
 22 57  1  1
 23 24  1  0
 23 29  1  0
 23 58  1  6
 24 25  1  0
 24 59  1  0
 24 60  1  0
 25 26  1  6
 25 27  1  0
 26 61  1  0
 26 62  1  0
 26 63  1  0
 27 28  1  6
 28 64  1  0
 29 30  1  0
 29 31  1  0
 29 65  1  1
 30 66  1  0
 31 32  1  0
 31 67  1  0
 31 68  1  0
 32 33  1  0
 32 69  1  0
 32 70  1  0
 33 34  1  0
 33 71  1  0
 33 72  1  0
 34 35  1  1
 35 73  1  0
 35 74  1  0
 35 75  1  0
M  END
>  <i_m_ct_stereo_status>  (382) 
1

>  <s_m_source_file>  (382) 
/var/tmp/pbs.5076255.sched01/tmpyj7ipo08/120az4jmrmy.sdf

>  <i_m_source_file_index>  (382) 
39

>  <i_lp_mmshare_version>  (382) 
48012

>  <i_f3d_flags>  (382) 
0

>  <s_epik_input>  (382) 
W2NIXTFvW2NIXVtjSF1jMVtDQEhdKFtDSDJdQzI9W0NIMl0pQyhbQ0gzXSk9QzJbQ0BASF0zT1tDQEhdKFtDSDJdW0NIMl00KVtDQEBdMyhbT0hdKVtDQF0oW0NAXTQ1NikoW0NIM10pW0NIMl1bQ0BIXTdbQ0BASF0oW0NIMl1bQ0BASF01W09IXSlbQ0BAXTYoW0NIM10pW0NIMl1bQ0gyXVtDSDJdW0NAQEhdN1tPSF0=

>  <s_epik_cmdline>  (382) 
J2VwaWtfcHl0aG9uJywgJy1waHQnLCAnMi4wJywgJy1waCcsICc3LjAnLCAnLXRuJywgJzgnLCAnLW1hJywgJzIwMCcsICctaW1hZScsICc8aW5maWxlLm1hZT4nLCAnLW9tYWUnLCAnPG91dGZpbGUubWFlPic=

>  <r_lp_tautomer_probability>  (382) 
1

>  <r_epik_Ionization_Penalty>  (382) 
2.72596e-06

>  <r_epik_Ionization_Penalty_Charging>  (382) 
0

>  <r_epik_Ionization_Penalty_Neutral>  (382) 
2.72596e-06

>  <r_epik_State_Penalty>  (382) 
-0

>  <r_epik_Charging_Adjusted_Penalty>  (382) 
0

>  <i_epik_Tot_Q>  (382) 
0

>  <i_epik_Tot_abs_Q>  (382) 
0

>  <s_lp_Force_Field>  (382) 
OPLS3e

>  <r_lp_Energy>  (382) 
188.699

>  <b_lp_Chiralities_Consistent>  (382) 
1

>  <s_lp_Variant>  (382) 
115:0-1

>  <s_i_glide_gridfile>  (382) 
pfpi4k_grid

>  <i_i_glide_lignum>  (382) 
39

>  <i_i_glide_rotatable_bonds>  (382) 
5

>  <r_i_docking_score>  (382) 
-2.73231

>  <r_i_glide_ligand_efficiency>  (382) 
-0.0780659

>  <r_i_glide_ligand_efficiency_sa>  (382) 
-0.255359

>  <r_i_glide_ligand_efficiency_ln>  (382) 
-0.599802

>  <r_i_glide_gscore>  (382) 
-2.73231

>  <r_i_glide_lipo>  (382) 
-0.697442

>  <r_i_glide_hbond>  (382) 
-0.0161887

>  <r_i_glide_metal>  (382) 
-0

>  <r_i_glide_rewards>  (382) 
-0.13203

>  <r_i_glide_evdw>  (382) 
-39.8957

>  <r_i_glide_ecoul>  (382) 
-0.449618

>  <r_i_glide_erotb>  (382) 
0.175581

>  <r_i_glide_esite>  (382) 
0

>  <r_i_glide_emodel>  (382) 
-45.9182

>  <r_i_glide_energy>  (382) 
-40.3453

>  <r_i_glide_einternal>  (382) 
1.60435

>  <r_i_glide_intrahb_reward>  (382) 
-0

>  <i_i_glide_confnum>  (382) 
6

>  <i_i_glide_posenum>  (382) 
20

>  <r_i_glide_eff_state_penalty>  (382) 
0

>  <ligand_id>  (382) 
115

>  <original_smiles>  (382) 
C=C1CC(c2ccoc2)C(C)=C1C1OC2CCC34C(O)CC5C(CC3(C)C21O)C(O)CCCC54C

>  <smiles>  (382) 
[H]OC1([H])C([H])([H])C([H])([H])C([H])([H])C2(C([H])([H])[H])C3([H])C([H])([H])C([H])(O[H])C24C([H])([H])C([H])([H])C2([H])OC([H])(C5=C(C([H])([H])[H])C([H])(c6c([H])oc([H])c6[H])C([H])([H])C5=C([H])[H])C2(O[H])C4(C([H])([H])[H])C([H])([H])C13[H]

$$$$
